@<TRIPOS>MOLECULE
ZINC04428529
   53    56     0     0     0
SMALL
USER_CHARGES

@<TRIPOS>ATOM
      1 C1          0.4282    0.7651    1.2384 C.3       1 <0>        -0.2080
      2 C2          0.0050   -0.0027    0.0127 C.2       1 <0>         0.3647
      3 O1          0.7040   -0.0010   -0.9721 O.2       1 <0>        -0.4542
      4 C3         -1.2905   -0.7727    0.0158 C.3       1 <0>        -0.1325
      5 H1         -2.0415   -0.2446    0.6034 H         1 <0>         0.0972
      6 C4         -1.7935   -0.9827   -1.4341 C.3       1 <0>        -0.1186
      7 C5         -1.9305   -2.5169   -1.6323 C.3       1 <0>        -0.1151
      8 C6         -2.1068   -3.0336   -0.2000 C.3       1 <0>        -0.0796
      9 H2         -3.1156   -2.8264    0.1569 H         1 <0>         0.0777
     10 C7         -1.0708   -2.1742    0.5759 C.3       1 <0>        -0.0487
     11 C8         -1.3489   -2.3630    2.0549 C.3       1 <0>        -0.1047
     12 C9         -1.0643   -3.8367    2.3850 C.3       1 <0>        -0.1222
     13 C10        -1.9046   -4.7802    1.5293 C.3       1 <0>        -0.0680
     14 H3         -2.9551   -4.6575    1.7928 H         1 <0>         0.0704
     15 C11        -1.7585   -4.4942    0.0214 C.3       1 <0>        -0.0776
     16 H4         -0.7305   -4.6831   -0.2877 H         1 <0>         0.0863
     17 C12        -2.7266   -5.3822   -0.7660 C.3       1 <0>        -0.1118
     18 C13        -2.3186   -6.8466   -0.5915 C.3       1 <0>        -0.0977
     19 C14        -2.2642   -7.1658    0.8913 C.2       1 <0>        -0.0206
     20 C15        -2.8820   -8.2703    1.3099 C.2       1 <0>        -0.2434
     21 H5         -3.4070   -8.8958    0.6032 H         1 <0>         0.1337
     22 C16        -2.8495   -8.6362    2.7300 C.2       1 <0>         0.3882
     23 O2         -3.6756   -9.3796    3.2168 O.2       1 <0>        -0.4580
     24 C17        -1.7290   -8.0371    3.5574 C.3       1 <0>        -0.1668
     25 H6         -1.9153   -8.2141    4.6167 H         1 <0>         0.0925
     26 H7         -0.7768   -8.4825    3.2693 H         1 <0>         0.0997
     27 C18        -1.7074   -6.5351    3.2776 C.3       1 <0>        -0.1069
     28 C19        -1.4839   -6.2270    1.8163 C.3       1 <0>        -0.0241
     29 C20         0.0121   -6.3503    1.5204 C.3       1 <0>        -0.1492
     30 C21         0.3461   -2.6481    0.2465 C.3       1 <0>        -0.1572
     31 H8          1.3837    1.2542    1.0489 H         1 <0>         0.0809
     32 H9         -0.3247    1.5173    1.4738 H         1 <0>         0.0918
     33 H10         0.5316    0.0791    2.0791 H         1 <0>         0.0918
     34 H11        -2.7617   -0.5002   -1.5678 H         1 <0>         0.0675
     35 H12        -1.0717   -0.5769   -2.1430 H         1 <0>         0.0790
     36 H13        -2.8065   -2.7509   -2.2372 H         1 <0>         0.0676
     37 H14        -1.0279   -2.9297   -2.0829 H         1 <0>         0.0698
     38 H15        -0.6944   -1.7180    2.6411 H         1 <0>         0.0661
     39 H16        -2.3917   -2.1291    2.2695 H         1 <0>         0.0682
     40 H17        -0.0085   -4.0427    2.2091 H         1 <0>         0.0749
     41 H18        -1.2894   -4.0152    3.4365 H         1 <0>         0.0667
     42 H19        -3.7398   -5.2390   -0.3905 H         1 <0>         0.0659
     43 H20        -2.6874   -5.1165   -1.8224 H         1 <0>         0.0725
     44 H21        -3.0518   -7.4905   -1.0771 H         1 <0>         0.0771
     45 H22        -1.3365   -7.0077   -1.0361 H         1 <0>         0.0840
     46 H23        -2.6504   -6.0986    3.6068 H         1 <0>         0.0701
     47 H24        -0.8915   -6.0806    3.8396 H         1 <0>         0.0811
     48 H25         0.5667   -5.6628    2.1591 H         1 <0>         0.0702
     49 H26         0.3383   -7.3717    1.7166 H         1 <0>         0.0587
     50 H27         0.1972   -6.1043    0.4748 H         1 <0>         0.0638
     51 H28         1.0689   -2.0310    0.7800 H         1 <0>         0.0510
     52 H29         0.4614   -3.6883    0.5512 H         1 <0>         0.0714
     53 H30         0.5175   -2.5628   -0.8266 H         1 <0>         0.0644
@<TRIPOS>BOND
     1    1    2 1
     2    1   31 1
     3    1   32 1
     4    1   33 1
     5    2    3 2
     6    2    4 1
     7    4    5 1
     8    4   10 1
     9    4    6 1
    10    6    7 1
    11    6   34 1
    12    6   35 1
    13    7    8 1
    14    7   36 1
    15    7   37 1
    16    8    9 1
    17    8   15 1
    18    8   10 1
    19   10   11 1
    20   10   30 1
    21   11   12 1
    22   11   38 1
    23   11   39 1
    24   12   13 1
    25   12   40 1
    26   12   41 1
    27   13   14 1
    28   13   28 1
    29   13   15 1
    30   15   16 1
    31   15   17 1
    32   17   18 1
    33   17   42 1
    34   17   43 1
    35   18   19 1
    36   18   44 1
    37   18   45 1
    38   19   28 1
    39   19   20 2
    40   20   21 1
    41   20   22 1
    42   22   23 2
    43   22   24 1
    44   24   25 1
    45   24   26 1
    46   24   27 1
    47   27   28 1
    48   27   46 1
    49   27   47 1
    50   28   29 1
    51   29   48 1
    52   29   49 1
    53   29   50 1
    54   30   51 1
    55   30   52 1
    56   30   53 1
@<TRIPOS>MOLECULE
ZINC03881875
   62    65     0     0     0
SMALL
USER_CHARGES
(17-acetyl-6,10,13-trimethyl-3-oxo-2,6,7,8,9,11,12,14,15,16-decahydro-1H-cyclopenta[a]phenanthren-17-yl) acetate
@<TRIPOS>ATOM
      1 C1         -6.7857    0.2454    7.5623 C.3       1 <0>        -0.1498
      2 C2         -6.2038    1.1780    6.5037 C.3       1 <0>        -0.0659
      3 H1         -5.9025    2.1155    6.9853 H         1 <0>         0.0891
      4 C3         -4.9699    0.5236    5.8919 C.3       1 <0>        -0.1079
      5 C4         -4.2991    1.4580    4.8900 C.3       1 <0>        -0.0622
      6 H2         -3.8974    2.3151    5.4285 H         1 <0>         0.0768
      7 C5         -5.2456    1.9311    3.8092 C.3       1 <0>        -0.0736
      8 H3         -4.8579    2.9153    3.5020 H         1 <0>         0.0702
      9 C6         -5.1277    1.0689    2.5581 C.3       1 <0>        -0.1164
     10 C7         -3.7603    1.2899    1.8860 C.3       1 <0>        -0.1104
     11 C8         -2.6900    1.3922    2.9493 C.3       1 <0>        -0.0326
     12 C9         -3.1652    0.6790    4.2329 C.3       1 <0>        -0.0745
     13 H4         -3.5009   -0.3412    3.9999 H         1 <0>         0.0880
     14 C10        -1.8777    0.6187    5.0707 C.3       1 <0>        -0.1186
     15 C11        -0.7646    0.3584    4.0233 C.3       1 <0>        -0.1334
     16 C12        -1.3953    0.6225    2.6343 C.3       1 <0>         0.0800
     17 C13        -0.4801    1.4671    1.7916 C.2       1 <0>         0.3579
     18 O1          0.3337    2.1866    2.3191 O.2       1 <0>        -0.4334
     19 C14        -0.5785    1.4155    0.2887 C.3       1 <0>        -0.1998
     20 O2         -1.6958   -0.6305    1.9731 O.3       1 <0>        -0.3301
     21 C15        -0.6583   -1.4327    1.6871 C.2       1 <0>         0.4530
     22 O3          0.4612   -1.1096    2.0065 O.2       1 <0>        -0.5036
     23 C16        -0.8900   -2.7365    0.9676 C.3       1 <0>        -0.1486
     24 C17        -2.3216    2.8520    3.2125 C.3       1 <0>        -0.1529
     25 C18        -6.6660    2.2376    4.2029 C.3       1 <0>        -0.0217
     26 C19        -7.1820    1.4830    5.3900 C.2       1 <0>         0.0016
     27 C20        -8.4493    1.0888    5.4802 C.2       1 <0>        -0.2444
     28 C21        -9.4303    1.4104    4.4352 C.2       1 <0>         0.3835
     29 O4        -10.5257    0.8783    4.4282 O.2       1 <0>        -0.4627
     30 C22        -9.0436    2.4155    3.3750 C.3       1 <0>        -0.1601
     31 C23        -7.5872    2.1614    2.9960 C.3       1 <0>        -0.1064
     32 C24        -6.6561    3.7134    4.6283 C.3       1 <0>        -0.1517
     33 H5         -6.0411    0.0666    8.3379 H         1 <0>         0.0636
     34 H6         -7.6690    0.7052    8.0056 H         1 <0>         0.0599
     35 H7         -7.0627   -0.7018    7.0993 H         1 <0>         0.0597
     36 H8         -5.2672   -0.3895    5.3776 H         1 <0>         0.0665
     37 H9         -4.2614    0.2811    6.6815 H         1 <0>         0.0714
     38 H10        -5.9079    1.3342    1.8422 H         1 <0>         0.0749
     39 H11        -5.2349    0.0163    2.8262 H         1 <0>         0.0657
     40 H12        -3.7910    2.2143    1.3012 H         1 <0>         0.0661
     41 H13        -3.5513    0.4563    1.2126 H         1 <0>         0.0804
     42 H14        -1.9276   -0.2082    5.7832 H         1 <0>         0.0708
     43 H15        -1.7065    1.5549    5.5981 H         1 <0>         0.0744
     44 H16        -0.4254   -0.6751    4.0878 H         1 <0>         0.0772
     45 H17         0.0716    1.0370    4.1889 H         1 <0>         0.0930
     46 H18        -1.4993    1.1283    0.0246 H         1 <0>         0.0788
     47 H19         0.1496    0.7029   -0.0988 H         1 <0>         0.0953
     48 H20        -0.3740    2.4039   -0.1229 H         1 <0>         0.0920
     49 H21        -1.9542   -2.8549    0.7637 H         1 <0>         0.0932
     50 H22        -0.3378   -2.7359    0.0278 H         1 <0>         0.1070
     51 H23        -0.5454   -3.5616    1.5909 H         1 <0>         0.1068
     52 H24        -1.9460    3.3032    2.2941 H         1 <0>         0.0571
     53 H25        -3.2049    3.3947    3.5490 H         1 <0>         0.0762
     54 H26        -1.5511    2.8992    3.9820 H         1 <0>         0.0694
     55 H27        -8.8241    0.5205    6.3223 H         1 <0>         0.1346
     56 H28        -9.6268    2.2938    2.5718 H         1 <0>         0.0830
     57 H29        -9.1772    3.4292    3.7483 H         1 <0>         0.1013
     58 H30        -7.5168    1.1627    2.5594 H         1 <0>         0.0748
     59 H31        -7.2727    2.8992    2.2592 H         1 <0>         0.0834
     60 H32        -6.3303    4.3307    3.7911 H         1 <0>         0.0648
     61 H33        -7.6603    4.0113    4.9301 H         1 <0>         0.0590
     62 H34        -5.9708    3.8457    5.4655 H         1 <0>         0.0603
@<TRIPOS>BOND
     1    1    2 1
     2    1   33 1
     3    1   34 1
     4    1   35 1
     5    2    3 1
     6    2   26 1
     7    2    4 1
     8    4    5 1
     9    4   36 1
    10    4   37 1
    11    5    6 1
    12    5   12 1
    13    5    7 1
    14    7    8 1
    15    7    9 1
    16    7   25 1
    17    9   10 1
    18    9   38 1
    19    9   39 1
    20   10   11 1
    21   10   40 1
    22   10   41 1
    23   11   16 1
    24   11   12 1
    25   11   24 1
    26   12   13 1
    27   12   14 1
    28   14   15 1
    29   14   42 1
    30   14   43 1
    31   15   16 1
    32   15   44 1
    33   15   45 1
    34   16   17 1
    35   16   20 1
    36   17   18 2
    37   17   19 1
    38   19   46 1
    39   19   47 1
    40   19   48 1
    41   20   21 1
    42   21   22 2
    43   21   23 1
    44   23   49 1
    45   23   50 1
    46   23   51 1
    47   24   52 1
    48   24   53 1
    49   24   54 1
    50   25   31 1
    51   25   26 1
    52   25   32 1
    53   26   27 2
    54   27   28 1
    55   27   55 1
    56   28   29 2
    57   28   30 1
    58   30   31 1
    59   30   56 1
    60   30   57 1
    61   31   58 1
    62   31   59 1
    63   32   60 1
    64   32   61 1
    65   32   62 1
@<TRIPOS>MOLECULE
ZINC05029557
   62    65     0     0     0
SMALL
USER_CHARGES

@<TRIPOS>ATOM
      1 C1          0.2341    1.5655   -0.0976 C.3       1 <0>        -0.1535
      2 C2          0.1191    0.0403   -0.1367 C.3       1 <0>        -0.0666
      3 H1         -0.9308   -0.2454   -0.2012 H         1 <0>         0.0909
      4 C3          0.8733   -0.4999   -1.3535 C.3       1 <0>        -0.1079
      5 C4          0.8572   -2.0309   -1.3171 C.3       1 <0>        -0.0798
      6 H2         -0.1697   -2.3914   -1.2578 H         1 <0>         0.0881
      7 C5          1.6532   -2.5095   -0.0942 C.3       1 <0>        -0.0658
      8 H3          2.6561   -2.0846   -0.1352 H         1 <0>         0.0740
      9 C6          1.7601   -4.0309   -0.0478 C.3       1 <0>        -0.1247
     10 C7          2.3287   -4.6012   -1.3568 C.3       1 <0>        -0.0974
     11 C8          1.4185   -4.1389   -2.4785 C.3       1 <0>        -0.0440
     12 C9          1.5291   -2.5804   -2.5623 C.3       1 <0>        -0.0758
     13 H4          2.5733   -2.2696   -2.5976 H         1 <0>         0.0846
     14 C10         0.8218   -2.2794   -3.8884 C.3       1 <0>        -0.1168
     15 C11         1.3527   -3.3974   -4.8267 C.3       1 <0>        -0.1266
     16 C12         1.7937   -4.5873   -3.8873 C.3       1 <0>         0.0841
     17 C13         1.0448   -5.8430   -4.2524 C.2       1 <0>         0.3540
     18 O1          0.0153   -5.7714   -4.8795 O.2       1 <0>        -0.4317
     19 C14         1.5806   -7.1882   -3.8348 C.3       1 <0>        -0.2058
     20 O2          3.2029   -4.8059   -3.9785 O.3       1 <0>        -0.3267
     21 C15         3.6891   -5.1541   -5.1802 C.2       1 <0>         0.4503
     22 O3          2.9560   -5.1948   -6.1398 O.2       1 <0>        -0.4997
     23 C16         5.1493   -5.4943   -5.3326 C.3       1 <0>        -0.1484
     24 C17        -0.0258   -4.5412   -2.1735 C.3       1 <0>        -0.1603
     25 C18         0.9595   -2.0277    1.1861 C.3       1 <0>        -0.0285
     26 C19         0.7302   -0.5485    1.1217 C.2       1 <0>        -0.0150
     27 C20         1.0272    0.2880    2.1160 C.2       1 <0>        -0.2482
     28 C21         1.6049   -0.2282    3.3616 C.2       1 <0>         0.3876
     29 O4          2.2302    0.4842    4.1190 O.2       1 <0>        -0.4583
     30 C22         1.3789   -1.6989    3.6528 C.3       1 <0>        -0.1687
     31 C23         1.7675   -2.4782    2.3904 C.3       1 <0>        -0.1037
     32 C24        -0.4136   -2.6986    1.2594 C.3       1 <0>        -0.1520
     33 H5          1.2846    1.8491   -0.0331 H         1 <0>         0.0607
     34 H6         -0.2008    1.9860   -1.0043 H         1 <0>         0.0621
     35 H7         -0.2995    1.9479    0.7725 H         1 <0>         0.0617
     36 H8          0.3889   -0.1523   -2.2660 H         1 <0>         0.0726
     37 H9          1.9040   -0.1459   -1.3298 H         1 <0>         0.0674
     38 H10         2.4126   -4.3164    0.7773 H         1 <0>         0.0695
     39 H11         0.7692   -4.4518    0.1225 H         1 <0>         0.0747
     40 H12         3.3385   -4.2240   -1.5185 H         1 <0>         0.0767
     41 H13         2.3407   -5.6903   -1.3131 H         1 <0>         0.0676
     42 H14        -0.2597   -2.3530   -3.7742 H         1 <0>         0.0746
     43 H15         1.1052   -1.2954   -4.2621 H         1 <0>         0.0743
     44 H16         0.5615   -3.7281   -5.4996 H         1 <0>         0.0908
     45 H17         2.2039   -3.0312   -5.4006 H         1 <0>         0.0753
     46 H18         1.2511   -7.4116   -2.8201 H         1 <0>         0.1007
     47 H19         1.2084   -7.9546   -4.5147 H         1 <0>         0.0889
     48 H20         2.6700   -7.1715   -3.8677 H         1 <0>         0.0825
     49 H21         5.6464   -5.4023   -4.3669 H         1 <0>         0.0934
     50 H22         5.2480   -6.5171   -5.6962 H         1 <0>         0.1071
     51 H23         5.6095   -4.8094   -6.0448 H         1 <0>         0.1069
     52 H24        -0.3253   -4.1200   -1.2138 H         1 <0>         0.0837
     53 H25        -0.6818   -4.1623   -2.9572 H         1 <0>         0.0675
     54 H26        -0.0992   -5.6280   -2.1321 H         1 <0>         0.0558
     55 H27         0.8427    1.3462    2.0044 H         1 <0>         0.1412
     56 H28         2.0062   -2.0120    4.4874 H         1 <0>         0.0917
     57 H29         0.3296   -1.8723    3.8915 H         1 <0>         0.0996
     58 H30         1.5884   -3.5397    2.5616 H         1 <0>         0.0832
     59 H31         2.8271   -2.3266    2.1844 H         1 <0>         0.0698
     60 H32        -0.2883   -3.7811    1.2832 H         1 <0>         0.0695
     61 H33        -0.9295   -2.3726    2.1625 H         1 <0>         0.0591
     62 H34        -1.0012   -2.4200    0.3846 H         1 <0>         0.0635
@<TRIPOS>BOND
     1    1    2 1
     2    1   33 1
     3    1   34 1
     4    1   35 1
     5    2    3 1
     6    2   26 1
     7    2    4 1
     8    4    5 1
     9    4   36 1
    10    4   37 1
    11    5    6 1
    12    5   12 1
    13    5    7 1
    14    7    8 1
    15    7    9 1
    16    7   25 1
    17    9   10 1
    18    9   38 1
    19    9   39 1
    20   10   11 1
    21   10   40 1
    22   10   41 1
    23   11   16 1
    24   11   12 1
    25   11   24 1
    26   12   13 1
    27   12   14 1
    28   14   15 1
    29   14   42 1
    30   14   43 1
    31   15   16 1
    32   15   44 1
    33   15   45 1
    34   16   17 1
    35   16   20 1
    36   17   18 2
    37   17   19 1
    38   19   46 1
    39   19   47 1
    40   19   48 1
    41   20   21 1
    42   21   22 2
    43   21   23 1
    44   23   49 1
    45   23   50 1
    46   23   51 1
    47   24   52 1
    48   24   53 1
    49   24   54 1
    50   25   31 1
    51   25   26 1
    52   25   32 1
    53   26   27 2
    54   27   28 1
    55   27   55 1
    56   28   29 2
    57   28   30 1
    58   30   31 1
    59   30   56 1
    60   30   57 1
    61   31   58 1
    62   31   59 1
    63   32   60 1
    64   32   61 1
    65   32   62 1
@<TRIPOS>MOLECULE
ZINC36805613
   27    28     0     0     0
SMALL
USER_CHARGES

@<TRIPOS>ATOM
      1 C1          0.0203    1.3640    0.0603 C.ar      1 <0>        -0.0844
      2 C2          1.2143    2.0506    0.0418 C.ar      1 <0>        -0.0498
      3 C3          2.4199    1.3495   -0.0469 C.ar      1 <0>         0.0297
      4 C4          2.4086   -0.0466   -0.1165 C.ar      1 <0>        -0.1246
      5 C5          1.2106   -0.7253   -0.0974 C.ar      1 <0>        -0.0938
      6 C6          0.0136   -0.0240   -0.0091 C.ar      1 <0>         0.1121
      7 O1         -1.1651   -0.6968    0.0094 O.3       1 <0>        -0.2377
      8 C7         -1.4448   -1.4647    1.0961 C.ar      1 <0>         0.0708
      9 C8         -0.6017   -1.4434    2.1968 C.ar      1 <0>        -0.1384
     10 C9         -0.8871   -2.2238    3.3007 C.ar      1 <0>        -0.1215
     11 C10        -2.0145   -3.0276    3.3094 C.ar      1 <0>         0.1084
     12 C11        -2.8581   -3.0516    2.2120 C.ar      1 <0>        -0.1547
     13 C12        -2.5787   -2.2673    1.1073 C.ar      1 <0>         0.1180
     14 F1         -3.4045   -2.2860    0.0382 F         1 <0>        -0.1175
     15 F2         -2.2914   -3.7898    4.3900 F         1 <0>        -0.1260
     16 C13         3.7056   -0.8078   -0.2128 C.3       1 <0>         0.5055
     17 F3          3.4380   -2.1798   -0.2697 F         1 <0>        -0.1675
     18 F4          4.3905   -0.4179   -1.3688 F         1 <0>        -0.1672
     19 F5          4.4925   -0.5324    0.9106 F         1 <0>        -0.1678
     20 C14         3.6634    2.0593   -0.0670 C.1       1 <0>         0.2257
     21 N1          4.6499    2.6224   -0.0829 N.1       1 <0>        -0.3633
     22 H1         -0.9116    1.9048    0.1334 H         1 <0>         0.1601
     23 H2          1.2187    3.1292    0.0954 H         1 <0>         0.1604
     24 H3          1.2010   -1.8039   -0.1511 H         1 <0>         0.1606
     25 H4          0.2782   -0.8171    2.1911 H         1 <0>         0.1496
     26 H5         -0.2299   -2.2071    4.1576 H         1 <0>         0.1518
     27 H6         -3.7368   -3.6796    2.2199 H         1 <0>         0.1614
@<TRIPOS>BOND
     1    1    6 ar
     2    1    2 ar
     3    1   22 1
     4    2    3 ar
     5    2   23 1
     6    3    4 ar
     7    3   20 1
     8    4    5 ar
     9    4   16 1
    10    5    6 ar
    11    5   24 1
    12    6    7 1
    13    7    8 1
    14    8   13 ar
    15    8    9 ar
    16    9   10 ar
    17    9   25 1
    18   10   11 ar
    19   10   26 1
    20   11   12 ar
    21   11   15 1
    22   12   13 ar
    23   12   27 1
    24   13   14 1
    25   16   17 1
    26   16   18 1
    27   16   19 1
    28   20   21 3
@<TRIPOS>MOLECULE
ZINC49778018
   56    60     0     0     0
SMALL
USER_CHARGES

@<TRIPOS>ATOM
      1 C1          2.4627    0.8329    6.2864 C.ar      1 <0>        -0.1070
      2 C2          2.7733   -0.5113    6.3734 C.ar      1 <0>        -0.1169
      3 C3          3.7283   -1.0557    5.5352 C.ar      1 <0>        -0.1049
      4 C4          4.3723   -0.2559    4.6097 C.ar      1 <0>        -0.0978
      5 C5          4.0611    1.0881    4.5222 C.ar      1 <0>        -0.1014
      6 C6          3.1071    1.6327    5.3613 C.ar      1 <0>        -0.1167
      7 C7          5.4141   -0.8491    3.6966 C.3       1 <0>        -0.5796
      8 S1          4.6194   -1.4436    2.1782 S.o2      1 <0>         2.5996
      9 O1          3.8276   -2.5902    2.4568 O.2       1 <0>        -0.9413
     10 O2          4.0798   -0.3505    1.4479 O.2       1 <0>        -0.9370
     11 N1          5.8623   -2.0064    1.2396 N.pl3     1 <0>        -1.0649
     12 C8          6.8492   -1.1281    0.7882 C.ar      1 <0>         0.1173
     13 C9          6.5704   -0.2439   -0.2478 C.ar      1 <0>        -0.0655
     14 C10         7.5434    0.6241   -0.6950 C.ar      1 <0>        -0.0976
     15 C11         8.8077    0.6149   -0.1076 C.ar      1 <0>         0.0267
     16 C12         9.0851   -0.2722    0.9309 C.ar      1 <0>        -0.1693
     17 C13         8.1072   -1.1349    1.3790 C.ar      1 <0>        -0.0709
     18 C14        10.4508   -0.2843    1.5678 C.3       1 <0>         0.5105
     19 F1         10.4624   -1.1957    2.6291 F         1 <0>        -0.1765
     20 F2         11.4052   -0.6629    0.6175 F         1 <0>        -0.1705
     21 F3         10.7527    0.9946    2.0480 F         1 <0>        -0.1681
     22 C15         9.8567    1.5480   -0.5876 C.ar      1 <0>        -0.1164
     23 C16        11.0578    1.0434   -1.1010 C.ar      1 <0>        -0.0527
     24 C17        12.0329    1.8861   -1.5466 C.ar      1 <0>        -0.1369
     25 C18        11.8432    3.2654   -1.4956 C.ar      1 <0>         0.1396
     26 C19        10.6393    3.7865   -0.9820 C.ar      1 <0>        -0.1762
     27 C20         9.6422    2.9163   -0.5318 C.ar      1 <0>        -0.0023
     28 C21        10.7526    5.2399   -1.0644 C.2       1 <0>         0.0938
     29 N2         11.9163    5.5203   -1.5787 N.2       1 <0>        -0.2447
     30 N3         12.6157    4.3416   -1.8572 N.pl3     1 <0>        -0.3563
     31 C22        13.8985    4.2704   -2.4155 C.ar      1 <0>         0.1547
     32 C23        14.7712    3.2627   -2.0263 C.ar      1 <0>        -0.1092
     33 C24        16.0354    3.1943   -2.5778 C.ar      1 <0>        -0.1272
     34 C25        16.4331    4.1296   -3.5186 C.ar      1 <0>         0.0948
     35 C26        15.5643    5.1352   -3.9082 C.ar      1 <0>        -0.1298
     36 C27        14.2972    5.2038   -3.3632 C.ar      1 <0>        -0.0875
     37 F4         17.6704    4.0611   -4.0566 F         1 <0>        -0.1335
     38 H1          1.7134    1.2572    6.9383 H         1 <0>         0.1289
     39 H2          2.2701   -1.1362    7.0964 H         1 <0>         0.1307
     40 H3          3.9714   -2.1057    5.6035 H         1 <0>         0.1309
     41 H4          4.5646    1.7130    3.7994 H         1 <0>         0.1304
     42 H5          2.8643    2.6829    5.2932 H         1 <0>         0.1306
     43 H6          6.1533   -0.0883    3.4459 H         1 <0>         0.1419
     44 H7          5.9061   -1.6819    4.1992 H         1 <0>         0.1451
     45 H8          5.9046   -2.9462    1.0034 H         1 <0>         0.4290
     46 H9          5.5910   -0.2374   -0.7029 H         1 <0>         0.1507
     47 H10         7.3266    1.3105   -1.5001 H         1 <0>         0.1479
     48 H11         8.3203   -1.8195    2.1867 H         1 <0>         0.1489
     49 H12        11.2137   -0.0245   -1.1441 H         1 <0>         0.1491
     50 H13        12.9546    1.4833   -1.9398 H         1 <0>         0.1335
     51 H14         8.7147    3.3067   -0.1400 H         1 <0>         0.1387
     52 H15        10.0048    5.9549   -0.7548 H         1 <0>         0.2063
     53 H16        14.4616    2.5334   -1.2924 H         1 <0>         0.1415
     54 H17        16.7146    2.4110   -2.2751 H         1 <0>         0.1472
     55 H18        15.8763    5.8636   -4.6419 H         1 <0>         0.1466
     56 H19        13.6183    5.9854   -3.6709 H         1 <0>         0.1436
@<TRIPOS>BOND
     1    1    6 ar
     2    1    2 ar
     3    1   38 1
     4    2    3 ar
     5    2   39 1
     6    3    4 ar
     7    3   40 1
     8    4    5 ar
     9    4    7 1
    10    5    6 ar
    11    5   41 1
    12    6   42 1
    13    7    8 1
    14    7   43 1
    15    7   44 1
    16    8    9 2
    17    8   10 2
    18    8   11 1
    19   11   12 1
    20   11   45 1
    21   12   17 ar
    22   12   13 ar
    23   13   14 ar
    24   13   46 1
    25   14   15 ar
    26   14   47 1
    27   15   16 ar
    28   15   22 1
    29   16   17 ar
    30   16   18 1
    31   17   48 1
    32   18   19 1
    33   18   20 1
    34   18   21 1
    35   22   27 ar
    36   22   23 ar
    37   23   24 ar
    38   23   49 1
    39   24   25 ar
    40   24   50 1
    41   25   30 1
    42   25   26 ar
    43   26   27 ar
    44   26   28 1
    45   27   51 1
    46   28   29 2
    47   28   52 1
    48   29   30 1
    49   30   31 1
    50   31   36 ar
    51   31   32 ar
    52   32   33 ar
    53   32   53 1
    54   33   34 ar
    55   33   54 1
    56   34   35 ar
    57   34   37 1
    58   35   36 ar
    59   35   55 1
    60   36   56 1
@<TRIPOS>MOLECULE
ZINC38795962
   52    53     0     0     0
SMALL
USER_CHARGES

@<TRIPOS>ATOM
      1 C1          0.1246    1.4807    0.3670 C.3       1 <0>        -0.1182
      2 C2          0.0719   -0.0133    0.1763 C.2       1 <0>         0.2460
      3 C3         -1.1186   -0.6363    0.1396 C.2       1 <0>        -0.2642
      4 C4         -1.2194   -2.1224   -0.0567 C.3       1 <0>         0.0884
      5 H1         -1.9588   -2.5264    0.6347 H         1 <0>         0.1009
      6 C5          0.1062   -2.7833    0.1950 C.2       1 <0>        -0.2313
      7 C6          1.2476   -2.0741    0.2295 C.2       1 <0>         0.1890
      8 N1          1.2363   -0.7182    0.0369 N.pl3     1 <0>        -0.6297
      9 C7          2.5556   -2.7805    0.4771 C.3       1 <0>        -0.1329
     10 C8          0.1541   -4.1816    0.4006 C.2       1 <0>         0.5348
     11 O1         -0.2294   -4.6552    1.4539 O.2       1 <0>        -0.4891
     12 O2          0.6250   -4.9907   -0.5713 O.3       1 <0>        -0.3390
     13 C9          0.6446   -6.3927   -0.2954 C.3       1 <0>         0.1145
     14 C10        -0.7788   -6.8766   -0.0115 C.3       1 <0>        -0.1865
     15 C11         1.2065   -7.1427   -1.5048 C.3       1 <0>        -0.1402
     16 C12         1.5272   -6.6599    0.9255 C.3       1 <0>        -0.1863
     17 C13        -1.6545   -2.4078   -1.4710 C.ar      1 <0>        -0.0727
     18 C14        -0.8768   -1.9836   -2.5324 C.ar      1 <0>        -0.0491
     19 C15        -1.2759   -2.2454   -3.8295 C.ar      1 <0>        -0.1162
     20 C16        -2.4526   -2.9317   -4.0656 C.ar      1 <0>        -0.0564
     21 C17        -3.2297   -3.3565   -3.0044 C.ar      1 <0>        -0.0465
     22 C18        -2.8283   -3.0984   -1.7068 C.ar      1 <0>        -0.0385
     23 N2         -4.4898   -4.0908   -3.2572 N.pl3     1 <0>         0.0339
     24 O3         -4.8393   -4.3190   -4.3918 O.2       1 <0>        -0.1598
     25 O4         -5.1695   -4.4624   -2.3289 O.3       1 <0>        -0.1565
     26 C19        -2.3019    0.1235    0.2895 C.2       1 <0>         0.5194
     27 O5         -2.2354    1.3279    0.4495 O.2       1 <0>        -0.5194
     28 O6         -3.5048   -0.4873    0.2549 O.3       1 <0>        -0.3507
     29 C20        -4.6580    0.3417    0.4130 C.3       1 <0>         0.0364
     30 H2          1.1635    1.8106    0.3665 H         1 <0>         0.0654
     31 H3         -0.4123    1.9699   -0.4457 H         1 <0>         0.1037
     32 H4         -0.3392    1.7421    1.3181 H         1 <0>         0.1061
     33 H5          2.0564   -0.2549   -0.1949 H         1 <0>         0.4249
     34 H6          2.9612   -3.1364   -0.4700 H         1 <0>         0.0975
     35 H7          3.2608   -2.0885    0.9373 H         1 <0>         0.0853
     36 H8          2.3907   -3.6276    1.1429 H         1 <0>         0.0869
     37 H9         -1.4075   -6.6863   -0.8813 H         1 <0>         0.0594
     38 H10        -0.7638   -7.9460    0.1990 H         1 <0>         0.0727
     39 H11        -1.1791   -6.3423    0.8502 H         1 <0>         0.0841
     40 H12         2.2206   -6.7980   -1.7071 H         1 <0>         0.0664
     41 H13         1.2215   -8.2121   -1.2944 H         1 <0>         0.0794
     42 H14         0.5778   -6.9524   -2.3746 H         1 <0>         0.0654
     43 H15         1.1269   -6.1256    1.7871 H         1 <0>         0.0833
     44 H16         1.5422   -7.7293    1.1360 H         1 <0>         0.0729
     45 H17         2.5413   -6.3152    0.7232 H         1 <0>         0.0609
     46 H18         0.0425   -1.4475   -2.3480 H         1 <0>         0.1322
     47 H19        -0.6687   -1.9134   -4.6587 H         1 <0>         0.1467
     48 H20        -2.7648   -3.1356   -5.0792 H         1 <0>         0.1527
     49 H21        -3.4335   -3.4336   -0.8776 H         1 <0>         0.1523
     50 H22        -5.5568   -0.2732    0.3657 H         1 <0>         0.1015
     51 H23        -4.6133    0.8463    1.3781 H         1 <0>         0.0612
     52 H24        -4.6836    1.0844   -0.3845 H         1 <0>         0.0588
@<TRIPOS>BOND
     1    1    2 1
     2    1   30 1
     3    1   31 1
     4    1   32 1
     5    2    8 1
     6    2    3 2
     7    3    4 1
     8    3   26 1
     9    4    5 1
    10    4    6 1
    11    4   17 1
    12    6    7 2
    13    6   10 1
    14    7    8 1
    15    7    9 1
    16    8   33 1
    17    9   34 1
    18    9   35 1
    19    9   36 1
    20   10   11 2
    21   10   12 1
    22   12   13 1
    23   13   14 1
    24   13   15 1
    25   13   16 1
    26   14   37 1
    27   14   38 1
    28   14   39 1
    29   15   40 1
    30   15   41 1
    31   15   42 1
    32   16   43 1
    33   16   44 1
    34   16   45 1
    35   17   22 ar
    36   17   18 ar
    37   18   19 ar
    38   18   46 1
    39   19   20 ar
    40   19   47 1
    41   20   21 ar
    42   20   48 1
    43   21   22 ar
    44   21   23 1
    45   22   49 1
    46   23   24 2
    47   23   25 1
    48   26   27 2
    49   26   28 1
    50   28   29 1
    51   29   50 1
    52   29   51 1
    53   29   52 1
@<TRIPOS>MOLECULE
ZINC16291824
   47    49     0     0     0
SMALL
USER_CHARGES
(3R)-3-[(4-nitrophenyl)amino]-3-phenyl-1-(p-tolyl)propan-1-one
@<TRIPOS>ATOM
      1 C1          1.3135    0.1806    6.4426 C.3       1 <0>        -0.1243
      2 C2          0.7810    0.5454    5.0809 C.ar      1 <0>        -0.0487
      3 C3         -0.3561    1.3270    4.9731 C.ar      1 <0>        -0.1339
      4 C4         -0.8495    1.6651    3.7307 C.ar      1 <0>        -0.0539
      5 C5         -0.1978    1.2160    2.5777 C.ar      1 <0>        -0.1816
      6 C6          0.9477    0.4222    2.6950 C.ar      1 <0>        -0.0691
      7 C7          1.4320    0.0975    3.9446 C.ar      1 <0>        -0.1344
      8 C8         -0.7181    1.5718    1.2479 C.2       1 <0>         0.3937
      9 O1         -1.7143    2.2560    1.1498 O.2       1 <0>        -0.4369
     10 C9         -0.0127    1.0858    0.0080 C.3       1 <0>        -0.1613
     11 C10        -0.7527    1.5927   -1.2315 C.3       1 <0>         0.1978
     12 H1         -1.7985    1.2898   -1.1795 H         1 <0>         0.1012
     13 C11        -0.1210    1.0071   -2.4681 C.ar      1 <0>        -0.1115
     14 C12         1.0366    1.5613   -2.9816 C.ar      1 <0>        -0.0991
     15 C13         1.6184    1.0214   -4.1134 C.ar      1 <0>        -0.1184
     16 C14         1.0373   -0.0667   -4.7372 C.ar      1 <0>        -0.1131
     17 C15        -0.1229   -0.6180   -4.2265 C.ar      1 <0>        -0.1157
     18 C16        -0.7024   -0.0808   -3.0922 C.ar      1 <0>        -0.1085
     19 N1         -0.6697    3.0543   -1.2862 N.pl3     1 <0>        -0.7131
     20 C17        -1.6461    3.7842   -1.9680 C.ar      1 <0>         0.2803
     21 C18        -2.6933    3.1254   -2.5996 C.ar      1 <0>        -0.1922
     22 C19        -3.6601    3.8506   -3.2680 C.ar      1 <0>        -0.0038
     23 C20        -3.5803    5.2302   -3.3186 C.ar      1 <0>        -0.1082
     24 C21        -2.5360    5.8888   -2.6957 C.ar      1 <0>        -0.0042
     25 C22        -1.5689    5.1702   -2.0208 C.ar      1 <0>        -0.1955
     26 N2         -4.6152    6.0037   -4.0406 N.pl3     1 <0>         0.0405
     27 O2         -4.5464    7.2189   -4.0857 O.2       1 <0>        -0.1766
     28 O3         -5.5356    5.4250   -4.5897 O.3       1 <0>        -0.1766
     29 H2          0.8598   -0.7542    6.7717 H         1 <0>         0.0779
     30 H3          2.3956    0.0603    6.3894 H         1 <0>         0.0717
     31 H4          1.0704    0.9719    7.1518 H         1 <0>         0.0716
     32 H5         -0.8585    1.6727    5.8645 H         1 <0>         0.1303
     33 H6         -1.7368    2.2753    3.6483 H         1 <0>         0.1338
     34 H7          1.4539    0.0679    1.8092 H         1 <0>         0.1313
     35 H8          2.3192   -0.5114    4.0368 H         1 <0>         0.1304
     36 H9          0.0008    0.0859    0.0025 H         1 <0>         0.1071
     37 H10         1.0099    1.4631    0.0003 H         1 <0>         0.1088
     38 H11         1.4883    2.4140   -2.4965 H         1 <0>         0.1186
     39 H12         2.5250    1.4519   -4.5122 H         1 <0>         0.1232
     40 H13         1.4900   -0.4864   -5.6234 H         1 <0>         0.1237
     41 H14        -0.5769   -1.4682   -4.7138 H         1 <0>         0.1254
     42 H15        -1.6090   -0.5113   -2.6934 H         1 <0>         0.1236
     43 H16         0.0633    3.5151   -0.8489 H         1 <0>         0.4048
     44 H17        -2.7538    2.0477   -2.5642 H         1 <0>         0.1412
     45 H18        -4.4773    3.3393   -3.7552 H         1 <0>         0.1503
     46 H19        -2.4768    6.9664   -2.7369 H         1 <0>         0.1511
     47 H20        -0.7538    5.6851   -1.5342 H         1 <0>         0.1421
@<TRIPOS>BOND
     1    1    2 1
     2    1   29 1
     3    1   30 1
     4    1   31 1
     5    2    7 ar
     6    2    3 ar
     7    3    4 ar
     8    3   32 1
     9    4    5 ar
    10    4   33 1
    11    5    6 ar
    12    5    8 1
    13    6    7 ar
    14    6   34 1
    15    7   35 1
    16    8    9 2
    17    8   10 1
    18   10   11 1
    19   10   36 1
    20   10   37 1
    21   11   12 1
    22   11   13 1
    23   11   19 1
    24   13   18 ar
    25   13   14 ar
    26   14   15 ar
    27   14   38 1
    28   15   16 ar
    29   15   39 1
    30   16   17 ar
    31   16   40 1
    32   17   18 ar
    33   17   41 1
    34   18   42 1
    35   19   20 1
    36   19   43 1
    37   20   25 ar
    38   20   21 ar
    39   21   22 ar
    40   21   44 1
    41   22   23 ar
    42   22   45 1
    43   23   24 ar
    44   23   26 1
    45   24   25 ar
    46   24   46 1
    47   25   47 1
    48   26   27 2
    49   26   28 1
@<TRIPOS>MOLECULE
ZINC16291826
   47    49     0     0     0
SMALL
USER_CHARGES
(3S)-3-[(4-nitrophenyl)amino]-3-phenyl-1-(p-tolyl)propan-1-one
@<TRIPOS>ATOM
      1 C1          7.4635    5.4259    6.3220 C.3       1 <0>        -0.1243
      2 C2          6.9090    4.8724    5.0347 C.ar      1 <0>        -0.0488
      3 C3          7.6453    4.9758    3.8673 C.ar      1 <0>        -0.1339
      4 C4          7.1448    4.4718    2.6854 C.ar      1 <0>        -0.0540
      5 C5          5.8898    3.8550    2.6684 C.ar      1 <0>        -0.1815
      6 C6          5.1497    3.7591    3.8511 C.ar      1 <0>        -0.0691
      7 C7          5.6665    4.2629    5.0261 C.ar      1 <0>        -0.1344
      8 C8          5.3481    3.3149    1.4111 C.2       1 <0>         0.3936
      9 O1          5.9902    3.4042    0.3864 O.2       1 <0>        -0.4370
     10 C9          3.9953    2.6509    1.3972 C.3       1 <0>        -0.1623
     11 C10         3.6720    2.1819   -0.0228 C.3       1 <0>         0.1974
     12 H1          4.4750    1.5400   -0.3851 H         1 <0>         0.1014
     13 C11         2.3773    1.4107   -0.0145 C.ar      1 <0>        -0.1111
     14 C12         1.1710    2.0855    0.0021 C.ar      1 <0>        -0.0992
     15 C13        -0.0167    1.3781    0.0096 C.ar      1 <0>        -0.1184
     16 C14         0.0021   -0.0041    0.0020 C.ar      1 <0>        -0.1131
     17 C15         1.2084   -0.6789   -0.0132 C.ar      1 <0>        -0.1157
     18 C16         2.3960    0.0285   -0.0217 C.ar      1 <0>        -0.1085
     19 N1          3.5418    3.3453   -0.9036 N.pl3     1 <0>        -0.7135
     20 C17         3.7680    3.2115   -2.2754 C.ar      1 <0>         0.2805
     21 C18         4.1221    1.9772   -2.8054 C.ar      1 <0>        -0.1920
     22 C19         4.3394    1.8472   -4.1630 C.ar      1 <0>        -0.0038
     23 C20         4.2161    2.9464   -4.9930 C.ar      1 <0>        -0.1082
     24 C21         3.8693    4.1777   -4.4679 C.ar      1 <0>        -0.0042
     25 C22         3.6450    4.3136   -3.1120 C.ar      1 <0>        -0.1956
     26 N2          4.4562    2.8046   -6.4465 N.pl3     1 <0>         0.0405
     27 O2          4.3484    3.7720   -7.1787 O.2       1 <0>        -0.1767
     28 O3          4.7617    1.7207   -6.9105 O.3       1 <0>        -0.1764
     29 H2          7.1546    6.4652    6.4335 H         1 <0>         0.0777
     30 H3          7.0851    4.8423    7.1613 H         1 <0>         0.0718
     31 H4          8.5520    5.3704    6.3024 H         1 <0>         0.0717
     32 H5          8.6141    5.4528    3.8820 H         1 <0>         0.1303
     33 H6          7.7206    4.5530    1.7753 H         1 <0>         0.1338
     34 H7          4.1779    3.2881    3.8451 H         1 <0>         0.1313
     35 H8          5.0983    4.1854    5.9413 H         1 <0>         0.1304
     36 H9          3.3005    3.3037    1.6990 H         1 <0>         0.0977
     37 H10         4.0046    1.7933    2.0698 H         1 <0>         0.1200
     38 H11         1.1563    3.1654    0.0077 H         1 <0>         0.1183
     39 H12        -0.9592    1.9054    0.0170 H         1 <0>         0.1231
     40 H13        -0.9258   -0.5567    0.0083 H         1 <0>         0.1236
     41 H14         1.2231   -1.7588   -0.0188 H         1 <0>         0.1254
     42 H15         3.3385   -0.4987   -0.0335 H         1 <0>         0.1239
     43 H16         3.2985    4.2086   -0.5341 H         1 <0>         0.4046
     44 H17         4.2229    1.1193   -2.1571 H         1 <0>         0.1414
     45 H18         4.6100    0.8868   -4.5764 H         1 <0>         0.1503
     46 H19         3.7735    5.0341   -5.1189 H         1 <0>         0.1511
     47 H20         3.3739    5.2755   -2.7026 H         1 <0>         0.1420
@<TRIPOS>BOND
     1    1    2 1
     2    1   29 1
     3    1   30 1
     4    1   31 1
     5    2    7 ar
     6    2    3 ar
     7    3    4 ar
     8    3   32 1
     9    4    5 ar
    10    4   33 1
    11    5    6 ar
    12    5    8 1
    13    6    7 ar
    14    6   34 1
    15    7   35 1
    16    8    9 2
    17    8   10 1
    18   10   11 1
    19   10   36 1
    20   10   37 1
    21   11   12 1
    22   11   13 1
    23   11   19 1
    24   13   18 ar
    25   13   14 ar
    26   14   15 ar
    27   14   38 1
    28   15   16 ar
    29   15   39 1
    30   16   17 ar
    31   16   40 1
    32   17   18 ar
    33   17   41 1
    34   18   42 1
    35   19   20 1
    36   19   43 1
    37   20   25 ar
    38   20   21 ar
    39   21   22 ar
    40   21   44 1
    41   22   23 ar
    42   22   45 1
    43   23   24 ar
    44   23   26 1
    45   24   25 ar
    46   24   46 1
    47   25   47 1
    48   26   27 2
    49   26   28 1
@<TRIPOS>MOLECULE
ZINC00490791
   57    60     0     0     0
SMALL
USER_CHARGES

@<TRIPOS>ATOM
      1 C1         -0.0187    1.5258    0.0104 C.3       1 <0>        -0.1441
      2 C2          0.0021   -0.0041    0.0020 C.3       1 <0>        -0.1174
      3 C3          0.7074   -0.4901   -1.2379 C.2       1 <0>         0.4551
      4 O1          1.1483    0.3055   -2.0332 O.2       1 <0>        -0.5064
      5 O2          0.8459   -1.8068   -1.4587 O.3       1 <0>        -0.3399
      6 C4          1.5252   -2.1962   -2.6541 C.3       1 <0>         0.0942
      7 H1          1.3814   -1.4455   -3.4311 H         1 <0>         0.0859
      8 C5          3.0354   -2.3950   -2.3728 C.3       1 <0>        -0.1389
      9 C6          3.3694   -3.8547   -2.7849 C.3       1 <0>        -0.1132
     10 C7          2.2709   -4.1840   -3.8020 C.3       1 <0>        -0.0819
     11 H2          2.4772   -3.6962   -4.7547 H         1 <0>         0.0780
     12 C8          1.0194   -3.5538   -3.1309 C.3       1 <0>        -0.0606
     13 C9         -0.0861   -3.5374   -4.1692 C.3       1 <0>        -0.1044
     14 C10        -0.4251   -5.0008   -4.4934 C.3       1 <0>        -0.1207
     15 C11         0.7982   -5.7687   -4.9858 C.3       1 <0>        -0.0689
     16 H3          1.1108   -5.3598   -5.9466 H         1 <0>         0.0702
     17 C12         1.9908   -5.6604   -4.0149 C.3       1 <0>        -0.0747
     18 H4          1.7328   -6.1312   -3.0663 H         1 <0>         0.0879
     19 C13         3.2188   -6.3363   -4.6322 C.3       1 <0>        -0.1122
     20 C14         2.9479   -7.8357   -4.7733 C.3       1 <0>        -0.0971
     21 C15         1.6747   -8.0293   -5.5764 C.2       1 <0>        -0.0210
     22 C16         1.7057   -8.8993   -6.5858 C.2       1 <0>        -0.2430
     23 C17         0.5001   -9.1381   -7.3864 C.2       1 <0>         0.3880
     24 O3          0.5586   -9.6016   -8.5062 O.2       1 <0>        -0.4580
     25 C18        -0.8232   -8.7757   -6.7410 C.3       1 <0>        -0.1666
     26 C19        -0.6877   -7.3586   -6.1858 C.3       1 <0>        -0.1075
     27 C20         0.4238   -7.2446   -5.1698 C.3       1 <0>        -0.0237
     28 C21        -0.0923   -7.7707   -3.8290 C.3       1 <0>        -0.1489
     29 C22         0.5944   -4.4002   -1.9293 C.3       1 <0>        -0.1405
     30 H5          1.0039    1.9031    0.0027 H         1 <0>         0.0638
     31 H6         -0.5459    1.8868   -0.8726 H         1 <0>         0.0638
     32 H7         -0.5289    1.8773    0.9072 H         1 <0>         0.0707
     33 H8          0.5293   -0.3651    0.8851 H         1 <0>         0.1051
     34 H9         -1.0205   -0.3814    0.0098 H         1 <0>         0.1050
     35 H10         3.6221   -1.6948   -2.9675 H         1 <0>         0.0738
     36 H11         3.2407   -2.2494   -1.3122 H         1 <0>         0.0732
     37 H12         4.3539   -3.9086   -3.2495 H         1 <0>         0.0703
     38 H13         3.3107   -4.5213   -1.9245 H         1 <0>         0.0734
     39 H14        -0.9650   -3.0327   -3.7679 H         1 <0>         0.0662
     40 H15         0.2574   -3.0276   -5.0693 H         1 <0>         0.0651
     41 H16        -0.8101   -5.4838   -3.5953 H         1 <0>         0.0770
     42 H17        -1.1941   -5.0248   -5.2655 H         1 <0>         0.0666
     43 H18         3.4153   -5.9075   -5.6149 H         1 <0>         0.0661
     44 H19         4.0831   -6.1814   -3.9864 H         1 <0>         0.0728
     45 H20         3.7817   -8.3105   -5.2903 H         1 <0>         0.0773
     46 H21         2.8276   -8.2798   -3.7851 H         1 <0>         0.0844
     47 H22         2.6190   -9.4283   -6.8145 H         1 <0>         0.1337
     48 H23        -1.6193   -8.8077   -7.4849 H         1 <0>         0.0925
     49 H24        -1.0433   -9.4714   -5.9313 H         1 <0>         0.0998
     50 H25        -0.5064   -6.6695   -7.0106 H         1 <0>         0.0700
     51 H26        -1.6179   -7.0806   -5.6902 H         1 <0>         0.0814
     52 H27        -0.9666   -7.1951   -3.5251 H         1 <0>         0.0706
     53 H28        -0.3663   -8.8207   -3.9318 H         1 <0>         0.0586
     54 H29         0.6884   -7.6711   -3.0749 H         1 <0>         0.0641
     55 H30        -0.2193   -3.9012   -1.4029 H         1 <0>         0.0615
     56 H31         0.2583   -5.3780   -2.2742 H         1 <0>         0.0657
     57 H32         1.4414   -4.5243   -1.2545 H         1 <0>         0.0578
@<TRIPOS>BOND
     1    1    2 1
     2    1   30 1
     3    1   31 1
     4    1   32 1
     5    2    3 1
     6    2   33 1
     7    2   34 1
     8    3    4 2
     9    3    5 1
    10    5    6 1
    11    6    7 1
    12    6   12 1
    13    6    8 1
    14    8    9 1
    15    8   35 1
    16    8   36 1
    17    9   10 1
    18    9   37 1
    19    9   38 1
    20   10   11 1
    21   10   17 1
    22   10   12 1
    23   12   13 1
    24   12   29 1
    25   13   14 1
    26   13   39 1
    27   13   40 1
    28   14   15 1
    29   14   41 1
    30   14   42 1
    31   15   16 1
    32   15   27 1
    33   15   17 1
    34   17   18 1
    35   17   19 1
    36   19   20 1
    37   19   43 1
    38   19   44 1
    39   20   21 1
    40   20   45 1
    41   20   46 1
    42   21   27 1
    43   21   22 2
    44   22   23 1
    45   22   47 1
    46   23   24 2
    47   23   25 1
    48   25   26 1
    49   25   48 1
    50   25   49 1
    51   26   27 1
    52   26   50 1
    53   26   51 1
    54   27   28 1
    55   28   52 1
    56   28   53 1
    57   28   54 1
    58   29   55 1
    59   29   56 1
    60   29   57 1
@<TRIPOS>MOLECULE
ZINC08660419
   67    71     0     0     0
SMALL
USER_CHARGES
11-(4-dimethylaminophenyl)-17-hydroxy-13-methyl-17-prop-1-ynyl-1,2,6,7,8,11,12,14,15,16-decahydrocyclopenta[a]phenanthren-3-one
@<TRIPOS>ATOM
      1 C1          0.7869    0.1155   -4.5240 C.3       1 <0>        -0.0462
      2 C2          0.5900    0.9727   -3.3436 C.1       1 <0>        -0.1645
      3 C3          0.4330    1.6563   -2.4022 C.1       1 <0>        -0.2108
      4 C4          0.2361    2.5134   -1.2218 C.3       1 <0>         0.2516
      5 C5          1.2880    3.6384   -1.2035 C.3       1 <0>        -0.1460
      6 C6          2.1300    3.4350    0.0772 C.3       1 <0>        -0.1158
      7 C7          1.9355    1.9425    0.4012 C.3       1 <0>        -0.0751
      8 H1          2.5427    1.3688   -0.2990 H         1 <0>         0.0756
      9 C8          0.4547    1.6914    0.0764 C.3       1 <0>        -0.0266
     10 C9         -0.4117    2.3256    1.1670 C.3       1 <0>        -0.0878
     11 C10        -0.1997    1.6805    2.5047 C.3       1 <0>        -0.0025
     12 H2         -0.8001    0.7718    2.5494 H         1 <0>         0.0872
     13 C11         1.2316    1.3258    2.7607 C.2       1 <0>        -0.0418
     14 C12         1.5404    0.7472    3.9335 C.2       1 <0>        -0.1294
     15 C13         0.4525    0.4472    4.9374 C.3       1 <0>        -0.0945
     16 C14         0.9498    0.8563    6.3279 C.3       1 <0>        -0.1505
     17 C15         2.3106    0.2641    6.5759 C.2       1 <0>         0.3859
     18 O1          2.6042   -0.0954    7.6983 O.2       1 <0>        -0.4758
     19 C16         3.2491    0.1171    5.5432 C.2       1 <0>        -0.2574
     20 C17         2.9152    0.3774    4.2526 C.2       1 <0>         0.0321
     21 C18         3.9597    0.2695    3.1733 C.3       1 <0>        -0.0979
     22 C19         3.3016    0.3825    1.7969 C.3       1 <0>        -0.1123
     23 C20         2.3424    1.5764    1.7924 C.3       1 <0>        -0.0429
     24 H3          2.9133    2.4186    2.1836 H         1 <0>         0.0813
     25 C21        -0.6667    2.6234    3.5835 C.ar      1 <0>        -0.1252
     26 C22        -1.9173    2.4583    4.1502 C.ar      1 <0>        -0.0698
     27 C23        -2.3460    3.3173    5.1430 C.ar      1 <0>        -0.1952
     28 C24        -1.5241    4.3549    5.5643 C.ar      1 <0>         0.2151
     29 C25        -0.2708    4.5213    4.9889 C.ar      1 <0>        -0.1951
     30 C26         0.1541    3.6553    4.0005 C.ar      1 <0>        -0.0584
     31 N1         -1.9567    5.2286    6.5644 N.pl3     1 <0>        -0.6386
     32 C27        -1.1430    6.3931    6.9220 C.3       1 <0>         0.0924
     33 C28        -3.2242    4.9804    7.2559 C.3       1 <0>         0.0888
     34 C29         0.1462    0.2052   -0.1159 C.3       1 <0>        -0.1349
     35 O2         -1.0793    3.0716   -1.2336 O.3       1 <0>        -0.5403
     36 H4          0.6311    0.7024   -5.4292 H         1 <0>         0.0815
     37 H5          1.8018   -0.2822   -4.5190 H         1 <0>         0.0822
     38 H6          0.0737   -0.7083   -4.4978 H         1 <0>         0.0820
     39 H7          0.7949    4.6101   -1.1758 H         1 <0>         0.0815
     40 H8          1.9256    3.5677   -2.0847 H         1 <0>         0.0725
     41 H9          1.7511    4.0565    0.8885 H         1 <0>         0.0745
     42 H10         3.1806    3.6522   -0.1156 H         1 <0>         0.0724
     43 H11        -0.1669    3.3848    1.2459 H         1 <0>         0.0717
     44 H12        -1.4617    2.2228    0.8931 H         1 <0>         0.0782
     45 H13        -0.4437    1.0149    4.6872 H         1 <0>         0.1092
     46 H14         0.2288   -0.6195    4.9275 H         1 <0>         0.0741
     47 H15         0.3122    0.5216    7.0217 H         1 <0>         0.0807
     48 H16         1.0116    1.9431    6.3847 H         1 <0>         0.0968
     49 H17         4.2520   -0.2074    5.7782 H         1 <0>         0.1316
     50 H18         4.6881    1.0715    3.2931 H         1 <0>         0.0899
     51 H19         4.4649   -0.6930    3.2534 H         1 <0>         0.0896
     52 H20         2.7468   -0.5310    1.5827 H         1 <0>         0.0708
     53 H21         4.0693    0.5294    1.0373 H         1 <0>         0.0770
     54 H22        -2.5577    1.6543    3.8189 H         1 <0>         0.1217
     55 H23        -3.3211    3.1851    5.5883 H         1 <0>         0.1233
     56 H24         0.3706    5.3272    5.3138 H         1 <0>         0.1205
     57 H25         1.1285    3.7839    3.5530 H         1 <0>         0.1167
     58 H26        -1.4355    7.2436    6.3062 H         1 <0>         0.0482
     59 H27        -1.2977    6.6355    7.9734 H         1 <0>         0.0661
     60 H28        -0.0903    6.1667    6.7525 H         1 <0>         0.0686
     61 H29        -3.6391    4.0288    6.9236 H         1 <0>         0.0779
     62 H30        -3.0505    4.9453    8.3314 H         1 <0>         0.0562
     63 H31        -3.9260    5.7824    7.0272 H         1 <0>         0.0519
     64 H32         0.3878   -0.3372    0.7982 H         1 <0>         0.0621
     65 H33        -0.9125    0.0804   -0.3434 H         1 <0>         0.0594
     66 H34         0.7434   -0.1863   -0.9394 H         1 <0>         0.0582
     67 H35        -1.2765    3.5972   -2.0210 H         1 <0>         0.3781
@<TRIPOS>BOND
     1    1    2 1
     2    1   36 1
     3    1   37 1
     4    1   38 1
     5    2    3 3
     6    3    4 1
     7    4    9 1
     8    4    5 1
     9    4   35 1
    10    5    6 1
    11    5   39 1
    12    5   40 1
    13    6    7 1
    14    6   41 1
    15    6   42 1
    16    7    8 1
    17    7   23 1
    18    7    9 1
    19    9   10 1
    20    9   34 1
    21   10   11 1
    22   10   43 1
    23   10   44 1
    24   11   12 1
    25   11   13 1
    26   11   25 1
    27   13   23 1
    28   13   14 2
    29   14   20 1
    30   14   15 1
    31   15   16 1
    32   15   45 1
    33   15   46 1
    34   16   17 1
    35   16   47 1
    36   16   48 1
    37   17   18 2
    38   17   19 1
    39   19   20 2
    40   19   49 1
    41   20   21 1
    42   21   22 1
    43   21   50 1
    44   21   51 1
    45   22   23 1
    46   22   52 1
    47   22   53 1
    48   23   24 1
    49   25   30 ar
    50   25   26 ar
    51   26   27 ar
    52   26   54 1
    53   27   28 ar
    54   27   55 1
    55   28   29 ar
    56   28   31 1
    57   29   30 ar
    58   29   56 1
    59   30   57 1
    60   31   32 1
    61   31   33 1
    62   32   58 1
    63   32   59 1
    64   32   60 1
    65   33   61 1
    66   33   62 1
    67   33   63 1
    68   34   64 1
    69   34   65 1
    70   34   66 1
    71   35   67 1
@<TRIPOS>MOLECULE
ZINC03874498
   32    33     0     0     0
SMALL
USER_CHARGES

@<TRIPOS>ATOM
      1 C1          1.8669   -1.2093    0.5187 C.3       1 <0>        -0.1511
      2 C2          0.6718   -0.3888    1.0079 C.3       1 <0>         0.1238
      3 C3         -0.2276   -1.2309    1.8908 C.2       1 <0>         0.5272
      4 O1          0.0642   -1.7574    2.9432 O.2       1 <0>        -0.4319
      5 N1         -1.4195   -1.2719    1.2631 N.am      1 <0>        -0.5254
      6 C4         -1.3983   -0.5800    0.1182 C.2       1 <0>         0.7065
      7 O2         -2.3552   -0.4707   -0.6230 O.2       1 <0>        -0.5202
      8 N2         -0.1994   -0.0183   -0.1207 N.am      1 <0>        -0.7072
      9 C5         -2.5426   -1.9559    1.7493 C.ar      1 <0>         0.1894
     10 C6         -3.7624   -1.8435    1.0956 C.ar      1 <0>        -0.1063
     11 C7         -4.8668   -2.5188    1.5766 C.ar      1 <0>        -0.0279
     12 C8         -4.7588   -3.3064    2.7082 C.ar      1 <0>        -0.0197
     13 C9         -3.5456   -3.4200    3.3615 C.ar      1 <0>        -0.1037
     14 C10        -2.4360   -2.7514    2.8818 C.ar      1 <0>        -0.0971
     15 C11        -3.4321   -4.2789    4.5946 C.3       1 <0>         0.5158
     16 F1         -2.1183   -4.2362    5.0733 F         1 <0>        -0.1681
     17 F2         -4.3029   -3.7991    5.5789 F         1 <0>        -0.1567
     18 F3         -3.7699   -5.5986    4.2763 F         1 <0>        -0.1568
     19 N3         -5.9444   -4.0289    3.2213 N.pl3     1 <0>         0.0257
     20 O3         -7.0060   -3.9302    2.6512 O.2       1 <0>        -0.1338
     21 O4         -5.8513   -4.7178    4.2104 O.3       1 <0>        -0.1397
     22 C12         1.1472    0.8599    1.7534 C.3       1 <0>        -0.1510
     23 H1          2.4584   -0.6116   -0.1749 H         1 <0>         0.0886
     24 H2          2.4845   -1.4949    1.3702 H         1 <0>         0.0914
     25 H3          1.5093   -2.1057    0.0122 H         1 <0>         0.0706
     26 H4          0.0438    0.5249   -0.8866 H         1 <0>         0.4488
     27 H5         -3.8475   -1.2282    0.2121 H         1 <0>         0.1939
     28 H6         -5.8160   -2.4314    1.0688 H         1 <0>         0.1767
     29 H7         -1.4875   -2.8440    3.3899 H         1 <0>         0.1875
     30 H8          1.7591    1.4693    1.0882 H         1 <0>         0.0887
     31 H9          0.2834    1.4372    2.0830 H         1 <0>         0.0709
     32 H10         1.7378    0.5629    2.6200 H         1 <0>         0.0912
@<TRIPOS>BOND
     1    1    2 1
     2    1   23 1
     3    1   24 1
     4    1   25 1
     5    2    8 1
     6    2    3 1
     7    2   22 1
     8    3    4 2
     9    3    5 am
    10    5    6 am
    11    5    9 1
    12    6    7 2
    13    6    8 am
    14    8   26 1
    15    9   14 ar
    16    9   10 ar
    17   10   11 ar
    18   10   27 1
    19   11   12 ar
    20   11   28 1
    21   12   13 ar
    22   12   19 1
    23   13   14 ar
    24   13   15 1
    25   14   29 1
    26   15   16 1
    27   15   17 1
    28   15   18 1
    29   19   20 2
    30   19   21 1
    31   22   30 1
    32   22   31 1
    33   22   32 1
@<TRIPOS>MOLECULE
ZINC00228765
   38    41     0     0     0
SMALL
USER_CHARGES

@<TRIPOS>ATOM
      1 C1         -0.0173    1.4248    0.0099 C.3       1 <0>         0.0254
      2 O1          0.0021   -0.0041    0.0020 O.3       1 <0>        -0.3068
      3 C2          0.6262   -0.6188    1.0422 C.ar      1 <0>         0.1004
      4 C3          1.2021    0.1367    2.0510 C.ar      1 <0>        -0.1662
      5 C4          1.8358   -0.4897    3.1079 C.ar      1 <0>        -0.0939
      6 C5          1.8971   -1.8699    3.1612 C.ar      1 <0>        -0.1122
      7 C6          1.3251   -2.6295    2.1578 C.ar      1 <0>        -0.1093
      8 C7          0.6830   -2.0080    1.0988 C.ar      1 <0>         0.0813
      9 O2          0.1145   -2.7540    0.1140 O.3       1 <0>        -0.4868
     10 C8          2.4615    0.3336    4.2041 C.3       1 <0>         0.4306
     11 N1          2.9424    1.6125    3.6519 N.pl3     1 <0>        -0.7532
     12 C9          4.0965    1.5951    2.8668 C.ar      1 <0>         0.2302
     13 C10         4.3482    2.5640    1.9239 C.ar      1 <0>        -0.2087
     14 C11         5.5124    2.5169    1.1595 C.ar      1 <0>        -0.0637
     15 C12         6.4273    1.5199    1.3212 C.ar      1 <0>        -0.1642
     16 C13         6.2048    0.5107    2.2736 C.ar      1 <0>         0.0154
     17 C14         5.0266    0.5511    3.0532 C.ar      1 <0>        -0.1294
     18 C15         4.7839   -0.4545    4.0121 C.ar      1 <0>         0.2298
     19 C16         5.7002   -1.4666    4.1766 C.ar      1 <0>        -0.2057
     20 C17         6.8600   -1.4987    3.4047 C.ar      1 <0>        -0.0627
     21 C18         7.1185   -0.5386    2.4726 C.ar      1 <0>        -0.1647
     22 N2          3.6143   -0.3885    4.7711 N.pl3     1 <0>        -0.7516
     23 H1          1.0053    1.8021    0.0021 H         1 <0>         0.0561
     24 H2         -0.5445    1.7859   -0.8732 H         1 <0>         0.1023
     25 H3         -0.5275    1.7763    0.9067 H         1 <0>         0.0546
     26 H4          1.1562    1.2150    2.0113 H         1 <0>         0.1335
     27 H5          2.3934   -2.3556    3.9883 H         1 <0>         0.1294
     28 H6          1.3747   -3.7075    2.2017 H         1 <0>         0.1372
     29 H7          0.7108   -2.9569   -0.6197 H         1 <0>         0.3882
     30 H8          1.7263    0.5236    4.9860 H         1 <0>         0.1165
     31 H9          2.4709    2.4416    3.8284 H         1 <0>         0.4089
     32 H10         3.6398    3.3654    1.7749 H         1 <0>         0.1189
     33 H11         5.6932    3.2863    0.4235 H         1 <0>         0.1205
     34 H12         7.3227    1.5051    0.7174 H         1 <0>         0.1239
     35 H13         5.5203   -2.2405    4.9081 H         1 <0>         0.1208
     36 H14         7.5687   -2.3009    3.5481 H         1 <0>         0.1211
     37 H15         8.0245   -0.5845    1.8867 H         1 <0>         0.1238
     38 H16         3.5620   -0.8050    5.6456 H         1 <0>         0.4103
@<TRIPOS>BOND
     1    1    2 1
     2    1   23 1
     3    1   24 1
     4    1   25 1
     5    2    3 1
     6    3    8 ar
     7    3    4 ar
     8    4    5 ar
     9    4   26 1
    10    5    6 ar
    11    5   10 1
    12    6    7 ar
    13    6   27 1
    14    7    8 ar
    15    7   28 1
    16    8    9 1
    17    9   29 1
    18   10   22 1
    19   10   11 1
    20   10   30 1
    21   11   12 1
    22   11   31 1
    23   12   17 ar
    24   12   13 ar
    25   13   14 ar
    26   13   32 1
    27   14   15 ar
    28   14   33 1
    29   15   16 ar
    30   15   34 1
    31   16   21 ar
    32   16   17 ar
    33   17   18 ar
    34   18   19 ar
    35   18   22 1
    36   19   20 ar
    37   19   35 1
    38   20   21 ar
    39   20   36 1
    40   21   37 1
    41   22   38 1
@<TRIPOS>MOLECULE
ZINC03833821
   54    57     0     0     0
SMALL
NO_CHARGES

@<TRIPOS>ATOM
      1 C1         -0.7520    1.6588   -0.1667 C.3       1 <0>        -0.1663
      2 C2         -0.9770    0.1457   -0.1413 C.3       1 <0>        -0.0388
      3 C3         -2.2972   -0.1663    0.5373 C.3       1 <0>        -0.1261
      4 C4         -2.2689    0.5080    1.9180 C.3       1 <0>         0.1082
      5 H1         -3.1924    0.2731    2.4472 H         1 <0>         0.0604
      6 C5         -1.0827    0.0350    2.7533 C.3       1 <0>        -0.0524
      7 H2         -1.2058   -1.0229    2.9849 H         1 <0>         0.0866
      8 C6          0.2486    0.2394    2.0127 C.3       1 <0>        -0.0814
      9 H3          0.4066    1.3018    1.8270 H         1 <0>         0.1028
     10 C7          0.1391   -0.5386    0.6930 C.3       1 <0>        -0.0780
     11 H4         -0.1092   -1.5841    0.8759 H         1 <0>         0.0846
     12 C8          1.3459   -0.4177   -0.2439 C.3       1 <0>        -0.1120
     13 C9          0.7399   -0.7462   -1.6357 C.3       1 <0>        -0.1478
     14 C10        -0.7736   -0.4308   -1.5386 C.3       1 <0>         0.1037
     15 C11        -1.1639    0.5826   -2.5834 C.2       1 <0>         0.3356
     16 O1         -0.3311    1.3258   -3.0444 O.2       1 <0>        -0.4139
     17 C12        -2.5933    0.6686   -3.0529 C.3       1 <0>         0.0292
     18 O2         -2.7101    1.6977   -4.0376 O.3       1 <0>        -0.5558
     19 O3         -1.5397   -1.6267   -1.6970 O.3       1 <0>        -0.5395
     20 C13         1.3968   -0.3125    2.8596 C.3       1 <0>        -0.1141
     21 C14         1.5075    0.4888    4.1606 C.3       1 <0>        -0.0960
     22 C15         0.1584    0.4521    4.8538 C.2       1 <0>        -0.0243
     23 C16         0.1019    0.0895    6.1279 C.2       1 <0>        -0.2310
     24 C17        -1.1894    0.0201    6.8291 C.2       1 <0>         0.4075
     25 O4         -1.2417   -0.2722    8.0092 O.2       1 <0>        -0.4610
     26 C18        -2.4174    0.3120    6.0704 C.2       1 <0>        -0.2221
     27 C19        -2.3362    0.6803    4.8015 C.2       1 <0>        -0.0651
     28 C20        -1.0322    0.8343    4.0586 C.3       1 <0>        -0.0103
     29 C21        -0.8801    2.3122    3.6932 C.3       1 <0>        -0.1338
     30 O5         -2.1793    1.9234    1.7436 O.3       1 <0>        -0.5459
     31 H5          0.1094    1.8876   -0.7941 H         1 <0>         0.0526
     32 H6         -1.6367    2.1510   -0.5706 H         1 <0>         0.0495
     33 H7         -0.5684    2.0159    0.8467 H         1 <0>         0.1148
     34 H8         -3.1217    0.2324   -0.0537 H         1 <0>         0.0675
     35 H9         -2.4094   -1.2444    0.6529 H         1 <0>         0.0847
     36 H10         1.7470    0.5957   -0.2274 H         1 <0>         0.0739
     37 H11         2.1152   -1.1425    0.0225 H         1 <0>         0.0724
     38 H12         1.2032   -0.1244   -2.4017 H         1 <0>         0.0846
     39 H13         0.8881   -1.8006   -1.8689 H         1 <0>         0.0802
     40 H14        -2.8910   -0.2856   -3.4876 H         1 <0>         0.0817
     41 H15        -3.2403    0.9002   -2.2069 H         1 <0>         0.0808
     42 H16        -3.6054    1.8095   -4.3853 H         1 <0>         0.3862
     43 H17        -1.4500   -2.0388   -2.5672 H         1 <0>         0.3798
     44 H18         1.2044   -1.3596    3.0935 H         1 <0>         0.0668
     45 H19         2.3302   -0.2310    2.3027 H         1 <0>         0.0752
     46 H20         2.2645    0.0418    4.8049 H         1 <0>         0.0800
     47 H21         1.7776    1.5206    3.9355 H         1 <0>         0.0861
     48 H22         1.0116   -0.1573    6.6552 H         1 <0>         0.1356
     49 H23        -3.3822    0.2255    6.5481 H         1 <0>         0.1372
     50 H24        -3.2561    0.8801    4.2721 H         1 <0>         0.1262
     51 H25        -1.8492    2.7154    3.3993 H         1 <0>         0.0948
     52 H26        -0.5039    2.8628    4.5554 H         1 <0>         0.0440
     53 H27        -0.1789    2.4114    2.8646 H         1 <0>         0.0739
     54 H28        -2.9172    2.3063    1.2496 H         1 <0>         0.3686
@<TRIPOS>BOND
     1    1    2 1
     2    1   31 1
     3    1   32 1
     4    1   33 1
     5    2   10 1
     6    2   14 1
     7    2    3 1
     8    3    4 1
     9    3   34 1
    10    3   35 1
    11    4    5 1
    12    4    6 1
    13    4   30 1
    14    6    7 1
    15    6   28 1
    16    6    8 1
    17    8    9 1
    18    8   10 1
    19    8   20 1
    20   10   11 1
    21   10   12 1
    22   12   13 1
    23   12   36 1
    24   12   37 1
    25   13   14 1
    26   13   38 1
    27   13   39 1
    28   14   15 1
    29   14   19 1
    30   15   16 2
    31   15   17 1
    32   17   18 1
    33   17   40 1
    34   17   41 1
    35   18   42 1
    36   19   43 1
    37   20   21 1
    38   20   44 1
    39   20   45 1
    40   21   22 1
    41   21   46 1
    42   21   47 1
    43   22   28 1
    44   22   23 2
    45   23   24 1
    46   23   48 1
    47   24   25 2
    48   24   26 1
    49   26   27 2
    50   26   49 1
    51   27   28 1
    52   27   50 1
    53   28   29 1
    54   29   51 1
    55   29   52 1
    56   29   53 1
    57   30   54 1
@<TRIPOS>MOLECULE
ZINC13520815
   44    47     0     0     0
SMALL
USER_CHARGES

@<TRIPOS>ATOM
      1 C1         -0.0187    1.5258    0.0104 C.3       1 <0>        -0.1354
      2 C2          0.0021   -0.0041    0.0020 C.3       1 <0>        -0.0564
      3 C3         -1.4142   -0.5425    0.0489 C.3       1 <0>        -0.1016
      4 C4         -2.0973    0.0441    1.2987 C.3       1 <0>        -0.1130
      5 C5         -1.3125   -0.3073    2.5542 C.3       1 <0>        -0.0424
      6 H1         -1.3075   -1.3927    2.6533 H         1 <0>         0.0765
      7 C6         -1.9424    0.2651    3.7900 C.ar      1 <0>        -0.0773
      8 C7         -3.3273    0.3484    3.8443 C.ar      1 <0>        -0.1030
      9 C8         -3.9576    0.8569    4.9598 C.ar      1 <0>        -0.1472
     10 C9         -3.2003    1.2884    6.0396 C.ar      1 <0>         0.1024
     11 C10        -1.8198    1.2087    5.9840 C.ar      1 <0>        -0.1480
     12 C11        -1.1856    0.7013    4.8579 C.ar      1 <0>        -0.0577
     13 C12         0.3200    0.6669    4.8604 C.3       1 <0>        -0.0825
     14 C13         0.8561   -0.2331    3.7476 C.3       1 <0>        -0.1135
     15 C14         0.1446    0.1628    2.4542 C.3       1 <0>        -0.0739
     16 H2          0.1741    1.2443    2.3212 H         1 <0>         0.0865
     17 C15         0.7512   -0.5345    1.2564 C.3       1 <0>        -0.0835
     18 H3          0.6224   -1.6140    1.3350 H         1 <0>         0.0754
     19 C16         2.2091   -0.2046    0.9567 C.3       1 <0>        -0.1120
     20 C17         2.3296   -0.2454   -0.5872 C.3       1 <0>        -0.1564
     21 C18         0.8992   -0.5108   -1.1319 C.3       1 <0>         0.1090
     22 H4          0.7424   -1.5760   -1.3012 H         1 <0>         0.0609
     23 O1          0.6684    0.2327   -2.3302 O.3       1 <0>        -0.5588
     24 O2         -3.8114    1.7874    7.1461 O.3       1 <0>        -0.5003
     25 H5          1.0039    1.9031    0.0027 H         1 <0>         0.0539
     26 H6         -0.5459    1.8868   -0.8726 H         1 <0>         0.0599
     27 H7         -0.5289    1.8773    0.9072 H         1 <0>         0.0606
     28 H8         -1.9557   -0.2363   -0.8462 H         1 <0>         0.0693
     29 H9         -1.3938   -1.6303    0.1152 H         1 <0>         0.0628
     30 H10        -2.1534    1.1283    1.2019 H         1 <0>         0.0698
     31 H11        -3.1059   -0.3612    1.3804 H         1 <0>         0.0659
     32 H12        -3.9166    0.0119    3.0041 H         1 <0>         0.1276
     33 H13        -5.0353    0.9194    4.9932 H         1 <0>         0.1275
     34 H14        -1.2303    1.5447    6.8243 H         1 <0>         0.1259
     35 H15         0.7005    1.6781    4.7162 H         1 <0>         0.0774
     36 H16         0.6668    0.2900    5.8226 H         1 <0>         0.0749
     37 H17         1.9304   -0.0841    3.6397 H         1 <0>         0.0720
     38 H18         0.6512   -1.2764    3.9877 H         1 <0>         0.0665
     39 H19         2.4554    0.7900    1.3285 H         1 <0>         0.0683
     40 H20         2.8651   -0.9498    1.4065 H         1 <0>         0.0656
     41 H21         2.7000    0.7100   -0.9588 H         1 <0>         0.0739
     42 H22         3.0000   -1.0500   -0.8889 H         1 <0>         0.0643
     43 H23         1.2119   -0.0490   -3.0787 H         1 <0>         0.3759
     44 H24        -4.0214    1.1203    7.8140 H         1 <0>         0.3901
@<TRIPOS>BOND
     1    1    2 1
     2    1   25 1
     3    1   26 1
     4    1   27 1
     5    2   17 1
     6    2   21 1
     7    2    3 1
     8    3    4 1
     9    3   28 1
    10    3   29 1
    11    4    5 1
    12    4   30 1
    13    4   31 1
    14    5    6 1
    15    5   15 1
    16    5    7 1
    17    7   12 ar
    18    7    8 ar
    19    8    9 ar
    20    8   32 1
    21    9   10 ar
    22    9   33 1
    23   10   11 ar
    24   10   24 1
    25   11   12 ar
    26   11   34 1
    27   12   13 1
    28   13   14 1
    29   13   35 1
    30   13   36 1
    31   14   15 1
    32   14   37 1
    33   14   38 1
    34   15   16 1
    35   15   17 1
    36   17   18 1
    37   17   19 1
    38   19   20 1
    39   19   39 1
    40   19   40 1
    41   20   21 1
    42   20   41 1
    43   20   42 1
    44   21   22 1
    45   21   23 1
    46   23   43 1
    47   24   44 1
@<TRIPOS>MOLECULE
ZINC03861599
   61    65     0     0     0
SMALL
USER_CHARGES

@<TRIPOS>ATOM
      1 C1         -0.0184    1.5028    0.0103 C.3       1 <0>        -0.1834
      2 C2          0.0021   -0.0041    0.0020 C.2       1 <0>         0.2952
      3 O1          1.0609   -0.5963   -0.0113 O.2       1 <0>        -0.4628
      4 S1         -1.4241   -0.8535    0.0111 S.3       1 <0>        -0.0865
      5 C3         -0.9005   -2.5903   -0.0033 C.3       1 <0>        -0.0601
      6 H1         -0.2231   -2.7735    0.8309 H         1 <0>         0.1085
      7 C4         -0.1848   -2.8979   -1.3203 C.3       1 <0>        -0.0972
      8 C5         -1.1754   -2.7526   -2.4610 C.2       1 <0>        -0.0183
      9 C6         -0.8008   -2.0328   -3.5185 C.2       1 <0>        -0.2315
     10 C7         -1.7119   -1.8719   -4.6568 C.2       1 <0>         0.3896
     11 O2         -1.5963   -0.9548   -5.4427 O.2       1 <0>        -0.4548
     12 C8         -2.8054   -2.9124   -4.7998 C.3       1 <0>        -0.1675
     13 C9         -3.4907   -3.0448   -3.4405 C.3       1 <0>        -0.1034
     14 C10        -2.5067   -3.4292   -2.3500 C.3       1 <0>        -0.0255
     15 C11        -3.1324   -3.1361   -0.9805 C.3       1 <0>        -0.0732
     16 H2         -3.3553   -2.0713   -0.9129 H         1 <0>         0.0859
     17 C12        -2.1284   -3.4962    0.1260 C.3       1 <0>        -0.0598
     18 H3         -1.8316   -4.5409    0.0333 H         1 <0>         0.1084
     19 C13        -2.8065   -3.2536    1.4620 C.3       1 <0>        -0.0867
     20 H4         -3.1622   -2.2252    1.5250 H         1 <0>         0.0929
     21 C14        -1.9786   -3.6091    2.7028 C.3       1 <0>        -0.1134
     22 C15        -3.0641   -3.8464    3.7912 C.3       1 <0>        -0.1439
     23 C16        -4.3520   -4.2185    3.0328 C.3       1 <0>         0.1193
     24 C17        -3.9981   -4.2470    1.5548 C.3       1 <0>        -0.0467
     25 C18        -5.0436   -3.7809    0.5608 C.3       1 <0>        -0.1049
     26 C19        -4.4313   -3.9253   -0.8461 C.3       1 <0>        -0.1212
     27 C20        -3.5271   -5.6532    1.1784 C.3       1 <0>        -0.1475
     28 C21        -5.4589   -3.1890    3.3175 C.3       1 <0>        -0.1503
     29 C22        -6.2810   -3.8924    4.4267 C.3       1 <0>        -0.1865
     30 C23        -5.5352   -5.1989    4.6547 C.2       1 <0>         0.4823
     31 O3         -5.5324   -5.8644    5.6632 O.2       1 <0>        -0.4395
     32 O4         -4.8739   -5.4684    3.5007 O.3       1 <0>        -0.3359
     33 C24        -2.2779   -4.9398   -2.4307 C.3       1 <0>        -0.1534
     34 H5          1.0042    1.8801    0.0026 H         1 <0>         0.0923
     35 H6         -0.5455    1.8639   -0.8728 H         1 <0>         0.0982
     36 H7         -0.5286    1.8543    0.9071 H         1 <0>         0.0977
     37 H8          0.6390   -2.1980   -1.4605 H         1 <0>         0.0924
     38 H9          0.1995   -3.9176   -1.2978 H         1 <0>         0.0984
     39 H10         0.1736   -1.5675   -3.5370 H         1 <0>         0.1313
     40 H11        -3.5282   -2.5897   -5.5493 H         1 <0>         0.0938
     41 H12        -2.3710   -3.8689   -5.0905 H         1 <0>         0.1002
     42 H13        -3.9536   -2.0925   -3.1816 H         1 <0>         0.0719
     43 H14        -4.2653   -3.8089   -3.5059 H         1 <0>         0.0853
     44 H15        -1.3988   -4.5162    2.5325 H         1 <0>         0.0749
     45 H16        -1.3274   -2.7808    2.9820 H         1 <0>         0.0735
     46 H17        -2.7654   -4.6639    4.4474 H         1 <0>         0.0789
     47 H18        -3.2196   -2.9365    4.3710 H         1 <0>         0.0819
     48 H19        -5.9363   -4.4010    0.6426 H         1 <0>         0.0727
     49 H20        -5.2965   -2.7376    0.7498 H         1 <0>         0.0726
     50 H21        -5.1455   -3.5623   -1.5851 H         1 <0>         0.0725
     51 H22        -4.2282   -4.9789   -1.0382 H         1 <0>         0.0787
     52 H23        -2.7398   -5.9681    1.8633 H         1 <0>         0.0589
     53 H24        -4.3652   -6.3470    1.2446 H         1 <0>         0.0640
     54 H25        -3.1408   -5.6463    0.1592 H         1 <0>         0.0689
     55 H26        -5.0346   -2.2537    3.6826 H         1 <0>         0.0947
     56 H27        -6.0691   -3.0196    2.4303 H         1 <0>         0.0996
     57 H28        -6.2891   -3.2921    5.3365 H         1 <0>         0.1070
     58 H29        -7.2978   -4.0862    4.0853 H         1 <0>         0.1151
     59 H30        -1.6274   -5.2529   -1.6141 H         1 <0>         0.0630
     60 H31        -3.2342   -5.4569   -2.3522 H         1 <0>         0.0727
     61 H32        -1.8090   -5.1859   -3.3835 H         1 <0>         0.0606
@<TRIPOS>BOND
     1    1    2 1
     2    1   34 1
     3    1   35 1
     4    1   36 1
     5    2    3 2
     6    2    4 1
     7    4    5 1
     8    5    6 1
     9    5   17 1
    10    5    7 1
    11    7    8 1
    12    7   37 1
    13    7   38 1
    14    8   14 1
    15    8    9 2
    16    9   10 1
    17    9   39 1
    18   10   11 2
    19   10   12 1
    20   12   13 1
    21   12   40 1
    22   12   41 1
    23   13   14 1
    24   13   42 1
    25   13   43 1
    26   14   15 1
    27   14   33 1
    28   15   16 1
    29   15   26 1
    30   15   17 1
    31   17   18 1
    32   17   19 1
    33   19   20 1
    34   19   24 1
    35   19   21 1
    36   21   22 1
    37   21   44 1
    38   21   45 1
    39   22   23 1
    40   22   46 1
    41   22   47 1
    42   23   32 1
    43   23   24 1
    44   23   28 1
    45   24   25 1
    46   24   27 1
    47   25   26 1
    48   25   48 1
    49   25   49 1
    50   26   50 1
    51   26   51 1
    52   27   52 1
    53   27   53 1
    54   27   54 1
    55   28   29 1
    56   28   55 1
    57   28   56 1
    58   29   30 1
    59   29   57 1
    60   29   58 1
    61   30   31 2
    62   30   32 1
    63   33   59 1
    64   33   60 1
    65   33   61 1
@<TRIPOS>MOLECULE
ZINC03814423
   58    62     0     0     0
SMALL
USER_CHARGES

@<TRIPOS>ATOM
      1 C1         -0.3495    1.1419    0.1565 C.3       1 <0>        -0.2092
      2 C2          0.5123   -0.0432   -0.1956 C.2       1 <0>         0.3555
      3 O1          1.4945   -0.2919    0.4614 O.2       1 <0>        -0.4322
      4 C3          0.1483   -0.9179   -1.3675 C.3       1 <0>         0.0885
      5 C4          1.4042   -1.6523   -1.8999 C.3       1 <0>        -0.1306
      6 C5          1.0874   -3.1711   -1.8263 C.3       1 <0>        -0.1197
      7 C6         -0.4442   -3.2049   -1.8665 C.3       1 <0>        -0.0741
      8 H1         -0.8032   -3.0148   -2.8779 H         1 <0>         0.0895
      9 C7         -0.8066   -2.0212   -0.9267 C.3       1 <0>        -0.0418
     10 C8         -2.2879   -1.7430   -1.0734 C.3       1 <0>        -0.0999
     11 C9         -3.0484   -2.9897   -0.5829 C.3       1 <0>        -0.1142
     12 C10        -2.6175   -4.2238   -1.3633 C.3       1 <0>        -0.0695
     13 H2         -2.8921   -4.0887   -2.4095 H         1 <0>         0.0789
     14 C11        -1.0985   -4.4463   -1.2980 C.3       1 <0>        -0.0570
     15 H3         -0.8122   -4.5485   -0.2513 H         1 <0>         0.1098
     16 C12        -0.6950   -5.6905   -2.0209 C.2       1 <0>        -0.0846
     17 C13        -1.5320   -6.7000   -2.2521 C.2       1 <0>        -0.0701
     18 C14        -2.9357   -6.6244   -1.8124 C.2       1 <0>         0.0207
     19 C15        -3.7999   -7.5601   -2.2489 C.2       1 <0>        -0.2256
     20 C16        -5.1738   -7.5324   -1.9791 C.2       1 <0>         0.4168
     21 O2         -5.8804   -8.4610   -2.3164 O.2       1 <0>        -0.4511
     22 C17        -5.7723   -6.3449   -1.2675 C.3       1 <0>        -0.2014
     23 H4         -6.6716   -6.5474   -0.6859 H         1 <0>         0.1324
     24 C18        -5.6703   -4.9881   -1.9702 C.3       1 <0>        -0.1405
     25 C19        -4.8001   -5.2994   -0.7282 C.3       1 <0>        -0.1250
     26 H5         -5.0902   -4.8025    0.1976 H         1 <0>         0.1198
     27 C20        -3.2955   -5.4856   -0.8402 C.3       1 <0>         0.0141
     28 C21        -2.7140   -5.7800    0.5440 C.3       1 <0>        -0.1492
     29 Cl1        -0.9642   -8.1168   -3.0793 Cl        1 <0>        -0.0614
     30 C22        -0.5095   -2.4082    0.5234 C.3       1 <0>        -0.1637
     31 O3         -0.4458   -0.1338   -2.4041 O.3       1 <0>        -0.3274
     32 C23         0.2993    0.8546   -2.9235 C.2       1 <0>         0.4524
     33 O4          1.4427    1.0029   -2.5624 O.2       1 <0>        -0.5012
     34 C24        -0.2905    1.7793   -3.9570 C.3       1 <0>        -0.1484
     35 H6          0.0609    2.0397   -0.3058 H         1 <0>         0.0951
     36 H7         -1.3628    0.9757   -0.2091 H         1 <0>         0.0891
     37 H8         -0.3698    1.2675    1.2391 H         1 <0>         0.0930
     38 H9          1.5991   -1.3604   -2.9318 H         1 <0>         0.0778
     39 H10         2.2667   -1.4194   -1.2754 H         1 <0>         0.0930
     40 H11         1.5073   -3.6947   -2.6852 H         1 <0>         0.0761
     41 H12         1.4582   -3.5977   -0.8943 H         1 <0>         0.0774
     42 H13        -2.5635   -0.8798   -0.4676 H         1 <0>         0.0713
     43 H14        -2.5263   -1.5525   -2.1198 H         1 <0>         0.0795
     44 H15        -2.8405   -3.1437    0.4760 H         1 <0>         0.0733
     45 H16        -4.1186   -2.8342   -0.7191 H         1 <0>         0.0786
     46 H17         0.3228   -5.7746   -2.3724 H         1 <0>         0.1320
     47 H18        -3.4122   -8.3768   -2.8399 H         1 <0>         0.1411
     48 H19        -5.1793   -4.9604   -2.9430 H         1 <0>         0.1012
     49 H20        -6.4978   -4.2904   -1.8406 H         1 <0>         0.1122
     50 H21        -2.9118   -4.9382    1.2077 H         1 <0>         0.0750
     51 H22        -3.1781   -6.6791    0.9493 H         1 <0>         0.0645
     52 H23        -1.6379   -5.9322    0.4611 H         1 <0>         0.0686
     53 H24        -0.7307   -1.5645    1.1772 H         1 <0>         0.0601
     54 H25        -1.1287   -3.2594    0.8065 H         1 <0>         0.0820
     55 H26         0.5426   -2.6763    0.6197 H         1 <0>         0.0703
     56 H27        -1.3235    1.4925   -4.1539 H         1 <0>         0.0937
     57 H28        -0.2622    2.8039   -3.5862 H         1 <0>         0.1074
     58 H29         0.2877    1.7103   -4.8784 H         1 <0>         0.1070
@<TRIPOS>BOND
     1    1    2 1
     2    1   35 1
     3    1   36 1
     4    1   37 1
     5    2    3 2
     6    2    4 1
     7    4    9 1
     8    4    5 1
     9    4   31 1
    10    5    6 1
    11    5   38 1
    12    5   39 1
    13    6    7 1
    14    6   40 1
    15    6   41 1
    16    7    8 1
    17    7   14 1
    18    7    9 1
    19    9   10 1
    20    9   30 1
    21   10   11 1
    22   10   42 1
    23   10   43 1
    24   11   12 1
    25   11   44 1
    26   11   45 1
    27   12   13 1
    28   12   27 1
    29   12   14 1
    30   14   15 1
    31   14   16 1
    32   16   17 2
    33   16   46 1
    34   17   18 1
    35   17   29 1
    36   18   27 1
    37   18   19 2
    38   19   20 1
    39   19   47 1
    40   20   21 2
    41   20   22 1
    42   22   23 1
    43   22   25 1
    44   22   24 1
    45   24   25 1
    46   24   48 1
    47   24   49 1
    48   25   26 1
    49   25   27 1
    50   27   28 1
    51   28   50 1
    52   28   51 1
    53   28   52 1
    54   30   53 1
    55   30   54 1
    56   30   55 1
    57   31   32 1
    58   32   33 2
    59   32   34 1
    60   34   56 1
    61   34   57 1
    62   34   58 1
@<TRIPOS>MOLECULE
ZINC03875484
   53    56     0     0     0
SMALL
USER_CHARGES

@<TRIPOS>ATOM
      1 C1         -0.3427    1.5573   -0.1794 C.3       1 <0>        -0.1368
      2 C2         -0.3556    0.0274   -0.1937 C.3       1 <0>        -0.0461
      3 C3         -1.8008   -0.4287   -0.2894 C.3       1 <0>        -0.1091
      4 C4         -2.5041   -0.3562    1.0657 C.3       1 <0>        -0.1643
      5 C5         -1.7218   -1.2261    2.0301 C.2       1 <0>         0.3884
      6 O1         -2.2686   -2.0496    2.7337 O.2       1 <0>        -0.4563
      7 C6         -0.2698   -1.0212    2.0683 C.2       1 <0>        -0.2368
      8 C7          0.3555   -0.4532    1.0337 C.2       1 <0>        -0.0211
      9 C8          1.8559   -0.2481    1.1350 C.3       1 <0>        -0.0966
     10 C9          2.5079   -0.7388   -0.1598 C.3       1 <0>        -0.1178
     11 C10         1.8651   -0.0208   -1.3497 C.3       1 <0>        -0.0972
     12 H1          1.9377    1.0586   -1.2163 H         1 <0>         0.1110
     13 C11         0.3905   -0.4389   -1.4497 C.3       1 <0>         0.1513
     14 C12        -0.2953    0.1424   -2.6827 C.3       1 <0>         0.0913
     15 H2         -1.3009   -0.2715   -2.7582 H         1 <0>         0.0681
     16 C13         0.4779   -0.1820   -3.9707 C.3       1 <0>        -0.1368
     17 C14         1.8813    0.3673   -3.8004 C.3       1 <0>        -0.0470
     18 C15         2.5604   -0.4320   -2.6343 C.3       1 <0>        -0.0863
     19 H3          2.4406   -1.5020   -2.8043 H         1 <0>         0.0800
     20 C16         4.0310   -0.0171   -2.7578 C.3       1 <0>        -0.1092
     21 C17         4.2662   -0.0212   -4.2930 C.3       1 <0>        -0.1481
     22 C18         2.8402    0.1576   -4.9675 C.3       1 <0>         0.1355
     23 C19         2.4477   -1.0921   -5.7580 C.3       1 <0>        -0.1757
     24 O2          2.8404    1.3042   -5.8203 O.3       1 <0>        -0.5526
     25 C20         1.8164    1.8536   -3.4430 C.3       1 <0>        -0.1347
     26 O3         -0.3854    1.5614   -2.5401 O.3       1 <0>        -0.5388
     27 F1          0.3310   -1.8347   -1.5231 F         1 <0>        -0.1969
     28 H4          0.6319    1.9155   -0.5108 H         1 <0>         0.0694
     29 H5         -1.1154    1.9334   -0.8499 H         1 <0>         0.0947
     30 H6         -0.5356    1.9128    0.8328 H         1 <0>         0.0498
     31 H7         -2.3288    0.2084   -0.9989 H         1 <0>         0.0862
     32 H8         -1.8263   -1.4573   -0.6490 H         1 <0>         0.0714
     33 H9         -2.5162    0.6738    1.4222 H         1 <0>         0.1018
     34 H10        -3.5242   -0.7294    0.9741 H         1 <0>         0.0937
     35 H11         0.2978   -1.3432    2.9289 H         1 <0>         0.1355
     36 H12         2.0714    0.8113    1.2740 H         1 <0>         0.0872
     37 H13         2.2464   -0.8165    1.9791 H         1 <0>         0.0813
     38 H14         3.5754   -0.5201   -0.1357 H         1 <0>         0.0783
     39 H15         2.3575   -1.8139   -0.2586 H         1 <0>         0.0731
     40 H16         0.5169   -1.2612   -4.1186 H         1 <0>         0.0779
     41 H17        -0.0060    0.2935   -4.8239 H         1 <0>         0.0769
     42 H18         4.1861    0.9804   -2.3466 H         1 <0>         0.0721
     43 H19         4.6790   -0.7429   -2.2665 H         1 <0>         0.0686
     44 H20         4.9319    0.7956   -4.5717 H         1 <0>         0.0730
     45 H21         4.6929   -0.9749   -4.6037 H         1 <0>         0.0667
     46 H22         1.4357   -0.9740   -6.1454 H         1 <0>         0.0652
     47 H23         3.1407   -1.2296   -6.5881 H         1 <0>         0.0575
     48 H24         2.4870   -1.9631   -5.1039 H         1 <0>         0.0667
     49 H25         3.4326    1.2286   -6.5810 H         1 <0>         0.3735
     50 H26         1.4342    1.9671   -2.4286 H         1 <0>         0.0903
     51 H27         2.8150    2.2862   -3.5056 H         1 <0>         0.0439
     52 H28         1.1539    2.3664   -4.1404 H         1 <0>         0.0524
     53 H29        -0.8110    2.0054   -3.2863 H         1 <0>         0.3754
@<TRIPOS>BOND
     1    1    2 1
     2    1   28 1
     3    1   29 1
     4    1   30 1
     5    2    8 1
     6    2   13 1
     7    2    3 1
     8    3    4 1
     9    3   31 1
    10    3   32 1
    11    4    5 1
    12    4   33 1
    13    4   34 1
    14    5    6 2
    15    5    7 1
    16    7    8 2
    17    7   35 1
    18    8    9 1
    19    9   10 1
    20    9   36 1
    21    9   37 1
    22   10   11 1
    23   10   38 1
    24   10   39 1
    25   11   12 1
    26   11   18 1
    27   11   13 1
    28   13   14 1
    29   13   27 1
    30   14   15 1
    31   14   16 1
    32   14   26 1
    33   16   17 1
    34   16   40 1
    35   16   41 1
    36   17   22 1
    37   17   18 1
    38   17   25 1
    39   18   19 1
    40   18   20 1
    41   20   21 1
    42   20   42 1
    43   20   43 1
    44   21   22 1
    45   21   44 1
    46   21   45 1
    47   22   23 1
    48   22   24 1
    49   23   46 1
    50   23   47 1
    51   23   48 1
    52   24   49 1
    53   25   50 1
    54   25   51 1
    55   25   52 1
    56   26   53 1
@<TRIPOS>MOLECULE
ZINC13529866
   31    32     0     0     0
SMALL
USER_CHARGES
4-(4,4-dimethyl-2,5-dioxo-imidazolidin-1-yl)-2-(trifluoromethyl)benzonitrile
@<TRIPOS>ATOM
      1 C1         -0.7191    2.0292   -1.2162 C.3       1 <0>        -0.1504
      2 C2         -0.0178    1.4687    0.0227 C.3       1 <0>         0.1224
      3 C3          1.4506    1.8448    0.0203 C.2       1 <0>         0.5270
      4 O1          1.9204    2.9622    0.0438 O.2       1 <0>        -0.4360
      5 N1          2.1254    0.6787   -0.0146 N.am      1 <0>        -0.5226
      6 C4          1.2960   -0.3709   -0.0343 C.2       1 <0>         0.7066
      7 O2          1.6699   -1.5268   -0.0665 O.2       1 <0>        -0.5227
      8 N2          0.0019   -0.0038   -0.0145 N.am      1 <0>        -0.7105
      9 C5          3.5204    0.5783   -0.0292 C.ar      1 <0>         0.1630
     10 C6          4.1268   -0.6698    0.0626 C.ar      1 <0>        -0.1044
     11 C7          5.5000   -0.7728    0.0486 C.ar      1 <0>        -0.0466
     12 C8          6.2843    0.3792   -0.0581 C.ar      1 <0>         0.0181
     13 C9          5.6713    1.6315   -0.1501 C.ar      1 <0>        -0.1208
     14 C10         4.2970    1.7259   -0.1411 C.ar      1 <0>        -0.0948
     15 C11         6.5123    2.8766   -0.2657 C.3       1 <0>         0.5068
     16 F1          5.6783    3.9972   -0.3433 F         1 <0>        -0.1660
     17 F2          7.3386    2.9872    0.8577 F         1 <0>        -0.1685
     18 F3          7.3007    2.8013   -1.4190 F         1 <0>        -0.1687
     19 C12         7.7125    0.2763   -0.0735 C.1       1 <0>         0.2304
     20 N3          8.8455    0.1946   -0.0857 N.1       1 <0>        -0.3713
     21 C13        -0.6986    1.9658    1.2995 C.3       1 <0>        -0.1503
     22 H1         -1.7527    1.6839   -1.2360 H         1 <0>         0.0865
     23 H2         -0.7005    3.1185   -1.1826 H         1 <0>         0.0901
     24 H3         -0.2036    1.6845   -2.1126 H         1 <0>         0.0703
     25 H4         -0.7681   -0.5937   -0.0236 H         1 <0>         0.4468
     26 H5          3.5201   -1.5594    0.1446 H         1 <0>         0.1834
     27 H6          5.9702   -1.7424    0.1196 H         1 <0>         0.1580
     28 H7          3.8224    2.6930   -0.2170 H         1 <0>         0.1773
     29 H8         -0.1688    1.5766    2.1690 H         1 <0>         0.0703
     30 H9         -0.6802    3.0555    1.3205 H         1 <0>         0.0900
     31 H10        -1.7320    1.6195    1.3187 H         1 <0>         0.0864
@<TRIPOS>BOND
     1    1    2 1
     2    1   22 1
     3    1   23 1
     4    1   24 1
     5    2    8 1
     6    2    3 1
     7    2   21 1
     8    3    4 2
     9    3    5 am
    10    5    6 am
    11    5    9 1
    12    6    7 2
    13    6    8 am
    14    8   25 1
    15    9   14 ar
    16    9   10 ar
    17   10   11 ar
    18   10   26 1
    19   11   12 ar
    20   11   27 1
    21   12   13 ar
    22   12   19 1
    23   13   14 ar
    24   13   15 1
    25   14   28 1
    26   15   16 1
    27   15   17 1
    28   15   18 1
    29   19   20 3
    30   21   29 1
    31   21   30 1
    32   21   31 1
@<TRIPOS>MOLECULE
ZINC00228758
   34    37     0     0     0
SMALL
USER_CHARGES

@<TRIPOS>ATOM
      1 C1         -0.0168    1.3893    0.0097 C.ar      1 <0>        -0.0635
      2 C2          1.1370    2.1144    0.0026 C.ar      1 <0>        -0.1643
      3 C3          2.3792    1.4569   -0.0107 C.ar      1 <0>         0.0151
      4 C4          3.5943    2.1631   -0.0136 C.ar      1 <0>        -0.1643
      5 C5          4.7760    1.4844   -0.0226 C.ar      1 <0>        -0.0635
      6 C6          4.8123    0.0913   -0.0308 C.ar      1 <0>        -0.2068
      7 C7          3.6440   -0.6342   -0.0309 C.ar      1 <0>         0.2294
      8 C8          2.4072    0.0439   -0.0196 C.ar      1 <0>        -0.1293
      9 C9          1.1981   -0.6826   -0.0138 C.ar      1 <0>         0.2293
     10 C10         0.0021   -0.0041    0.0020 C.ar      1 <0>        -0.2068
     11 N1          1.2543   -2.0773   -0.0270 N.pl3     1 <0>        -0.7532
     12 C11         2.4653   -2.7258    0.5066 C.3       1 <0>         0.4315
     13 N2          3.6429   -2.0300   -0.0427 N.pl3     1 <0>        -0.7531
     14 C12         2.4729   -2.6288    2.0104 C.ar      1 <0>        -0.1340
     15 C13         1.2784   -2.6018    2.7062 C.ar      1 <0>        -0.0744
     16 C14         1.2825   -2.5125    4.0848 C.ar      1 <0>        -0.1486
     17 C15         2.4866   -2.4503    4.7710 C.ar      1 <0>         0.1128
     18 C16         3.6838   -2.4780    4.0706 C.ar      1 <0>        -0.1485
     19 C17         3.6743   -2.5727    2.6924 C.ar      1 <0>        -0.0745
     20 O1          2.4934   -2.3620    6.1271 O.3       1 <0>        -0.4996
     21 H1         -0.9655    1.9052    0.0261 H         1 <0>         0.1208
     22 H2          1.0970    3.1936    0.0068 H         1 <0>         0.1238
     23 H3          3.5916    3.2431   -0.0090 H         1 <0>         0.1238
     24 H4          5.7036    2.0375   -0.0238 H         1 <0>         0.1208
     25 H5          5.7629   -0.4212   -0.0374 H         1 <0>         0.1201
     26 H6         -0.9274   -0.5539    0.0089 H         1 <0>         0.1201
     27 H7          0.5183   -2.6037   -0.3764 H         1 <0>         0.4093
     28 H8          2.4842   -3.7732    0.2053 H         1 <0>         0.1143
     29 H9          4.3949   -2.5270   -0.4012 H         1 <0>         0.4093
     30 H10         0.3413   -2.6503    2.1715 H         1 <0>         0.1269
     31 H11         0.3492   -2.4907    4.6278 H         1 <0>         0.1292
     32 H12         4.6225   -2.4297    4.6025 H         1 <0>         0.1293
     33 H13         4.6061   -2.5987    2.1469 H         1 <0>         0.1267
     34 H14         2.5082   -3.2178    6.5770 H         1 <0>         0.3919
@<TRIPOS>BOND
     1    1   10 ar
     2    1    2 ar
     3    1   21 1
     4    2    3 ar
     5    2   22 1
     6    3    8 ar
     7    3    4 ar
     8    4    5 ar
     9    4   23 1
    10    5    6 ar
    11    5   24 1
    12    6    7 ar
    13    6   25 1
    14    7   13 1
    15    7    8 ar
    16    8    9 ar
    17    9   10 ar
    18    9   11 1
    19   10   26 1
    20   11   12 1
    21   11   27 1
    22   12   13 1
    23   12   14 1
    24   12   28 1
    25   13   29 1
    26   14   19 ar
    27   14   15 ar
    28   15   16 ar
    29   15   30 1
    30   16   17 ar
    31   16   31 1
    32   17   18 ar
    33   17   20 1
    34   18   19 ar
    35   18   32 1
    36   19   33 1
    37   20   34 1
@<TRIPOS>MOLECULE
ZINC13778327
   37    39     0     0     0
SMALL
USER_CHARGES
6,8,8-trimethyl-4-(trifluoromethyl)-1,9-dihydropyrido[5,6-g]quinolin-2-one
@<TRIPOS>ATOM
      1 C1         -2.5601   -0.1227   -0.3343 C.3       1 <0>        -0.1188
      2 C2         -1.2505   -0.7869    0.0045 C.2       1 <0>        -0.0598
      3 C3         -1.2157   -2.0786    0.3065 C.2       1 <0>        -0.1728
      4 C4          0.0789   -2.7595    0.6625 C.3       1 <0>         0.2112
      5 N1          1.2001   -2.0892   -0.0078 N.pl3     1 <0>        -0.7319
      6 C5          1.2327   -0.6968   -0.0107 C.ar      1 <0>         0.2778
      7 C6          0.0021   -0.0041    0.0020 C.ar      1 <0>        -0.1270
      8 C7         -0.0167    1.3792    0.0096 C.ar      1 <0>        -0.0104
      9 C8          1.1938    2.0817    0.0018 C.ar      1 <0>        -0.1581
     10 C9          1.2110    3.5444    0.0108 C.2       1 <0>        -0.0685
     11 C10         2.4107    4.1795    0.0013 C.2       1 <0>        -0.1566
     12 C11         3.6076    3.4357   -0.0162 C.2       1 <0>         0.5410
     13 O1          4.6739    4.0266   -0.0249 O.2       1 <0>        -0.5208
     14 N2          3.6038    2.0916   -0.0240 N.am      1 <0>        -0.6241
     15 H1          4.4467    1.6117   -0.0361 H         1 <0>         0.4209
     16 C12         2.4199    1.3844   -0.0148 C.ar      1 <0>         0.2396
     17 C13         2.4264   -0.0061   -0.0212 C.ar      1 <0>        -0.2308
     18 C14        -0.0753    4.3292    0.0304 C.3       1 <0>         0.5076
     19 F1          0.2136    5.6981    0.0358 F         1 <0>        -0.1675
     20 F2         -0.8298    4.0164   -1.1054 F         1 <0>        -0.1669
     21 F3         -0.8039    4.0019    1.1790 F         1 <0>        -0.1669
     22 C15         0.2841   -2.6998    2.1775 C.3       1 <0>        -0.1590
     23 C16         0.0234   -4.2215    0.2149 C.3       1 <0>        -0.1535
     24 H2         -2.7351   -0.1910   -1.4080 H         1 <0>         0.0740
     25 H3         -3.3694   -0.6223    0.1983 H         1 <0>         0.0713
     26 H4         -2.5231    0.9257   -0.0381 H         1 <0>         0.0677
     27 H5         -2.1315   -2.6510    0.2971 H         1 <0>         0.1274
     28 H6          1.9008   -2.6035   -0.4384 H         1 <0>         0.4072
     29 H7         -0.9562    1.9117    0.0170 H         1 <0>         0.1394
     30 H8          2.4481    5.2588    0.0074 H         1 <0>         0.1705
     31 H9          3.3632   -0.5434   -0.0347 H         1 <0>         0.1404
     32 H10        -0.5426   -3.2056    2.6763 H         1 <0>         0.0696
     33 H11         1.2211   -3.1924    2.4369 H         1 <0>         0.0620
     34 H12         0.3198   -1.6588    2.4985 H         1 <0>         0.0588
     35 H13        -0.1267   -4.2658   -0.8638 H         1 <0>         0.0650
     36 H14         0.9602   -4.7160    0.4720 H         1 <0>         0.0649
     37 H15        -0.8028   -4.7243    0.7177 H         1 <0>         0.0772
@<TRIPOS>BOND
     1    1    2 1
     2    1   24 1
     3    1   25 1
     4    1   26 1
     5    2    7 1
     6    2    3 2
     7    3    4 1
     8    3   27 1
     9    4    5 1
    10    4   22 1
    11    4   23 1
    12    5    6 1
    13    5   28 1
    14    6   17 ar
    15    6    7 ar
    16    7    8 ar
    17    8    9 ar
    18    8   29 1
    19    9   16 ar
    20    9   10 1
    21   10   11 2
    22   10   18 1
    23   11   12 1
    24   11   30 1
    25   12   13 2
    26   12   14 am
    27   14   15 1
    28   14   16 1
    29   16   17 ar
    30   17   31 1
    31   18   19 1
    32   18   20 1
    33   18   21 1
    34   22   32 1
    35   22   33 1
    36   22   34 1
    37   23   35 1
    38   23   36 1
    39   23   37 1
@<TRIPOS>MOLECULE
ZINC03814420
   45    48     0     0     0
SMALL
USER_CHARGES
(8S,13S,14S,17S)-17-hydroxy-13,17-dimethyl-1,2,6,7,8,14,15,16-octahydrocyclopenta[a]phenanthren-3-one
@<TRIPOS>ATOM
      1 C1         -1.8342    0.1714    1.6972 C.3       1 <0>        -0.1766
      2 C2         -1.2152   -0.6970    0.6001 C.3       1 <0>         0.1409
      3 C3         -0.6923   -2.0195    1.1931 C.3       1 <0>        -0.1509
      4 C4          0.8510   -1.9941    1.0170 C.3       1 <0>        -0.1138
      5 C5          1.1599   -0.4965    0.9168 C.3       1 <0>        -0.0807
      6 H1          1.1124   -0.0185    1.8953 H         1 <0>         0.0845
      7 C6          0.0021   -0.0041    0.0020 C.3       1 <0>        -0.0329
      8 C7          0.0207    1.4861    0.0164 C.2       1 <0>        -0.0865
      9 C8          1.2172    2.0991    0.0221 C.2       1 <0>        -0.1547
     10 C9          2.4404    1.3780    0.0406 C.2       1 <0>        -0.0186
     11 C10         3.6116    2.0651   -0.0549 C.2       1 <0>        -0.1275
     12 C11         3.5470    3.5418   -0.3618 C.3       1 <0>        -0.0806
     13 C12         4.7051    4.2788    0.3040 C.3       1 <0>        -0.1598
     14 C13         5.9924    3.5377    0.0534 C.2       1 <0>         0.3853
     15 O1          7.0154    4.1548   -0.1697 O.2       1 <0>        -0.4711
     16 C14         6.0103    2.1397    0.0778 C.2       1 <0>        -0.2593
     17 C15         4.8496    1.4232    0.0954 C.2       1 <0>         0.0333
     18 C16         4.9232   -0.0750    0.2638 C.3       1 <0>        -0.0993
     19 C17         3.6701   -0.5515    1.0081 C.3       1 <0>        -0.1105
     20 C18         2.4452   -0.1274    0.2019 C.3       1 <0>        -0.0528
     21 H2          2.4689   -0.6057   -0.7773 H         1 <0>         0.1006
     22 C19         0.2282   -0.5062   -1.4254 C.3       1 <0>        -0.1291
     23 O2         -2.1791   -0.9719   -0.4184 O.3       1 <0>        -0.5546
     24 H3         -2.1412    1.1277    1.2738 H         1 <0>         0.0659
     25 H4         -2.7032   -0.3365    2.1156 H         1 <0>         0.0600
     26 H5         -1.0992    0.3416    2.4839 H         1 <0>         0.0676
     27 H6         -1.1156   -2.8720    0.6619 H         1 <0>         0.0769
     28 H7         -0.9472   -2.0743    2.2515 H         1 <0>         0.0712
     29 H8          1.1434   -2.5102    0.1025 H         1 <0>         0.0742
     30 H9          1.3480   -2.4334    1.8819 H         1 <0>         0.0715
     31 H10        -0.8973    2.0551    0.0176 H         1 <0>         0.1253
     32 H11         1.2492    3.1786    0.0122 H         1 <0>         0.1259
     33 H12         2.6042    3.9449    0.0079 H         1 <0>         0.0898
     34 H13         3.6015    3.6868   -1.4408 H         1 <0>         0.0815
     35 H14         4.5424    4.3345    1.2891 H         1 <0>         0.0889
     36 H15         4.7793    5.2844   -0.1099 H         1 <0>         0.0941
     37 H16         6.9568    1.6197    0.0824 H         1 <0>         0.1345
     38 H17         5.8112   -0.3346    0.8401 H         1 <0>         0.0868
     39 H18         4.9691   -0.5508   -0.7158 H         1 <0>         0.0894
     40 H19         3.6348   -0.0957    1.9976 H         1 <0>         0.0711
     41 H20         3.6893   -1.6371    1.1040 H         1 <0>         0.0794
     42 H21         1.1364   -0.0581   -1.8286 H         1 <0>         0.0555
     43 H22         0.3313   -1.5912   -1.4169 H         1 <0>         0.0622
     44 H23        -0.6219   -0.2269   -2.0478 H         1 <0>         0.0671
     45 H24        -2.9769   -1.4133   -0.0961 H         1 <0>         0.3758
@<TRIPOS>BOND
     1    1    2 1
     2    1   24 1
     3    1   25 1
     4    1   26 1
     5    2    7 1
     6    2    3 1
     7    2   23 1
     8    3    4 1
     9    3   27 1
    10    3   28 1
    11    4    5 1
    12    4   29 1
    13    4   30 1
    14    5    6 1
    15    5   20 1
    16    5    7 1
    17    7    8 1
    18    7   22 1
    19    8    9 2
    20    8   31 1
    21    9   10 1
    22    9   32 1
    23   10   20 1
    24   10   11 2
    25   11   17 1
    26   11   12 1
    27   12   13 1
    28   12   33 1
    29   12   34 1
    30   13   14 1
    31   13   35 1
    32   13   36 1
    33   14   15 2
    34   14   16 1
    35   16   17 2
    36   16   37 1
    37   17   18 1
    38   18   19 1
    39   18   38 1
    40   18   39 1
    41   19   20 1
    42   19   40 1
    43   19   41 1
    44   20   21 1
    45   22   42 1
    46   22   43 1
    47   22   44 1
    48   23   45 1
@<TRIPOS>MOLECULE
ZINC66097792
   44    46     0     0     0
SMALL
USER_CHARGES

@<TRIPOS>ATOM
      1 C1          0.0060    0.9632    0.2944 C.3       1 <0>        -0.1155
      2 C2         -1.2397    0.3560   -0.2977 C.ar      1 <0>        -0.1403
      3 C3         -1.2125   -0.1683   -1.5862 C.ar      1 <0>         0.2517
      4 C4         -2.3606   -0.7301   -2.1373 C.ar      1 <0>        -0.1912
      5 C5         -3.5282   -0.7687   -1.4093 C.ar      1 <0>        -0.0120
      6 C6         -3.5606   -0.2433   -0.1142 C.ar      1 <0>        -0.0683
      7 C7         -2.4030    0.3155    0.4396 C.ar      1 <0>         0.0499
      8 Cl1        -2.4349    0.9634    2.0499 Cl        1 <0>        -0.0408
      9 C8         -4.7737   -0.2814    0.6458 C.1       1 <0>         0.2518
     10 N1         -5.7361   -0.3116    1.2486 N.1       1 <0>        -0.4047
     11 N2         -0.0343   -0.1305   -2.3263 N.pl3     1 <0>        -0.7121
     12 C9          0.0349   -0.7989   -3.6280 C.3       1 <0>         0.2157
     13 H1         -0.5903   -1.6917   -3.6117 H         1 <0>         0.1274
     14 C10        -0.4561    0.1386   -4.7009 C.2       1 <0>         0.1434
     15 N3         -0.1325    1.3955   -4.8323 N.2       1 <0>        -0.2462
     16 N4         -0.7354    1.8899   -5.8558 N.2       1 <0>        -0.2637
     17 C11        -1.4701    0.9578   -6.4169 C.2       1 <0>         0.2057
     18 O1         -1.3017   -0.1705   -5.6982 O.3       1 <0>        -0.2167
     19 C12        -2.3189    1.1144   -7.6159 C.ar      1 <0>         0.0016
     20 C13        -3.0540    0.0284   -8.0979 C.ar      1 <0>        -0.0836
     21 C14        -3.8447    0.1739   -9.2146 C.ar      1 <0>        -0.0703
     22 C15        -3.9127    1.4086   -9.8666 C.ar      1 <0>         0.0011
     23 C16        -3.1774    2.4950   -9.3838 C.ar      1 <0>        -0.0690
     24 C17        -2.3907    2.3500   -8.2642 C.ar      1 <0>        -0.0659
     25 C18        -4.7350    1.5603  -11.0291 C.1       1 <0>         0.2445
     26 N5         -5.3874    1.6806  -11.9513 N.1       1 <0>        -0.3968
     27 C19         1.4831   -1.1959   -3.9213 C.3       1 <0>         0.1041
     28 H2          1.5297   -1.7218   -4.8748 H         1 <0>         0.1207
     29 C20         1.9963   -2.1115   -2.8082 C.3       1 <0>        -0.1837
     30 O2          2.2952   -0.0218   -3.9847 O.3       1 <0>        -0.5402
     31 H3          0.5758    0.1914    0.8119 H         1 <0>         0.0799
     32 H4          0.6148    1.3921   -0.5015 H         1 <0>         0.0678
     33 H5         -0.2715    1.7452    1.0011 H         1 <0>         0.0810
     34 H6         -2.3354   -1.1360   -3.1378 H         1 <0>         0.1346
     35 H7         -4.4185   -1.2043   -1.8384 H         1 <0>         0.1444
     36 H8          0.7411    0.3384   -1.9801 H         1 <0>         0.4108
     37 H9         -3.0014   -0.9255   -7.5941 H         1 <0>         0.1440
     38 H10        -4.4124   -0.6657   -9.5876 H         1 <0>         0.1455
     39 H11        -3.2297    3.4490   -9.8872 H         1 <0>         0.1476
     40 H12        -1.8255    3.1903   -7.8889 H         1 <0>         0.1525
     41 H13         1.3247   -2.9631   -2.6996 H         1 <0>         0.0746
     42 H14         2.9953   -2.4666   -3.0614 H         1 <0>         0.0778
     43 H15         2.0346   -1.5572   -1.8704 H         1 <0>         0.0671
     44 H16         2.3012    0.4969   -3.1686 H         1 <0>         0.3756
@<TRIPOS>BOND
     1    1    2 1
     2    1   31 1
     3    1   32 1
     4    1   33 1
     5    2    7 ar
     6    2    3 ar
     7    3    4 ar
     8    3   11 1
     9    4    5 ar
    10    4   34 1
    11    5    6 ar
    12    5   35 1
    13    6    7 ar
    14    6    9 1
    15    7    8 1
    16    9   10 3
    17   11   12 1
    18   11   36 1
    19   12   13 1
    20   12   14 1
    21   12   27 1
    22   14   18 1
    23   14   15 2
    24   15   16 1
    25   16   17 2
    26   17   18 1
    27   17   19 1
    28   19   24 ar
    29   19   20 ar
    30   20   21 ar
    31   20   37 1
    32   21   22 ar
    33   21   38 1
    34   22   23 ar
    35   22   25 1
    36   23   24 ar
    37   23   39 1
    38   24   40 1
    39   25   26 3
    40   27   28 1
    41   27   29 1
    42   27   30 1
    43   29   41 1
    44   29   42 1
    45   29   43 1
    46   30   44 1
@<TRIPOS>MOLECULE
ZINC00178572
   34    37     0     0     0
SMALL
USER_CHARGES
[3-(trifluoromethyl)phenyl]BLAHdione
@<TRIPOS>ATOM
      1 C1         -0.9042    2.5777    1.0844 C.ar      1 <0>        -0.1053
      2 C2         -1.2176    1.7465    0.0244 C.ar      1 <0>        -0.0576
      3 C3         -0.3518    1.6322   -1.0474 C.ar      1 <0>        -0.1721
      4 C4          0.8347    2.3396   -1.0571 C.ar      1 <0>        -0.0523
      5 C5          1.1547    3.1701    0.0081 C.ar      1 <0>         0.1076
      6 C6          0.2805    3.2873    1.0804 C.ar      1 <0>        -0.0670
      7 N1          2.3579    3.8897    0.0009 N.am      1 <0>        -0.5313
      8 C7          2.4027    5.2231   -0.0961 C.2       1 <0>         0.5340
      9 O1          1.4375    5.9511   -0.1867 O.2       1 <0>        -0.4608
     10 C8          3.8428    5.6820   -0.0713 C.3       1 <0>        -0.1186
     11 H1          4.0586    6.3930    0.7262 H         1 <0>         0.1425
     12 C9          4.2277    6.2090   -1.4894 C.3       1 <0>        -0.0580
     13 H2          3.5792    6.9773   -1.9104 H         1 <0>         0.1205
     14 C10         4.3212    4.8549   -2.2827 C.3       1 <0>        -0.1352
     15 C11         5.3975    4.2281   -1.3089 C.3       1 <0>        -0.0583
     16 H3          5.7958    3.2431   -1.5522 H         1 <0>         0.1237
     17 C12         4.6403    4.3498    0.0507 C.3       1 <0>        -0.1190
     18 H4          5.3011    4.3160    0.9169 H         1 <0>         0.1418
     19 C13         3.5549    3.2981    0.0848 C.2       1 <0>         0.5321
     20 O2          3.7404    2.1035    0.1738 O.2       1 <0>        -0.4600
     21 C14         6.3929    5.3944   -1.2894 C.2       1 <0>        -0.1559
     22 C15         5.7188    6.5470   -1.3712 C.2       1 <0>        -0.1570
     23 C16        -0.6997    0.7299   -2.2032 C.3       1 <0>         0.5112
     24 F1         -0.2030   -0.5548   -1.9578 F         1 <0>        -0.1719
     25 F2         -2.0900    0.6726   -2.3480 F         1 <0>        -0.1727
     26 F3         -0.1290    1.2342   -3.3767 F         1 <0>        -0.1751
     27 H5         -1.5846    2.6684    1.9182 H         1 <0>         0.1481
     28 H6         -2.1427    1.1891    0.0318 H         1 <0>         0.1460
     29 H7          1.5129    2.2462   -1.8924 H         1 <0>         0.1395
     30 H8          0.5266    3.9331    1.9103 H         1 <0>         0.1379
     31 H9          3.3857    4.2957   -2.2660 H         1 <0>         0.0671
     32 H10         4.7013    4.9896   -3.2954 H         1 <0>         0.0963
     33 H11         7.4650    5.3081   -1.1909 H         1 <0>         0.1377
     34 H12         6.1436    7.5400   -1.3732 H         1 <0>         0.1420
@<TRIPOS>BOND
     1    1    6 ar
     2    1    2 ar
     3    1   27 1
     4    2    3 ar
     5    2   28 1
     6    3    4 ar
     7    3   23 1
     8    4    5 ar
     9    4   29 1
    10    5    6 ar
    11    5    7 1
    12    6   30 1
    13    7   19 am
    14    7    8 am
    15    8    9 2
    16    8   10 1
    17   10   11 1
    18   10   17 1
    19   10   12 1
    20   12   13 1
    21   12   22 1
    22   12   14 1
    23   14   15 1
    24   14   31 1
    25   14   32 1
    26   15   16 1
    27   15   17 1
    28   15   21 1
    29   17   18 1
    30   17   19 1
    31   19   20 2
    32   21   22 2
    33   21   33 1
    34   22   34 1
    35   23   24 1
    36   23   25 1
    37   23   26 1
@<TRIPOS>MOLECULE
ZINC04016526
   34    37     0     0     0
SMALL
USER_CHARGES

@<TRIPOS>ATOM
      1 C1          0.8267    1.3832    1.1439 C.ar      1 <0>        -0.1062
      2 C2          1.1694    2.0859    0.0030 C.ar      1 <0>        -0.0605
      3 C3          1.5342    1.4087   -1.1458 C.ar      1 <0>        -0.1720
      4 C4          1.5575    0.0275   -1.1572 C.ar      1 <0>        -0.0514
      5 C5          1.2145   -0.6804   -0.0136 C.ar      1 <0>         0.1113
      6 C6          0.8485    0.0024    1.1387 C.ar      1 <0>        -0.0670
      7 N1          1.2368   -2.0822   -0.0222 N.am      1 <0>        -0.5291
      8 C7          2.3686   -2.7870   -0.1304 C.2       1 <0>         0.5353
      9 O1          3.4804   -2.3144   -0.2318 O.2       1 <0>        -0.4626
     10 C8          2.0468   -4.2637   -0.1060 C.3       1 <0>        -0.1233
     11 H1          2.4118   -4.7993   -0.9824 H         1 <0>         0.1432
     12 C9          2.5678   -4.8562    1.2410 C.3       1 <0>        -0.0575
     13 H2          3.6029   -5.1975    1.2490 H         1 <0>         0.1210
     14 C10         1.4663   -5.9426    1.5207 C.3       1 <0>        -0.1131
     15 C11         0.2941   -4.8956    1.4839 C.3       1 <0>        -0.0542
     16 H3         -0.7017   -5.2695    1.7221 H         1 <0>         0.1220
     17 C12         0.4962   -4.2894    0.0371 C.3       1 <0>        -0.1221
     18 H4         -0.0044   -4.8500   -0.7524 H         1 <0>         0.1461
     19 C13         0.1283   -2.8238    0.0829 C.2       1 <0>         0.5374
     20 O2         -0.9973   -2.3880    0.1954 O.2       1 <0>        -0.4634
     21 C14         0.8638   -3.8309    2.4291 C.2       1 <0>        -0.1753
     22 C15         2.1938   -3.7978    2.2858 C.2       1 <0>        -0.1718
     23 C16         1.9064    2.1781   -2.3870 C.3       1 <0>         0.5110
     24 F1          1.8076    3.5502   -2.1323 F         1 <0>        -0.1732
     25 F2          3.2198    1.8652   -2.7533 F         1 <0>        -0.1725
     26 F3          1.0373    1.8332   -3.4276 F         1 <0>        -0.1738
     27 H5          0.5461    1.9149    2.0411 H         1 <0>         0.1472
     28 H6          1.1516    3.1657    0.0095 H         1 <0>         0.1480
     29 H7          1.8419   -0.5009   -2.0551 H         1 <0>         0.1376
     30 H8          0.5812   -0.5458    2.0300 H         1 <0>         0.1360
     31 H9          1.3937   -6.6791    0.7204 H         1 <0>         0.0893
     32 H10         1.5790   -6.4091    2.4994 H         1 <0>         0.0909
     33 H11         0.2889   -3.2056    3.0961 H         1 <0>         0.1342
     34 H12         2.8863   -3.1570    2.8114 H         1 <0>         0.1385
@<TRIPOS>BOND
     1    1    6 ar
     2    1    2 ar
     3    1   27 1
     4    2    3 ar
     5    2   28 1
     6    3    4 ar
     7    3   23 1
     8    4    5 ar
     9    4   29 1
    10    5    6 ar
    11    5    7 1
    12    6   30 1
    13    7   19 am
    14    7    8 am
    15    8    9 2
    16    8   10 1
    17   10   11 1
    18   10   17 1
    19   10   12 1
    20   12   13 1
    21   12   22 1
    22   12   14 1
    23   14   15 1
    24   14   31 1
    25   14   32 1
    26   15   16 1
    27   15   17 1
    28   15   21 1
    29   17   18 1
    30   17   19 1
    31   19   20 2
    32   21   22 2
    33   21   33 1
    34   22   34 1
    35   23   24 1
    36   23   25 1
    37   23   26 1
@<TRIPOS>MOLECULE
ZINC00100752
   31    34     0     0     0
SMALL
USER_CHARGES

@<TRIPOS>ATOM
      1 C1          0.6361    1.3805    1.0673 C.ar      1 <0>        -0.0877
      2 C2          1.1766    2.0875    0.0020 C.ar      1 <0>         0.1355
      3 C3          1.7329    1.4043   -1.0706 C.ar      1 <0>        -0.0880
      4 C4          1.7476    0.0220   -1.0757 C.ar      1 <0>        -0.0132
      5 C5          1.2078   -0.6807   -0.0129 C.ar      1 <0>        -0.0901
      6 C6          0.6530   -0.0019    1.0578 C.ar      1 <0>        -0.0132
      7 Cl1        -0.0227   -0.8868    2.3897 Cl        1 <0>        -0.0396
      8 Cl2         2.4432   -0.8331   -2.4169 Cl        1 <0>        -0.0397
      9 N1          1.1601    3.4894    0.0093 N.am      1 <0>        -0.5311
     10 C7          0.0293    4.1998   -0.0690 C.2       1 <0>         0.5327
     11 O1         -1.0862    3.7328   -0.1541 O.2       1 <0>        -0.4586
     12 C8          0.3575    5.6751   -0.0347 C.3       1 <0>        -0.1194
     13 H1         -0.1436    6.2099    0.7721 H         1 <0>         0.1424
     14 C9          0.0671    6.2743   -1.4466 C.3       1 <0>        -0.0592
     15 H2         -0.9322    6.1026   -1.8467 H         1 <0>         0.1193
     16 C10         1.2662    5.6713   -2.2654 C.3       1 <0>        -0.1358
     17 C11         2.3502    6.2987   -1.3151 C.3       1 <0>        -0.0557
     18 H3          3.3918    6.1605   -1.6048 H         1 <0>         0.1204
     19 C12         1.9108    5.6926    0.0782 C.3       1 <0>        -0.1185
     20 H4          2.2781    6.2500    0.9398 H         1 <0>         0.1445
     21 C13         2.2735    4.2252    0.1006 C.2       1 <0>         0.5336
     22 O2          3.3993    3.7837    0.1855 O.2       1 <0>        -0.4582
     23 C14         1.8464    7.7461   -1.2624 C.2       1 <0>        -0.1568
     24 C15         0.5100    7.7378   -1.3313 C.2       1 <0>        -0.1562
     25 H5          0.2067    1.9099    1.9050 H         1 <0>         0.1452
     26 H6          2.1537    1.9523   -1.9007 H         1 <0>         0.1445
     27 H7          1.2195   -1.7606   -0.0189 H         1 <0>         0.1541
     28 H8          1.2769    4.5815   -2.2488 H         1 <0>         0.0699
     29 H9          1.3204    6.0674   -3.2794 H         1 <0>         0.0969
     30 H10         2.4647    8.6275   -1.1772 H         1 <0>         0.1390
     31 H11        -0.1446    8.5968   -1.3203 H         1 <0>         0.1429
@<TRIPOS>BOND
     1    1    6 ar
     2    1    2 ar
     3    1   25 1
     4    2    3 ar
     5    2    9 1
     6    3    4 ar
     7    3   26 1
     8    4    5 ar
     9    4    8 1
    10    5    6 ar
    11    5   27 1
    12    6    7 1
    13    9   21 am
    14    9   10 am
    15   10   11 2
    16   10   12 1
    17   12   13 1
    18   12   19 1
    19   12   14 1
    20   14   15 1
    21   14   24 1
    22   14   16 1
    23   16   17 1
    24   16   28 1
    25   16   29 1
    26   17   18 1
    27   17   19 1
    28   17   23 1
    29   19   20 1
    30   19   21 1
    31   21   22 2
    32   23   24 2
    33   23   30 1
    34   24   31 1
@<TRIPOS>MOLECULE
ZINC04377527
   31    34     0     0     0
SMALL
USER_CHARGES

@<TRIPOS>ATOM
      1 C1          1.5612    1.3909    1.1395 C.ar      1 <0>        -0.0871
      2 C2          1.1766    2.0875    0.0020 C.ar      1 <0>         0.1387
      3 C3          0.8078    1.3939   -1.1424 C.ar      1 <0>        -0.0886
      4 C4          0.8243    0.0115   -1.1470 C.ar      1 <0>        -0.0132
      5 C5          1.2077   -0.6807   -0.0118 C.ar      1 <0>        -0.0910
      6 C6          1.5762    0.0086    1.1301 C.ar      1 <0>        -0.0138
      7 Cl1         2.0571   -0.8632    2.5522 Cl        1 <0>        -0.0407
      8 Cl2         0.3633   -0.8567   -2.5779 Cl        1 <0>        -0.0402
      9 N1          1.1601    3.4894    0.0093 N.am      1 <0>        -0.5287
     10 C7          0.0293    4.1998   -0.0690 C.2       1 <0>         0.5363
     11 O1         -1.0862    3.7329   -0.1536 O.2       1 <0>        -0.4614
     12 C8          0.3578    5.6749   -0.0346 C.3       1 <0>        -0.1226
     13 H1         -0.0221    6.2216   -0.8977 H         1 <0>         0.1439
     14 C9         -0.1341    6.2544    1.3288 C.3       1 <0>        -0.0575
     15 H2         -1.1674    6.5998    1.3609 H         1 <0>         0.1213
     16 C10         0.9772    7.3333    1.5986 C.3       1 <0>        -0.1129
     17 C11         2.1441    6.2821    1.5273 C.3       1 <0>        -0.0542
     18 H3          3.1459    6.6493    1.7500 H         1 <0>         0.1224
     19 C12         1.9110    5.6927    0.0782 C.3       1 <0>        -0.1214
     20 H4          2.3984    6.2600   -0.7147 H         1 <0>         0.1468
     21 C13         2.2735    4.2253    0.1006 C.2       1 <0>         0.5370
     22 O2          3.3993    3.7837    0.1861 O.2       1 <0>        -0.4612
     23 C14         1.5885    5.2093    2.4718 C.2       1 <0>        -0.1754
     24 C15         0.2558    5.1831    2.3543 C.2       1 <0>        -0.1725
     25 H5          1.8528    1.9285    2.0296 H         1 <0>         0.1435
     26 H6          0.5078    1.9337   -2.0284 H         1 <0>         0.1448
     27 H7          1.2194   -1.7606   -0.0170 H         1 <0>         0.1537
     28 H8          1.0373    8.0783    0.8052 H         1 <0>         0.0895
     29 H9          0.8858    7.7894    2.5844 H         1 <0>         0.0911
     30 H10         2.1738    4.5743    3.1204 H         1 <0>         0.1345
     31 H11        -0.4289    4.5393    2.8864 H         1 <0>         0.1388
@<TRIPOS>BOND
     1    1    6 ar
     2    1    2 ar
     3    1   25 1
     4    2    3 ar
     5    2    9 1
     6    3    4 ar
     7    3   26 1
     8    4    5 ar
     9    4    8 1
    10    5    6 ar
    11    5   27 1
    12    6    7 1
    13    9   21 am
    14    9   10 am
    15   10   11 2
    16   10   12 1
    17   12   13 1
    18   12   19 1
    19   12   14 1
    20   14   15 1
    21   14   24 1
    22   14   16 1
    23   16   17 1
    24   16   28 1
    25   16   29 1
    26   17   18 1
    27   17   19 1
    28   17   23 1
    29   19   20 1
    30   19   21 1
    31   21   22 2
    32   23   24 2
    33   23   30 1
    34   24   31 1
@<TRIPOS>MOLECULE
ZINC00100760
   31    34     0     0     0
SMALL
USER_CHARGES
(3-chloro-4-fluoro-phenyl)BLAHdione
@<TRIPOS>ATOM
      1 C1          2.8738    2.0086    4.1860 C.ar      1 <0>        -0.0675
      2 C2          3.6037    1.8034    5.3409 C.ar      1 <0>        -0.1281
      3 C3          2.9533    1.5485    6.5359 C.ar      1 <0>         0.1238
      4 C4          1.5687    1.4981    6.5761 C.ar      1 <0>        -0.0649
      5 C5          0.8356    1.7086    5.4237 C.ar      1 <0>        -0.0647
      6 C6          1.4873    1.9591    4.2238 C.ar      1 <0>         0.1148
      7 N1          0.7450    2.1678    3.0519 N.am      1 <0>        -0.5422
      8 C7          0.0226    1.2028    2.4719 C.2       1 <0>         0.5359
      9 O1         -0.0765    0.0640    2.8756 O.2       1 <0>        -0.4635
     10 C8         -0.6509    1.7520    1.2350 C.3       1 <0>        -0.1198
     11 H1         -1.7349    1.6385    1.2335 H         1 <0>         0.1421
     12 C9          0.0376    1.1235   -0.0172 C.3       1 <0>        -0.0598
     13 H2          0.0866    0.0350   -0.0446 H         1 <0>         0.1192
     14 C10         1.4105    1.8896   -0.0041 C.3       1 <0>        -0.1370
     15 C11         0.7270    3.3029   -0.0891 C.3       1 <0>        -0.0594
     16 H3          1.3924    4.1627   -0.1671 H         1 <0>         0.1206
     17 C12        -0.1893    3.2517    1.1737 C.3       1 <0>        -0.1135
     18 H4         -1.0107    3.9675    1.1398 H         1 <0>         0.1450
     19 C13         0.6855    3.3783    2.4000 C.2       1 <0>         0.5358
     20 O2          1.2633    4.3861    2.7465 O.2       1 <0>        -0.4513
     21 C14        -0.2334    3.0596   -1.2595 C.2       1 <0>        -0.1548
     22 C15        -0.6306    1.8036   -1.2182 C.2       1 <0>        -0.1536
     23 Cl1         0.7551    1.1783    8.0759 Cl        1 <0>        -0.0332
     24 F1          3.6689    1.3481    7.6642 F         1 <0>        -0.1182
     25 H5          3.3820    2.2071    3.2539 H         1 <0>         0.1440
     26 H6          4.6826    1.8416    5.3112 H         1 <0>         0.1575
     27 H7         -0.2434    1.6738    5.4557 H         1 <0>         0.1478
     28 H8          1.9596    1.7466    0.9266 H         1 <0>         0.0704
     29 H9          2.0215    1.6664   -0.8787 H         1 <0>         0.0959
     30 H10        -0.5339    3.7932   -1.9929 H         1 <0>         0.1393
     31 H11        -1.3113    1.3333   -1.9123 H         1 <0>         0.1394
@<TRIPOS>BOND
     1    1    6 ar
     2    1    2 ar
     3    1   25 1
     4    2    3 ar
     5    2   26 1
     6    3    4 ar
     7    3   24 1
     8    4    5 ar
     9    4   23 1
    10    5    6 ar
    11    5   27 1
    12    6    7 1
    13    7   19 am
    14    7    8 am
    15    8    9 2
    16    8   10 1
    17   10   11 1
    18   10   17 1
    19   10   12 1
    20   12   13 1
    21   12   22 1
    22   12   14 1
    23   14   15 1
    24   14   28 1
    25   14   29 1
    26   15   16 1
    27   15   17 1
    28   15   21 1
    29   17   18 1
    30   17   19 1
    31   19   20 2
    32   21   22 2
    33   21   30 1
    34   22   31 1
@<TRIPOS>MOLECULE
ZINC03913055
   31    34     0     0     0
SMALL
USER_CHARGES

@<TRIPOS>ATOM
      1 C1          0.4222    0.6599    1.1461 C.ar      1 <0>        -0.0660
      2 C2          1.6088    1.3673    1.1374 C.ar      1 <0>        -0.1283
      3 C3          2.3793    1.4144   -0.0116 C.ar      1 <0>         0.1238
      4 C4          1.9619    0.7521   -1.1554 C.ar      1 <0>        -0.0656
      5 C5          0.7754    0.0437   -1.1499 C.ar      1 <0>        -0.0630
      6 C6          0.0021   -0.0041    0.0020 C.ar      1 <0>         0.1128
      7 N1         -1.2027   -0.7227    0.0097 N.am      1 <0>        -0.5280
      8 C7         -2.3974   -0.1304    0.1166 C.2       1 <0>         0.5367
      9 O1         -2.5801    1.0637    0.2175 O.2       1 <0>        -0.4629
     10 C8         -3.4843   -1.1807    0.0914 C.3       1 <0>        -0.1228
     11 H1         -4.1326   -1.1516    0.9672 H         1 <0>         0.1435
     12 C9         -4.2608   -1.0494   -1.2564 C.3       1 <0>        -0.0575
     13 H2         -5.0954   -0.3484   -1.2653 H         1 <0>         0.1211
     14 C10        -4.6056   -2.5576   -1.5360 C.3       1 <0>        -0.1131
     15 C11        -3.0986   -3.0042   -1.4976 C.3       1 <0>        -0.0544
     16 H3         -2.8928   -4.0479   -1.7354 H         1 <0>         0.1222
     17 C12        -2.6906   -2.5131   -0.0506 C.3       1 <0>        -0.1216
     18 H4         -2.9050   -3.2335    0.7388 H         1 <0>         0.1464
     19 C13        -1.2505   -2.0555   -0.0951 C.2       1 <0>         0.5365
     20 O2         -0.2878   -2.7838   -0.2065 O.2       1 <0>        -0.4620
     21 C14        -2.4916   -1.9600   -2.4425 C.2       1 <0>        -0.1755
     22 C15        -3.1630   -0.8112   -2.3002 C.2       1 <0>        -0.1726
     23 Cl1         2.9295    0.8130   -2.5954 Cl        1 <0>        -0.0338
     24 F1          3.5393    2.1071   -0.0183 F         1 <0>        -0.1183
     25 H5         -0.1762    0.6199    2.0443 H         1 <0>         0.1449
     26 H6          1.9354    1.8842    2.0276 H         1 <0>         0.1577
     27 H7          0.4498   -0.4722   -2.0411 H         1 <0>         0.1462
     28 H8         -5.1945   -3.0065   -0.7362 H         1 <0>         0.0893
     29 H9         -5.0606   -2.7074   -2.5151 H         1 <0>         0.0909
     30 H10        -1.6568   -2.1204   -3.1087 H         1 <0>         0.1344
     31 H11        -2.9815    0.1146   -2.8259 H         1 <0>         0.1387
@<TRIPOS>BOND
     1    1    6 ar
     2    1    2 ar
     3    1   25 1
     4    2    3 ar
     5    2   26 1
     6    3    4 ar
     7    3   24 1
     8    4    5 ar
     9    4   23 1
    10    5    6 ar
    11    5   27 1
    12    6    7 1
    13    7   19 am
    14    7    8 am
    15    8    9 2
    16    8   10 1
    17   10   11 1
    18   10   17 1
    19   10   12 1
    20   12   13 1
    21   12   22 1
    22   12   14 1
    23   14   15 1
    24   14   28 1
    25   14   29 1
    26   15   16 1
    27   15   17 1
    28   15   21 1
    29   17   18 1
    30   17   19 1
    31   19   20 2
    32   21   22 2
    33   21   30 1
    34   22   31 1
@<TRIPOS>MOLECULE
ZINC04762943
   39    43     0     0     0
SMALL
USER_CHARGES

@<TRIPOS>ATOM
      1 C1          0.0219    1.2850   -0.7867 C.ar      1 <0>        -0.0952
      2 C2          1.2071    2.0180   -0.7973 C.ar      1 <0>        -0.0853
      3 C3          2.4043    1.4175   -0.5558 C.ar      1 <0>        -0.1145
      4 C4          2.4496    0.0376   -0.2908 C.ar      1 <0>        -0.0080
      5 C5          1.2440   -0.7065   -0.2798 C.ar      1 <0>        -0.0380
      6 C6          0.0279   -0.0527   -0.5339 C.ar      1 <0>        -0.0987
      7 C7          1.2891   -2.0911   -0.0140 C.ar      1 <0>         0.1792
      8 C8          2.5035   -2.6940    0.2298 C.ar      1 <0>        -0.1016
      9 C9          3.6815   -1.9530    0.2165 C.ar      1 <0>        -0.0282
     10 C10         3.6676   -0.6153   -0.0367 C.ar      1 <0>        -0.0219
     11 N1          4.9345    0.1504   -0.0453 N.pl3     1 <0>         0.0302
     12 O1          5.9381   -0.3465   -0.5008 O.2       1 <0>        -0.1419
     13 O2          4.9656    1.2727    0.4033 O.3       1 <0>        -0.1450
     14 N2          0.1107   -2.8453    0.0022 N.am      1 <0>        -0.5359
     15 C11        -0.3779   -3.4472   -1.0879 C.2       1 <0>         0.5365
     16 O3          0.1248   -3.4138   -2.1906 O.2       1 <0>        -0.4589
     17 C12        -1.6534   -4.1762   -0.7320 C.3       1 <0>        -0.1220
     18 H1         -2.5091   -3.8663   -1.3318 H         1 <0>         0.1449
     19 C13        -1.3753   -5.7108   -0.7994 C.3       1 <0>        -0.0573
     20 H2         -1.5113   -6.1829   -1.7724 H         1 <0>         0.1221
     21 C14        -2.3001   -6.2205    0.3655 C.3       1 <0>        -0.1127
     22 C15        -1.6049   -5.3073    1.4400 C.3       1 <0>        -0.0543
     23 H3         -1.9368   -5.4282    2.4712 H         1 <0>         0.1231
     24 C16        -1.8206   -3.8824    0.7883 C.3       1 <0>        -0.1210
     25 H4         -2.7751   -3.4199    1.0397 H         1 <0>         0.1480
     26 C17        -0.6160   -3.0279    1.1105 C.2       1 <0>         0.5371
     27 O4         -0.3506   -2.5762    2.2038 O.2       1 <0>        -0.4587
     28 C18        -0.1353   -5.6406    1.1560 C.2       1 <0>        -0.1744
     29 C19         0.0068   -5.8703   -0.1546 C.2       1 <0>        -0.1745
     30 H5         -0.9155    1.7863   -0.9774 H         1 <0>         0.1381
     31 H6          1.1751    3.0782   -1.0005 H         1 <0>         0.1407
     32 H7          3.3149    1.9980   -0.5679 H         1 <0>         0.1522
     33 H8         -0.8983   -0.6082   -0.5285 H         1 <0>         0.1280
     34 H9          2.5418   -3.7538    0.4341 H         1 <0>         0.1513
     35 H10         4.6221   -2.4471    0.4105 H         1 <0>         0.1599
     36 H11        -3.3474   -5.9607    0.2112 H         1 <0>         0.0900
     37 H12        -2.1662   -7.2827    0.5706 H         1 <0>         0.0920
     38 H13         0.6569   -5.6782    1.8891 H         1 <0>         0.1352
     39 H14         0.9185   -6.1315   -0.6714 H         1 <0>         0.1394
@<TRIPOS>BOND
     1    1    6 ar
     2    1    2 ar
     3    1   30 1
     4    2    3 ar
     5    2   31 1
     6    3    4 ar
     7    3   32 1
     8    4   10 ar
     9    4    5 ar
    10    5    6 ar
    11    5    7 ar
    12    6   33 1
    13    7    8 ar
    14    7   14 1
    15    8    9 ar
    16    8   34 1
    17    9   10 ar
    18    9   35 1
    19   10   11 1
    20   11   12 2
    21   11   13 1
    22   14   26 am
    23   14   15 am
    24   15   16 2
    25   15   17 1
    26   17   18 1
    27   17   24 1
    28   17   19 1
    29   19   20 1
    30   19   29 1
    31   19   21 1
    32   21   22 1
    33   21   36 1
    34   21   37 1
    35   22   23 1
    36   22   24 1
    37   22   28 1
    38   24   25 1
    39   24   26 1
    40   26   27 2
    41   28   29 2
    42   28   38 1
    43   29   39 1
@<TRIPOS>MOLECULE
ZINC13511011
   39    43     0     0     0
SMALL
USER_CHARGES

@<TRIPOS>ATOM
      1 C1          3.8740   -4.7160   -0.1942 C.ar      1 <0>        -0.0946
      2 C2          5.0353   -3.9457   -0.2004 C.ar      1 <0>        -0.0851
      3 C3          4.9750   -2.5870   -0.1488 C.ar      1 <0>        -0.1142
      4 C4          3.7243   -1.9480   -0.0889 C.ar      1 <0>        -0.0081
      5 C5          2.5442   -2.7321   -0.0832 C.ar      1 <0>        -0.0373
      6 C6          2.6459   -4.1313   -0.1369 C.ar      1 <0>        -0.0992
      7 C7          1.2891   -2.0913   -0.0231 C.ar      1 <0>         0.1755
      8 C8          1.2335   -0.7157    0.0289 C.ar      1 <0>        -0.1011
      9 C9          2.3994    0.0445    0.0227 C.ar      1 <0>        -0.0281
     10 C10         3.6241   -0.5475   -0.0352 C.ar      1 <0>        -0.0208
     11 N1          4.8492    0.2836   -0.0405 N.pl3     1 <0>         0.0299
     12 O1          4.9043    1.2834    0.6370 O.2       1 <0>        -0.1412
     13 O2          5.7946   -0.0375   -0.7223 O.3       1 <0>        -0.1448
     14 N2          0.1109   -2.8459   -0.0167 N.am      1 <0>        -0.5384
     15 C11        -0.5289   -3.1974   -1.1378 C.2       1 <0>         0.5327
     16 O3         -0.1776   -2.9129   -2.2626 O.2       1 <0>        -0.4561
     17 C12        -1.7577   -4.0042   -0.7850 C.3       1 <0>        -0.1189
     18 H1         -1.7770   -4.9881   -1.2536 H         1 <0>         0.1434
     19 C13        -3.0186   -3.1420   -1.1069 C.3       1 <0>        -0.0592
     20 H2         -3.0856   -2.7457   -2.1200 H         1 <0>         0.1198
     21 C14        -2.9496   -2.0883    0.0579 C.3       1 <0>        -0.1358
     22 C15        -2.9736   -3.1901    1.1792 C.3       1 <0>        -0.0555
     23 H3         -3.0138   -2.8369    2.2096 H         1 <0>         0.1210
     24 C16        -1.7153   -4.0571    0.7710 C.3       1 <0>        -0.1181
     25 H4         -1.7261   -5.0705    1.1723 H         1 <0>         0.1456
     26 C17        -0.4642   -3.2795    1.1105 C.2       1 <0>         0.5337
     27 O4         -0.0481   -3.0776    2.2311 O.2       1 <0>        -0.4557
     28 C18        -4.1673   -4.0253    0.7005 C.2       1 <0>        -0.1564
     29 C19        -4.1944   -4.0072   -0.6373 C.2       1 <0>        -0.1558
     30 H5          3.9493   -5.7924   -0.2400 H         1 <0>         0.1382
     31 H6          5.9974   -4.4341   -0.2464 H         1 <0>         0.1409
     32 H7          5.8833   -2.0028   -0.1536 H         1 <0>         0.1524
     33 H8          1.7543   -4.7407   -0.1332 H         1 <0>         0.1280
     34 H9          0.2743   -0.2216    0.0746 H         1 <0>         0.1525
     35 H10         2.3314    1.1216    0.0641 H         1 <0>         0.1607
     36 H11        -2.0200   -1.5192    0.0516 H         1 <0>         0.0690
     37 H12        -3.8268   -1.4420    0.0888 H         1 <0>         0.0979
     38 H13        -4.8676   -4.5479    1.3352 H         1 <0>         0.1396
     39 H14        -4.9129   -4.4976   -1.2773 H         1 <0>         0.1435
@<TRIPOS>BOND
     1    1    6 ar
     2    1    2 ar
     3    1   30 1
     4    2    3 ar
     5    2   31 1
     6    3    4 ar
     7    3   32 1
     8    4   10 ar
     9    4    5 ar
    10    5    6 ar
    11    5    7 ar
    12    6   33 1
    13    7    8 ar
    14    7   14 1
    15    8    9 ar
    16    8   34 1
    17    9   10 ar
    18    9   35 1
    19   10   11 1
    20   11   12 2
    21   11   13 1
    22   14   26 am
    23   14   15 am
    24   15   16 2
    25   15   17 1
    26   17   18 1
    27   17   24 1
    28   17   19 1
    29   19   20 1
    30   19   29 1
    31   19   21 1
    32   21   22 1
    33   21   36 1
    34   21   37 1
    35   22   23 1
    36   22   24 1
    37   22   28 1
    38   24   25 1
    39   24   26 1
    40   26   27 2
    41   28   29 2
    42   28   38 1
    43   29   39 1
@<TRIPOS>MOLECULE
ZINC00186825
   37    41     0     0     0
SMALL
USER_CHARGES
2-naphthylBLAHdione
@<TRIPOS>ATOM
      1 C1          3.1793    2.2192   -8.8681 C.ar      1 <0>        -0.1096
      2 C2          2.1259    3.1308   -8.8283 C.ar      1 <0>        -0.1122
      3 C3          1.4138    3.3290   -7.6856 C.ar      1 <0>        -0.1016
      4 C4          1.7437    2.6057   -6.5261 C.ar      1 <0>        -0.0446
      5 C5          1.0277    2.7805   -5.3307 C.ar      1 <0>        -0.0804
      6 C6          1.3792    2.0631   -4.2219 C.ar      1 <0>         0.1122
      7 C7          2.4369    1.1479   -4.2651 C.ar      1 <0>        -0.1035
      8 C8          3.1458    0.9529   -5.4087 C.ar      1 <0>        -0.0888
      9 C9          2.8150    1.6783   -6.5669 C.ar      1 <0>        -0.0457
     10 C10         3.5266    1.5007   -7.7654 C.ar      1 <0>        -0.1055
     11 N1          0.6676    2.2421   -3.0278 N.am      1 <0>        -0.5305
     12 C11         0.7094    3.3793   -2.3245 C.2       1 <0>         0.5310
     13 O1          1.3487    4.3647   -2.6244 O.2       1 <0>        -0.4633
     14 C12        -0.1633    3.2452   -1.0975 C.3       1 <0>        -0.1196
     15 H1         -0.9264    4.0201   -1.0240 H         1 <0>         0.1416
     16 C13         0.7634    3.1701    0.1565 C.3       1 <0>        -0.0591
     17 H2          1.4849    3.9790    0.2716 H         1 <0>         0.1196
     18 C14         1.3509    1.7211   -0.0077 C.3       1 <0>        -0.1370
     19 C15        -0.0697    1.0476   -0.0202 C.3       1 <0>        -0.0568
     20 H3         -0.0930   -0.0418   -0.0490 H         1 <0>         0.1186
     21 C16        -0.7225    1.7840   -1.2320 C.3       1 <0>        -0.1239
     22 H4         -1.8117    1.7414   -1.2266 H         1 <0>         0.1412
     23 C17        -0.1087    1.2897   -2.4987 C.2       1 <0>         0.5374
     24 O2         -0.2863    0.1881   -2.9726 O.2       1 <0>        -0.4631
     25 C18        -0.6834    1.7073    1.2206 C.2       1 <0>        -0.1549
     26 C19        -0.2032    2.9304    1.3226 C.2       1 <0>        -0.1538
     27 H5          3.7282    2.0805   -9.7878 H         1 <0>         0.1269
     28 H6          1.8706    3.6880   -9.7176 H         1 <0>         0.1271
     29 H7          0.5995    4.0383   -7.6696 H         1 <0>         0.1294
     30 H8          0.2067    3.4808   -5.2868 H         1 <0>         0.1308
     31 H9          2.6939    0.5889   -3.3775 H         1 <0>         0.1262
     32 H10         3.9597    0.2432   -5.4276 H         1 <0>         0.1377
     33 H11         4.3448    0.7973   -7.8116 H         1 <0>         0.1311
     34 H12         1.9509    1.4143    0.8490 H         1 <0>         0.0951
     35 H13         1.8838    1.5892   -0.9494 H         1 <0>         0.0705
     36 H14        -1.3896    1.2477    1.8962 H         1 <0>         0.1390
     37 H15        -0.4489    3.6430    2.0961 H         1 <0>         0.1388
@<TRIPOS>BOND
     1    1   10 ar
     2    1    2 ar
     3    1   27 1
     4    2    3 ar
     5    2   28 1
     6    3    4 ar
     7    3   29 1
     8    4    9 ar
     9    4    5 ar
    10    5    6 ar
    11    5   30 1
    12    6    7 ar
    13    6   11 1
    14    7    8 ar
    15    7   31 1
    16    8    9 ar
    17    8   32 1
    18    9   10 ar
    19   10   33 1
    20   11   23 am
    21   11   12 am
    22   12   13 2
    23   12   14 1
    24   14   15 1
    25   14   21 1
    26   14   16 1
    27   16   17 1
    28   16   26 1
    29   16   18 1
    30   18   19 1
    31   18   34 1
    32   18   35 1
    33   19   20 1
    34   19   21 1
    35   19   25 1
    36   21   22 1
    37   21   23 1
    38   23   24 2
    39   25   26 2
    40   25   36 1
    41   26   37 1
@<TRIPOS>MOLECULE
ZINC04178068
   37    41     0     0     0
SMALL
USER_CHARGES

@<TRIPOS>ATOM
      1 C1         -0.7223    0.0473    1.0985 C.ar      1 <0>        -0.1102
      2 C2         -0.2880   -0.6111    2.2475 C.ar      1 <0>        -0.1123
      3 C3          0.8994   -1.2758    2.2675 C.ar      1 <0>        -0.1021
      4 C4          1.7022   -1.3007    1.1137 C.ar      1 <0>        -0.0445
      5 C5          2.9329   -1.9769    1.0975 C.ar      1 <0>        -0.0803
      6 C6          3.6867   -1.9802   -0.0425 C.ar      1 <0>         0.1156
      7 C7          3.2481   -1.3181   -1.1946 C.ar      1 <0>        -0.1040
      8 C8          2.0616   -0.6544   -1.2100 C.ar      1 <0>        -0.0894
      9 C9          1.2603   -0.6310   -0.0549 C.ar      1 <0>        -0.0463
     10 C10         0.0284    0.0446   -0.0369 C.ar      1 <0>        -0.1052
     11 N1          4.9151   -2.6549   -0.0576 N.am      1 <0>        -0.5280
     12 C11         6.0880   -2.0196   -0.1581 C.2       1 <0>         0.5360
     13 O1          6.2283   -0.8187   -0.2460 O.2       1 <0>        -0.4656
     14 C12         7.2115   -3.0309   -0.1440 C.3       1 <0>        -0.1242
     15 H1          7.8582   -2.9695   -1.0193 H         1 <0>         0.1416
     16 C13         7.9832   -2.8867    1.2053 C.3       1 <0>        -0.0574
     17 H2          8.7925   -2.1567    1.2219 H         1 <0>         0.1203
     18 C14         8.3812   -4.3847    1.4687 C.3       1 <0>        -0.1131
     19 C15         6.8910   -4.8839    1.4254 C.3       1 <0>        -0.0542
     20 H3          6.7224   -5.9367    1.6519 H         1 <0>         0.1212
     21 C16         6.4655   -4.3921   -0.0164 C.3       1 <0>        -0.1229
     22 H4          6.7051   -5.0960   -0.8134 H         1 <0>         0.1445
     23 C17         5.0102   -3.9863    0.0329 C.2       1 <0>         0.5362
     24 O2          4.0739   -4.7494    0.1362 O.2       1 <0>        -0.4658
     25 C18         6.2476   -3.8721    2.3813 C.2       1 <0>        -0.1749
     26 C19         6.8778   -2.6988    2.2514 C.2       1 <0>        -0.1715
     27 H5         -1.6708    0.5636    1.1077 H         1 <0>         0.1267
     28 H6         -0.9026   -0.5932    3.1354 H         1 <0>         0.1268
     29 H7          1.2235   -1.7813    3.1653 H         1 <0>         0.1286
     30 H8          3.2818   -2.4911    1.9808 H         1 <0>         0.1292
     31 H9          3.8607   -1.3343   -2.0839 H         1 <0>         0.1266
     32 H10         1.7358   -0.1472   -2.1061 H         1 <0>         0.1375
     33 H11        -0.3214    0.5590   -0.9198 H         1 <0>         0.1309
     34 H12         8.9856   -4.8038    0.6642 H         1 <0>         0.0888
     35 H13         8.8415   -4.5287    2.4462 H         1 <0>         0.0902
     36 H14         5.4192   -4.0691    3.0456 H         1 <0>         0.1334
     37 H15         6.6638   -1.7857    2.7870 H         1 <0>         0.1379
@<TRIPOS>BOND
     1    1   10 ar
     2    1    2 ar
     3    1   27 1
     4    2    3 ar
     5    2   28 1
     6    3    4 ar
     7    3   29 1
     8    4    9 ar
     9    4    5 ar
    10    5    6 ar
    11    5   30 1
    12    6    7 ar
    13    6   11 1
    14    7    8 ar
    15    7   31 1
    16    8    9 ar
    17    8   32 1
    18    9   10 ar
    19   10   33 1
    20   11   23 am
    21   11   12 am
    22   12   13 2
    23   12   14 1
    24   14   15 1
    25   14   21 1
    26   14   16 1
    27   16   17 1
    28   16   26 1
    29   16   18 1
    30   18   19 1
    31   18   34 1
    32   18   35 1
    33   19   20 1
    34   19   21 1
    35   19   25 1
    36   21   22 1
    37   21   23 1
    38   23   24 2
    39   25   26 2
    40   25   36 1
    41   26   37 1
@<TRIPOS>MOLECULE
ZINC04134896
   33    36     0     0     0
SMALL
USER_CHARGES

@<TRIPOS>ATOM
      1 C1          0.4225    0.6606    1.1460 C.ar      1 <0>        -0.1008
      2 C2          1.6088    1.3679    1.1355 C.ar      1 <0>        -0.0404
      3 C3          2.3774    1.4145   -0.0130 C.ar      1 <0>        -0.0413
      4 C4          1.9612    0.7535   -1.1541 C.ar      1 <0>        -0.0409
      5 C5          0.7759    0.0445   -1.1496 C.ar      1 <0>        -0.0998
      6 C6          0.0021   -0.0041    0.0020 C.ar      1 <0>         0.1657
      7 N1         -1.2016   -0.7229    0.0096 N.am      1 <0>        -0.5362
      8 C7         -2.3966   -0.1313    0.1166 C.2       1 <0>         0.5373
      9 O1         -2.5800    1.0628    0.2175 O.2       1 <0>        -0.4605
     10 C8         -3.4830   -1.1821    0.0914 C.3       1 <0>        -0.1219
     11 H1         -4.1313   -1.1534    0.9671 H         1 <0>         0.1453
     12 C9         -4.2596   -1.0512   -1.2564 C.3       1 <0>        -0.0578
     13 H2         -5.0946   -0.3507   -1.2654 H         1 <0>         0.1221
     14 C10        -4.6035   -2.5597   -1.5360 C.3       1 <0>        -0.1128
     15 C11        -3.0963   -3.0055   -1.4977 C.3       1 <0>        -0.0544
     16 H3         -2.8899   -4.0490   -1.7355 H         1 <0>         0.1233
     17 C12        -2.6886   -2.5142   -0.0506 C.3       1 <0>        -0.1208
     18 H4         -2.9026   -3.2347    0.7388 H         1 <0>         0.1481
     19 C13        -1.2488   -2.0557   -0.0951 C.2       1 <0>         0.5380
     20 O2         -0.2857   -2.7835   -0.2065 O.2       1 <0>        -0.4603
     21 C14        -2.4899   -1.9609   -2.4425 C.2       1 <0>        -0.1757
     22 C15        -3.1618   -0.8125   -2.3002 C.2       1 <0>        -0.1731
     23 N2          3.6480    2.1738   -0.0212 N.pl3     1 <0>         0.0313
     24 O3          4.0128    2.7525    0.9756 O.2       1 <0>        -0.1500
     25 O4          4.3210    2.2153   -1.0248 O.3       1 <0>        -0.1507
     26 H5         -0.1752    0.6208    2.0447 H         1 <0>         0.1517
     27 H6          1.9362    1.8854    2.0251 H         1 <0>         0.1645
     28 H7          2.5634    0.7919   -2.0498 H         1 <0>         0.1640
     29 H8          0.4511   -0.4713   -2.0412 H         1 <0>         0.1501
     30 H9         -5.1922   -3.0089   -0.7362 H         1 <0>         0.0902
     31 H10        -5.0585   -2.7096   -2.5151 H         1 <0>         0.0920
     32 H11        -1.6550   -2.1208   -3.1087 H         1 <0>         0.1350
     33 H12        -2.9808    0.1134   -2.8259 H         1 <0>         0.1390
@<TRIPOS>BOND
     1    1    6 ar
     2    1    2 ar
     3    1   26 1
     4    2    3 ar
     5    2   27 1
     6    3    4 ar
     7    3   23 1
     8    4    5 ar
     9    4   28 1
    10    5    6 ar
    11    5   29 1
    12    6    7 1
    13    7   19 am
    14    7    8 am
    15    8    9 2
    16    8   10 1
    17   10   11 1
    18   10   17 1
    19   10   12 1
    20   12   13 1
    21   12   22 1
    22   12   14 1
    23   14   15 1
    24   14   30 1
    25   14   31 1
    26   15   16 1
    27   15   17 1
    28   15   21 1
    29   17   18 1
    30   17   19 1
    31   19   20 2
    32   21   22 2
    33   21   32 1
    34   22   33 1
    35   23   24 2
    36   23   25 1
@<TRIPOS>MOLECULE
ZINC13476368
   33    36     0     0     0
SMALL
USER_CHARGES

@<TRIPOS>ATOM
      1 C1          0.7759    0.0445   -1.1496 C.ar      1 <0>        -0.0997
      2 C2          1.9612    0.7535   -1.1541 C.ar      1 <0>        -0.0403
      3 C3          2.3774    1.4145   -0.0130 C.ar      1 <0>        -0.0406
      4 C4          1.6088    1.3679    1.1355 C.ar      1 <0>        -0.0403
      5 C5          0.4225    0.6605    1.1460 C.ar      1 <0>        -0.1002
      6 C6          0.0021   -0.0041    0.0020 C.ar      1 <0>         0.1623
      7 N1         -1.2016   -0.7229    0.0096 N.am      1 <0>        -0.5386
      8 C7         -2.3967   -0.1313    0.1166 C.2       1 <0>         0.5337
      9 O1         -2.5799    1.0628    0.2180 O.2       1 <0>        -0.4578
     10 C8         -3.4833   -1.1820    0.0915 C.3       1 <0>        -0.1188
     11 H1         -4.2161   -1.0259   -0.7001 H         1 <0>         0.1435
     12 C9         -4.1193   -1.2628    1.5147 C.3       1 <0>        -0.0594
     13 H2         -4.4877   -0.3256    1.9319 H         1 <0>         0.1200
     14 C10        -2.9634   -1.9784    2.3044 C.3       1 <0>        -0.1359
     15 C11        -2.9495   -3.2203    1.3403 C.3       1 <0>        -0.0558
     16 H3         -2.2819   -4.0390    1.6088 H         1 <0>         0.1208
     17 C12        -2.6886   -2.5139   -0.0506 C.3       1 <0>        -0.1181
     18 H4         -2.9879   -3.1092   -0.9132 H         1 <0>         0.1460
     19 C13        -1.2487   -2.0556   -0.0951 C.2       1 <0>         0.5347
     20 O2         -0.2857   -2.7835   -0.2059 O.2       1 <0>        -0.4574
     21 C14        -4.4476   -3.5470    1.3122 C.2       1 <0>        -0.1564
     22 C15        -5.1375   -2.4043    1.4062 C.2       1 <0>        -0.1559
     23 N2          3.6485    2.1730   -0.0210 N.pl3     1 <0>         0.0310
     24 O3          4.3216    2.2142   -1.0244 O.2       1 <0>        -0.1497
     25 O4          4.0135    2.7514    0.9760 O.3       1 <0>        -0.1500
     26 H5          0.4491   -0.4678   -2.0424 H         1 <0>         0.1521
     27 H6          2.5638    0.7914   -2.0495 H         1 <0>         0.1648
     28 H7          1.9366    1.8848    2.0253 H         1 <0>         0.1647
     29 H8         -0.1772    0.6242    2.0435 H         1 <0>         0.1512
     30 H9         -2.0292   -1.4176    2.2763 H         1 <0>         0.0690
     31 H10        -3.2537   -2.2426    3.3213 H         1 <0>         0.0978
     32 H11        -4.8773   -4.5339    1.2244 H         1 <0>         0.1397
     33 H12        -6.2120   -2.2953    1.4165 H         1 <0>         0.1436
@<TRIPOS>BOND
     1    1    6 ar
     2    1    2 ar
     3    1   26 1
     4    2    3 ar
     5    2   27 1
     6    3    4 ar
     7    3   23 1
     8    4    5 ar
     9    4   28 1
    10    5    6 ar
    11    5   29 1
    12    6    7 1
    13    7   19 am
    14    7    8 am
    15    8    9 2
    16    8   10 1
    17   10   11 1
    18   10   17 1
    19   10   12 1
    20   12   13 1
    21   12   22 1
    22   12   14 1
    23   14   15 1
    24   14   30 1
    25   14   31 1
    26   15   16 1
    27   15   17 1
    28   15   21 1
    29   17   18 1
    30   17   19 1
    31   19   20 2
    32   21   22 2
    33   21   32 1
    34   22   33 1
    35   23   24 2
    36   23   25 1
@<TRIPOS>MOLECULE
ZINC04420173
   38    41     0     0     0
SMALL
USER_CHARGES
5-(2,3-dihydro-1H-perimidin-2-yl)-2-methoxy-phenol
@<TRIPOS>ATOM
      1 C1          4.7634    1.3298   -0.0358 C.3       1 <0>         0.0243
      2 O1          3.5574    2.0963   -0.0202 O.3       1 <0>        -0.3073
      3 C2          2.3864    1.4049   -0.0127 C.ar      1 <0>         0.1109
      4 C3          2.3981    0.0193   -0.0203 C.ar      1 <0>        -0.1980
      5 C4          1.2069   -0.6820   -0.0131 C.ar      1 <0>        -0.0580
      6 C5          0.0021   -0.0041    0.0020 C.ar      1 <0>        -0.1471
      7 C6         -0.0167    1.3782    0.0096 C.ar      1 <0>        -0.0770
      8 C7          1.1738    2.0873    0.0021 C.ar      1 <0>         0.0710
      9 O2          1.1571    3.4471    0.0100 O.3       1 <0>        -0.4855
     10 C8         -1.2936   -0.7736    0.0098 C.3       1 <0>         0.4351
     11 N1         -2.3204   -0.0101    0.7409 N.pl3     1 <0>        -0.7530
     12 C9         -2.2282    0.0467    2.1326 C.ar      1 <0>         0.2305
     13 C10        -2.7778    1.0795    2.8554 C.ar      1 <0>        -0.2079
     14 C11        -2.6719    1.1010    4.2448 C.ar      1 <0>        -0.0629
     15 C12        -2.0250    0.1112    4.9222 C.ar      1 <0>        -0.1655
     16 C13        -1.4467   -0.9590    4.2184 C.ar      1 <0>         0.0154
     17 C14        -1.5522   -0.9900    2.8094 C.ar      1 <0>        -0.1294
     18 C15        -0.9783   -2.0558    2.0853 C.ar      1 <0>         0.2304
     19 C16        -0.3177   -3.0542    2.7620 C.ar      1 <0>        -0.2078
     20 C17        -0.2171   -3.0156    4.1514 C.ar      1 <0>        -0.0634
     21 C18        -0.7648   -1.9984    4.8742 C.ar      1 <0>        -0.1651
     22 N2         -1.1008   -2.0640    0.6948 N.pl3     1 <0>        -0.7528
     23 H1          5.6212    2.0022   -0.0404 H         1 <0>         0.1029
     24 H2          4.8028    0.6965    0.8504 H         1 <0>         0.0564
     25 H3          4.7858    0.7060   -0.9294 H         1 <0>         0.0567
     26 H4          3.3379   -0.5127   -0.0314 H         1 <0>         0.1335
     27 H5          1.2174   -1.7620   -0.0190 H         1 <0>         0.1284
     28 H6         -0.9592    1.9054    0.0170 H         1 <0>         0.1359
     29 H7          1.1609    3.8353    0.8956 H         1 <0>         0.3873
     30 H8         -1.6239   -0.9471   -1.0144 H         1 <0>         0.1147
     31 H9         -3.0387    0.4398    0.2692 H         1 <0>         0.4097
     32 H10        -3.2948    1.8778    2.3437 H         1 <0>         0.1204
     33 H11        -3.1113    1.9193    4.7960 H         1 <0>         0.1207
     34 H12        -1.9571    0.1490    5.9994 H         1 <0>         0.1235
     35 H13         0.1256   -3.8723    2.2139 H         1 <0>         0.1199
     36 H14         0.3052   -3.8085    4.6660 H         1 <0>         0.1204
     37 H15        -0.6745   -1.9907    5.9504 H         1 <0>         0.1234
     38 H16        -1.0605   -2.8941    0.1946 H         1 <0>         0.4095
@<TRIPOS>BOND
     1    1    2 1
     2    1   23 1
     3    1   24 1
     4    1   25 1
     5    2    3 1
     6    3    8 ar
     7    3    4 ar
     8    4    5 ar
     9    4   26 1
    10    5    6 ar
    11    5   27 1
    12    6    7 ar
    13    6   10 1
    14    7    8 ar
    15    7   28 1
    16    8    9 1
    17    9   29 1
    18   10   22 1
    19   10   11 1
    20   10   30 1
    21   11   12 1
    22   11   31 1
    23   12   17 ar
    24   12   13 ar
    25   13   14 ar
    26   13   32 1
    27   14   15 ar
    28   14   33 1
    29   15   16 ar
    30   15   34 1
    31   16   21 ar
    32   16   17 ar
    33   17   18 ar
    34   18   19 ar
    35   18   22 1
    36   19   20 ar
    37   19   35 1
    38   20   21 ar
    39   20   36 1
    40   21   37 1
    41   22   38 1
@<TRIPOS>MOLECULE
ZINC00353645
   34    37     0     0     0
SMALL
USER_CHARGES
(4-bromo-3-methyl-phenyl)BLAHdione
@<TRIPOS>ATOM
      1 C1          0.8630    1.2207    7.8769 C.3       1 <0>        -0.1274
      2 C2          1.5692    1.4988    6.5750 C.ar      1 <0>        -0.0425
      3 C3          0.8359    1.7087    5.4233 C.ar      1 <0>        -0.0973
      4 C4          1.4870    1.9592    4.2233 C.ar      1 <0>         0.1333
      5 C5          2.8741    2.0086    4.1860 C.ar      1 <0>        -0.1036
      6 C6          3.6025    1.8033    5.3411 C.ar      1 <0>        -0.0731
      7 C7          2.9511    1.5486    6.5352 C.ar      1 <0>        -0.0869
      8 Br1         3.9516    1.2673    8.1149 Br        1 <0>        -0.0354
      9 N1          0.7450    2.1678    3.0519 N.am      1 <0>        -0.5437
     10 C8          0.0226    1.2028    2.4719 C.2       1 <0>         0.5362
     11 O1         -0.0765    0.0640    2.8756 O.2       1 <0>        -0.4656
     12 C9         -0.6509    1.7520    1.2350 C.3       1 <0>        -0.1202
     13 H1         -1.7349    1.6385    1.2335 H         1 <0>         0.1412
     14 C10         0.0376    1.1235   -0.0172 C.3       1 <0>        -0.0598
     15 H2          0.0866    0.0349   -0.0446 H         1 <0>         0.1187
     16 C11         1.4105    1.8896   -0.0041 C.3       1 <0>        -0.1370
     17 C12         0.7270    3.3029   -0.0891 C.3       1 <0>        -0.0594
     18 H3          1.3924    4.1627   -0.1671 H         1 <0>         0.1202
     19 C13        -0.1893    3.2517    1.1737 C.3       1 <0>        -0.1140
     20 H4         -1.0107    3.9675    1.1398 H         1 <0>         0.1440
     21 C14         0.6855    3.3783    2.4000 C.2       1 <0>         0.5353
     22 O2          1.2633    4.3861    2.7465 O.2       1 <0>        -0.4526
     23 C15        -0.2334    3.0596   -1.2595 C.2       1 <0>        -0.1547
     24 C16        -0.6307    1.8036   -1.2182 C.2       1 <0>        -0.1537
     25 H5          0.6622    2.1614    8.3896 H         1 <0>         0.0828
     26 H6         -0.0777    0.7075    7.6776 H         1 <0>         0.0757
     27 H7          1.4938    0.5919    8.5053 H         1 <0>         0.0817
     28 H8         -0.2431    1.6742    5.4557 H         1 <0>         0.1353
     29 H9          3.3829    2.2071    3.2543 H         1 <0>         0.1347
     30 H10         4.6814    1.8413    5.3126 H         1 <0>         0.1434
     31 H11         1.9596    1.7466    0.9266 H         1 <0>         0.0705
     32 H12         2.0215    1.6664   -0.8787 H         1 <0>         0.0955
     33 H13        -0.5339    3.7932   -1.9929 H         1 <0>         0.1392
     34 H14        -1.3113    1.3332   -1.9123 H         1 <0>         0.1393
@<TRIPOS>BOND
     1    1    2 1
     2    1   25 1
     3    1   26 1
     4    1   27 1
     5    2    7 ar
     6    2    3 ar
     7    3    4 ar
     8    3   28 1
     9    4    5 ar
    10    4    9 1
    11    5    6 ar
    12    5   29 1
    13    6    7 ar
    14    6   30 1
    15    7    8 1
    16    9   21 am
    17    9   10 am
    18   10   11 2
    19   10   12 1
    20   12   13 1
    21   12   19 1
    22   12   14 1
    23   14   15 1
    24   14   24 1
    25   14   16 1
    26   16   17 1
    27   16   31 1
    28   16   32 1
    29   17   18 1
    30   17   19 1
    31   17   23 1
    32   19   20 1
    33   19   21 1
    34   21   22 2
    35   23   24 2
    36   23   33 1
    37   24   34 1
@<TRIPOS>MOLECULE
ZINC03913071
   34    37     0     0     0
SMALL
USER_CHARGES

@<TRIPOS>ATOM
      1 C1         -2.3764   -0.0410    0.8869 C.3       1 <0>        -0.1270
      2 C2         -1.1270   -0.7439    0.4221 C.ar      1 <0>        -0.0428
      3 C3         -1.1262   -1.4287   -0.7776 C.ar      1 <0>        -0.0971
      4 C4          0.0251   -2.0755   -1.2053 C.ar      1 <0>         0.1316
      5 C5          1.1732   -2.0323   -0.4258 C.ar      1 <0>        -0.1009
      6 C6          1.1672   -1.3464    0.7727 C.ar      1 <0>        -0.0738
      7 C7          0.0198   -0.6979    1.1945 C.ar      1 <0>        -0.0866
      8 Br1         0.0172    0.2465    2.8327 Br        1 <0>        -0.0356
      9 N1          0.0284   -2.7717   -2.4225 N.am      1 <0>        -0.5294
     10 C8         -0.0787   -2.1587   -3.6067 C.2       1 <0>         0.5362
     11 O1         -0.1889   -0.9622   -3.7680 O.2       1 <0>        -0.4643
     12 C9         -0.0402   -3.1886   -4.7125 C.3       1 <0>        -0.1236
     13 H1         -0.9135   -3.1550   -5.3638 H         1 <0>         0.1424
     14 C10         1.3096   -3.0319   -5.4808 C.3       1 <0>        -0.0575
     15 H2          1.3160   -2.3157   -6.3024 H         1 <0>         0.1206
     16 C11         1.6034   -4.5312   -5.8518 C.3       1 <0>        -0.1131
     17 C12         1.5626   -5.0055   -4.3534 C.3       1 <0>        -0.0542
     18 H3          1.8084   -6.0507   -4.1656 H         1 <0>         0.1217
     19 C13         0.1098   -4.5341   -3.9426 C.3       1 <0>        -0.1224
     20 H4         -0.6726   -5.2571   -4.1734 H         1 <0>         0.1454
     21 C14         0.1446   -4.1025   -2.4943 C.2       1 <0>         0.5370
     22 O2          0.2582   -4.8473   -1.5445 O.2       1 <0>        -0.4639
     23 C15         2.4962   -3.9647   -3.7235 C.2       1 <0>        -0.1748
     24 C16         2.3469   -2.8051   -4.3743 C.2       1 <0>        -0.1720
     25 H5         -2.3809    0.9809    0.5076 H         1 <0>         0.0834
     26 H6         -3.2521   -0.5713    0.5127 H         1 <0>         0.0751
     27 H7         -2.3999   -0.0243    1.9765 H         1 <0>         0.0814
     28 H8         -2.0206   -1.4611   -1.3820 H         1 <0>         0.1351
     29 H9          2.0701   -2.5350   -0.7563 H         1 <0>         0.1340
     30 H10         2.0599   -1.3128    1.3796 H         1 <0>         0.1430
     31 H11         0.8098   -4.9759   -6.4522 H         1 <0>         0.0891
     32 H12         2.5855   -4.6643   -6.3053 H         1 <0>         0.0907
     33 H13         3.1603   -4.1347   -2.8889 H         1 <0>         0.1340
     34 H14         2.8640   -1.8784   -4.1738 H         1 <0>         0.1383
@<TRIPOS>BOND
     1    1    2 1
     2    1   25 1
     3    1   26 1
     4    1   27 1
     5    2    7 ar
     6    2    3 ar
     7    3    4 ar
     8    3   28 1
     9    4    5 ar
    10    4    9 1
    11    5    6 ar
    12    5   29 1
    13    6    7 ar
    14    6   30 1
    15    7    8 1
    16    9   21 am
    17    9   10 am
    18   10   11 2
    19   10   12 1
    20   12   13 1
    21   12   19 1
    22   12   14 1
    23   14   15 1
    24   14   24 1
    25   14   16 1
    26   16   17 1
    27   16   31 1
    28   16   32 1
    29   17   18 1
    30   17   19 1
    31   17   23 1
    32   19   20 1
    33   19   21 1
    34   21   22 2
    35   23   24 2
    36   23   33 1
    37   24   34 1
@<TRIPOS>MOLECULE
ZINC04156199
   37    40     0     0     0
SMALL
USER_CHARGES

@<TRIPOS>ATOM
      1 C1          1.5367    1.4085   -1.1454 C.ar      1 <0>        -0.1057
      2 C2          1.1720    2.0859    0.0039 C.ar      1 <0>        -0.0604
      3 C3          0.8289    1.3835    1.1442 C.ar      1 <0>        -0.1726
      4 C4          0.8494    0.0022    1.1386 C.ar      1 <0>        -0.0496
      5 C5          1.2145   -0.6804   -0.0136 C.ar      1 <0>         0.1100
      6 C6          1.5587    0.0277   -1.1572 C.ar      1 <0>        -0.0681
      7 N1          1.2368   -2.0822   -0.0222 N.am      1 <0>        -0.5289
      8 C7          2.3691   -2.7882   -0.1305 C.2       1 <0>         0.5348
      9 O1          3.4822   -2.3189   -0.2318 O.2       1 <0>        -0.4623
     10 C8          2.0392   -4.2648   -0.1060 C.3       1 <0>        -0.1122
     11 H1          2.3606   -4.7573   -1.0237 H         1 <0>         0.1361
     12 C9          2.6899   -4.9074    1.1250 C.3       1 <0>        -0.0465
     13 H2          3.7765   -4.8540    1.0588 H         1 <0>         0.1002
     14 C10         2.2225   -6.3666    1.2127 C.3       1 <0>        -0.1124
     15 C11         0.7003   -6.4084    1.3633 C.3       1 <0>        -0.1127
     16 C12         0.1458   -4.9775    1.3782 C.3       1 <0>        -0.0434
     17 H3         -0.9322   -4.9835    1.5392 H         1 <0>         0.1006
     18 C13         0.5037   -4.2901    0.0346 C.3       1 <0>        -0.1125
     19 H4          0.0380   -4.8060   -0.8050 H         1 <0>         0.1378
     20 C14         0.1279   -2.8251    0.0829 C.2       1 <0>         0.5354
     21 O2         -0.9989   -2.3926    0.1964 O.2       1 <0>        -0.4607
     22 C15         0.8522   -4.2182    2.4912 C.2       1 <0>        -0.1659
     23 C16         2.1889   -4.1707    2.3580 C.2       1 <0>        -0.1643
     24 C17         0.4325    2.1253    2.3946 C.3       1 <0>         0.5110
     25 F1          0.4878    3.5029    2.1568 F         1 <0>        -0.1732
     26 F2         -0.8703    1.7665    2.7566 F         1 <0>        -0.1725
     27 F3          1.3122    1.7954    3.4312 F         1 <0>        -0.1740
     28 H5          1.8002    1.9599   -2.0359 H         1 <0>         0.1478
     29 H6          1.1556    3.1657    0.0107 H         1 <0>         0.1480
     30 H7          0.5819   -0.5460    2.0298 H         1 <0>         0.1371
     31 H8          1.8432   -0.5007   -2.0550 H         1 <0>         0.1376
     32 H9          2.5121   -6.8959    0.3049 H         1 <0>         0.0756
     33 H10         2.6860   -6.8452    2.0753 H         1 <0>         0.0758
     34 H11         0.2676   -6.9569    0.5266 H         1 <0>         0.0755
     35 H12         0.4415   -6.9078    2.2970 H         1 <0>         0.0764
     36 H13         0.3280   -3.7520    3.3123 H         1 <0>         0.1278
     37 H14         2.8464   -3.6744    3.0564 H         1 <0>         0.1306
@<TRIPOS>BOND
     1    1    6 ar
     2    1    2 ar
     3    1   28 1
     4    2    3 ar
     5    2   29 1
     6    3    4 ar
     7    3   24 1
     8    4    5 ar
     9    4   30 1
    10    5    6 ar
    11    5    7 1
    12    6   31 1
    13    7   20 am
    14    7    8 am
    15    8    9 2
    16    8   10 1
    17   10   11 1
    18   10   18 1
    19   10   12 1
    20   12   13 1
    21   12   23 1
    22   12   14 1
    23   14   15 1
    24   14   32 1
    25   14   33 1
    26   15   16 1
    27   15   34 1
    28   15   35 1
    29   16   17 1
    30   16   18 1
    31   16   22 1
    32   18   19 1
    33   18   20 1
    34   20   21 2
    35   22   23 2
    36   22   36 1
    37   23   37 1
    38   24   25 1
    39   24   26 1
    40   24   27 1
@<TRIPOS>MOLECULE
ZINC13154544
   37    40     0     0     0
SMALL
USER_CHARGES

@<TRIPOS>ATOM
      1 C1          1.5367    1.4085   -1.1454 C.ar      1 <0>        -0.1054
      2 C2          1.1720    2.0859    0.0039 C.ar      1 <0>        -0.0598
      3 C3          0.8288    1.3835    1.1442 C.ar      1 <0>        -0.1717
      4 C4          0.8493    0.0022    1.1386 C.ar      1 <0>        -0.0509
      5 C5          1.2145   -0.6804   -0.0136 C.ar      1 <0>         0.1089
      6 C6          1.5587    0.0277   -1.1571 C.ar      1 <0>        -0.0678
      7 N1          1.2368   -2.0822   -0.0222 N.am      1 <0>        -0.5316
      8 C7          2.3691   -2.7882   -0.1305 C.2       1 <0>         0.5348
      9 O1          3.4823   -2.3189   -0.2308 O.2       1 <0>        -0.4612
     10 C8          2.0391   -4.2647   -0.1075 C.3       1 <0>        -0.1125
     11 H1          2.5232   -4.7654    0.7310 H         1 <0>         0.1348
     12 C9          2.4519   -4.8957   -1.4429 C.3       1 <0>        -0.0462
     13 H2          3.5376   -4.9351   -1.5314 H         1 <0>         0.1012
     14 C10         1.8444   -4.0632   -2.5801 C.3       1 <0>        -0.1237
     15 C11         0.3187   -4.0748   -2.4653 C.3       1 <0>        -0.1234
     16 C12        -0.0984   -4.9143   -1.2501 C.3       1 <0>        -0.0443
     17 H3         -1.1842   -4.9796   -1.1809 H         1 <0>         0.1015
     18 C13         0.5039   -4.2901    0.0361 C.3       1 <0>        -0.1103
     19 H4          0.1999   -4.8143    0.9421 H         1 <0>         0.1382
     20 C14         0.1279   -2.8251    0.0829 C.2       1 <0>         0.5329
     21 O2         -0.9990   -2.3926    0.1954 O.2       1 <0>        -0.4596
     22 C15         0.5149   -6.2973   -1.4101 C.2       1 <0>        -0.1514
     23 C16         1.8558   -6.2940   -1.5033 C.2       1 <0>        -0.1514
     24 C17         0.4324    2.1253    2.3946 C.3       1 <0>         0.5109
     25 F1          0.4876    3.5029    2.1568 F         1 <0>        -0.1731
     26 F2         -0.8705    1.7665    2.7565 F         1 <0>        -0.1723
     27 F3          1.3120    1.7954    3.4312 F         1 <0>        -0.1737
     28 H5          1.8004    1.9599   -2.0358 H         1 <0>         0.1478
     29 H6          1.1556    3.1657    0.0107 H         1 <0>         0.1483
     30 H7          0.5818   -0.5460    2.0298 H         1 <0>         0.1381
     31 H8          1.8434   -0.5007   -2.0550 H         1 <0>         0.1366
     32 H9          2.2058   -3.0371   -2.5119 H         1 <0>         0.0626
     33 H10         2.1396   -4.4887   -3.5392 H         1 <0>         0.0813
     34 H11        -0.0441   -3.0542   -2.3433 H         1 <0>         0.0635
     35 H12        -0.1102   -4.5068   -3.3695 H         1 <0>         0.0821
     36 H13        -0.0724   -7.2032   -1.4391 H         1 <0>         0.1319
     37 H14         2.4535   -7.1856   -1.6224 H         1 <0>         0.1349
@<TRIPOS>BOND
     1    1    6 ar
     2    1    2 ar
     3    1   28 1
     4    2    3 ar
     5    2   29 1
     6    3    4 ar
     7    3   24 1
     8    4    5 ar
     9    4   30 1
    10    5    6 ar
    11    5    7 1
    12    6   31 1
    13    7   20 am
    14    7    8 am
    15    8    9 2
    16    8   10 1
    17   10   11 1
    18   10   18 1
    19   10   12 1
    20   12   13 1
    21   12   23 1
    22   12   14 1
    23   14   15 1
    24   14   32 1
    25   14   33 1
    26   15   16 1
    27   15   34 1
    28   15   35 1
    29   16   17 1
    30   16   18 1
    31   16   22 1
    32   18   19 1
    33   18   20 1
    34   20   21 2
    35   22   23 2
    36   22   36 1
    37   23   37 1
    38   24   25 1
    39   24   26 1
    40   24   27 1
@<TRIPOS>MOLECULE
ZINC00178563
   31    34     0     0     0
SMALL
USER_CHARGES
(3,4-dichlorophenyl)BLAHdione
@<TRIPOS>ATOM
      1 C1          2.8737    2.0086    4.1859 C.ar      1 <0>        -0.0853
      2 C2          3.6032    1.8029    5.3409 C.ar      1 <0>        -0.0848
      3 C3          2.9530    1.5471    6.5349 C.ar      1 <0>        -0.0228
      4 C4          1.5693    1.4972    6.5754 C.ar      1 <0>        -0.0210
      5 C5          0.8356    1.7086    5.4234 C.ar      1 <0>        -0.0819
      6 C6          1.4871    1.9592    4.2234 C.ar      1 <0>         0.1307
      7 N1          0.7450    2.1678    3.0519 N.am      1 <0>        -0.5437
      8 C7          0.0226    1.2028    2.4719 C.2       1 <0>         0.5360
      9 O1         -0.0764    0.0640    2.8756 O.2       1 <0>        -0.4632
     10 C8         -0.6509    1.7520    1.2350 C.3       1 <0>        -0.1198
     11 H1         -1.7349    1.6385    1.2335 H         1 <0>         0.1423
     12 C9          0.0377    1.1235   -0.0172 C.3       1 <0>        -0.0598
     13 H2          0.0867    0.0350   -0.0446 H         1 <0>         0.1192
     14 C10         1.4105    1.8896   -0.0041 C.3       1 <0>        -0.1370
     15 C11         0.7270    3.3029   -0.0891 C.3       1 <0>        -0.0594
     16 H3          1.3924    4.1628   -0.1671 H         1 <0>         0.1207
     17 C12        -0.1893    3.2517    1.1737 C.3       1 <0>        -0.1134
     18 H4         -1.0107    3.9675    1.1398 H         1 <0>         0.1451
     19 C13         0.6855    3.3783    2.4000 C.2       1 <0>         0.5359
     20 O2          1.2633    4.3861    2.7465 O.2       1 <0>        -0.4508
     21 C14        -0.2335    3.0596   -1.2595 C.2       1 <0>        -0.1547
     22 C15        -0.6306    1.8037   -1.2182 C.2       1 <0>        -0.1535
     23 Cl1         0.7563    1.1761    8.0753 Cl        1 <0>        -0.0331
     24 Cl2         3.8725    1.2879    7.9843 Cl        1 <0>        -0.0352
     25 H5          3.3822    2.2075    3.2541 H         1 <0>         0.1429
     26 H6          4.6821    1.8413    5.3116 H         1 <0>         0.1546
     27 H7         -0.2434    1.6744    5.4559 H         1 <0>         0.1468
     28 H8          1.9596    1.7467    0.9266 H         1 <0>         0.0703
     29 H9          2.0215    1.6664   -0.8787 H         1 <0>         0.0960
     30 H10        -0.5339    3.7932   -1.9929 H         1 <0>         0.1394
     31 H11        -1.3113    1.3333   -1.9124 H         1 <0>         0.1395
@<TRIPOS>BOND
     1    1    6 ar
     2    1    2 ar
     3    1   25 1
     4    2    3 ar
     5    2   26 1
     6    3    4 ar
     7    3   24 1
     8    4    5 ar
     9    4   23 1
    10    5    6 ar
    11    5   27 1
    12    6    7 1
    13    7   19 am
    14    7    8 am
    15    8    9 2
    16    8   10 1
    17   10   11 1
    18   10   17 1
    19   10   12 1
    20   12   13 1
    21   12   22 1
    22   12   14 1
    23   14   15 1
    24   14   28 1
    25   14   29 1
    26   15   16 1
    27   15   17 1
    28   15   21 1
    29   17   18 1
    30   17   19 1
    31   19   20 2
    32   21   22 2
    33   21   30 1
    34   22   31 1
@<TRIPOS>MOLECULE
ZINC04173961
   31    34     0     0     0
SMALL
USER_CHARGES

@<TRIPOS>ATOM
      1 C1          0.4228    0.6601    1.1459 C.ar      1 <0>        -0.0839
      2 C2          1.6095    1.3672    1.1364 C.ar      1 <0>        -0.0850
      3 C3          2.3792    1.4140   -0.0122 C.ar      1 <0>        -0.0226
      4 C4          1.9619    0.7521   -1.1552 C.ar      1 <0>        -0.0216
      5 C5          0.7753    0.0436   -1.1500 C.ar      1 <0>        -0.0801
      6 C6          0.0021   -0.0041    0.0020 C.ar      1 <0>         0.1287
      7 N1         -1.2021   -0.7227    0.0101 N.am      1 <0>        -0.5293
      8 C7         -2.3969   -0.1307    0.1175 C.2       1 <0>         0.5368
      9 O1         -2.5799    1.0634    0.2185 O.2       1 <0>        -0.4625
     10 C8         -3.4836   -1.1811    0.0927 C.3       1 <0>        -0.1228
     11 H1         -4.1316   -1.1522    0.9687 H         1 <0>         0.1436
     12 C9         -4.2607   -1.0500   -1.2548 C.3       1 <0>        -0.0574
     13 H2         -5.0955   -0.3492   -1.2634 H         1 <0>         0.1212
     14 C10        -4.6052   -2.5583   -1.5342 C.3       1 <0>        -0.1130
     15 C11        -3.0982   -3.0046   -1.4964 C.3       1 <0>        -0.0543
     16 H3         -2.8922   -4.0482   -1.7343 H         1 <0>         0.1223
     17 C12        -2.6897   -2.5134   -0.0496 C.3       1 <0>        -0.1216
     18 H4         -2.9036   -3.2339    0.7399 H         1 <0>         0.1465
     19 C13        -1.2498   -2.0555   -0.0946 C.2       1 <0>         0.5366
     20 O2         -0.2870   -2.7836   -0.2064 O.2       1 <0>        -0.4616
     21 C14        -2.4917   -1.9603   -2.4416 C.2       1 <0>        -0.1754
     22 C15        -3.1633   -0.8116   -2.2990 C.2       1 <0>        -0.1726
     23 Cl1         2.9296    0.8132   -2.5952 Cl        1 <0>        -0.0337
     24 Cl2         3.8697    2.3039   -0.0211 Cl        1 <0>        -0.0353
     25 H5         -0.1752    0.6205    2.0444 H         1 <0>         0.1437
     26 H6          1.9366    1.8843    2.0263 H         1 <0>         0.1548
     27 H7          0.4498   -0.4721   -2.0413 H         1 <0>         0.1453
     28 H8         -5.1938   -3.0073   -0.7342 H         1 <0>         0.0894
     29 H9         -5.0606   -2.7082   -2.5132 H         1 <0>         0.0910
     30 H10        -1.6572   -2.1205   -3.1080 H         1 <0>         0.1344
     31 H11        -2.9822    0.1142   -2.8247 H         1 <0>         0.1387
@<TRIPOS>BOND
     1    1    6 ar
     2    1    2 ar
     3    1   25 1
     4    2    3 ar
     5    2   26 1
     6    3    4 ar
     7    3   24 1
     8    4    5 ar
     9    4   23 1
    10    5    6 ar
    11    5   27 1
    12    6    7 1
    13    7   19 am
    14    7    8 am
    15    8    9 2
    16    8   10 1
    17   10   11 1
    18   10   17 1
    19   10   12 1
    20   12   13 1
    21   12   22 1
    22   12   14 1
    23   14   15 1
    24   14   28 1
    25   14   29 1
    26   15   16 1
    27   15   17 1
    28   15   21 1
    29   17   18 1
    30   17   19 1
    31   19   20 2
    32   21   22 2
    33   21   30 1
    34   22   31 1
@<TRIPOS>MOLECULE
ZINC04026402
   44    47     0     0     0
SMALL
USER_CHARGES

@<TRIPOS>ATOM
      1 C1         -0.0187    1.5258    0.0104 C.3       1 <0>        -0.1340
      2 C2          0.0021   -0.0041    0.0020 C.3       1 <0>        -0.0589
      3 C3         -1.4169   -0.5413    0.0692 C.3       1 <0>        -0.1023
      4 C4         -2.1076    0.1485    1.2556 C.3       1 <0>        -0.1018
      5 C5         -1.2709    0.0296    2.5140 C.2       1 <0>        -0.0549
      6 C6         -1.9067   -0.2571    3.6487 C.2       1 <0>        -0.1365
      7 C7         -3.4047   -0.4598    3.6618 C.3       1 <0>        -0.0815
      8 C8         -3.7272   -1.6637    4.5522 C.3       1 <0>        -0.1661
      9 C9         -3.0416   -1.5182    5.8839 C.2       1 <0>         0.3870
     10 O1         -3.6019   -1.9098    6.8880 O.2       1 <0>        -0.4713
     11 C10        -1.7656   -0.9375    5.9887 C.2       1 <0>        -0.2509
     12 C11        -1.1846   -0.3580    4.9166 C.2       1 <0>         0.0277
     13 C12         0.2114    0.2116    4.9799 C.3       1 <0>        -0.0963
     14 C13         0.9462   -0.2175    3.7108 C.3       1 <0>        -0.1110
     15 C14         0.2209    0.2403    2.4569 C.3       1 <0>        -0.0467
     16 H1          0.4221    1.2999    2.2993 H         1 <0>         0.0943
     17 C15         0.7504   -0.5305    1.2551 C.3       1 <0>        -0.0815
     18 H2          0.5904   -1.6018    1.3766 H         1 <0>         0.0817
     19 C16         2.2113   -0.2199    0.9021 C.3       1 <0>        -0.1142
     20 C17         2.2981   -0.6003   -0.5998 C.3       1 <0>        -0.1573
     21 C18         0.8577   -0.5068   -1.1587 C.3       1 <0>         0.1111
     22 H3          0.5143   -1.4893   -1.4826 H         1 <0>         0.0583
     23 O2          0.8085    0.4186   -2.2465 O.3       1 <0>        -0.5597
     24 H4          1.0039    1.9031    0.0027 H         1 <0>         0.0559
     25 H5         -0.5459    1.8868   -0.8726 H         1 <0>         0.0624
     26 H6         -0.5289    1.8773    0.9072 H         1 <0>         0.0582
     27 H7         -1.9460   -0.3087   -0.8549 H         1 <0>         0.0721
     28 H8         -1.3985   -1.6197    0.2262 H         1 <0>         0.0664
     29 H9         -2.2538    1.2029    1.0211 H         1 <0>         0.0855
     30 H10        -3.0781   -0.3177    1.4254 H         1 <0>         0.0853
     31 H11        -3.8909    0.4307    4.0603 H         1 <0>         0.0804
     32 H12        -3.7571   -0.6496    2.6480 H         1 <0>         0.0938
     33 H13        -4.8049   -1.7223    4.7048 H         1 <0>         0.0944
     34 H14        -3.3824   -2.5761    4.0657 H         1 <0>         0.0986
     35 H15        -1.2455   -0.9552    6.9351 H         1 <0>         0.1345
     36 H16         0.1647    1.2994    5.0299 H         1 <0>         0.0889
     37 H17         0.7297   -0.1774    5.8564 H         1 <0>         0.0849
     38 H18         1.9481    0.2117    3.7182 H         1 <0>         0.0769
     39 H19         1.0271   -1.3044    3.6975 H         1 <0>         0.0676
     40 H20         2.4250    0.8395    1.0442 H         1 <0>         0.0721
     41 H21         2.8896   -0.8337    1.4948 H         1 <0>         0.0684
     42 H22         2.9493    0.0981   -1.1255 H         1 <0>         0.0741
     43 H23         2.6756   -1.6172   -0.7069 H         1 <0>         0.0681
     44 H24         1.3337    0.1523   -3.0135 H         1 <0>         0.3763
@<TRIPOS>BOND
     1    1    2 1
     2    1   24 1
     3    1   25 1
     4    1   26 1
     5    2   17 1
     6    2   21 1
     7    2    3 1
     8    3    4 1
     9    3   27 1
    10    3   28 1
    11    4    5 1
    12    4   29 1
    13    4   30 1
    14    5   15 1
    15    5    6 2
    16    6   12 1
    17    6    7 1
    18    7    8 1
    19    7   31 1
    20    7   32 1
    21    8    9 1
    22    8   33 1
    23    8   34 1
    24    9   10 2
    25    9   11 1
    26   11   12 2
    27   11   35 1
    28   12   13 1
    29   13   14 1
    30   13   36 1
    31   13   37 1
    32   14   15 1
    33   14   38 1
    34   14   39 1
    35   15   16 1
    36   15   17 1
    37   17   18 1
    38   17   19 1
    39   19   20 1
    40   19   40 1
    41   19   41 1
    42   20   21 1
    43   20   42 1
    44   20   43 1
    45   21   22 1
    46   21   23 1
    47   23   44 1
@<TRIPOS>MOLECULE
ZINC04026403
   44    47     0     0     0
SMALL
USER_CHARGES

@<TRIPOS>ATOM
      1 C1         -0.0187    1.5258    0.0104 C.3       1 <0>        -0.1272
      2 C2          0.0021   -0.0041    0.0020 C.3       1 <0>        -0.0438
      3 C3         -1.4070   -0.5979   -0.1042 C.3       1 <0>        -0.1077
      4 C4         -2.2109   -0.2716    1.1517 C.3       1 <0>        -0.1001
      5 C5         -1.4750   -0.8416    2.3493 C.2       1 <0>        -0.0508
      6 C6         -2.1528   -1.6044    3.2007 C.2       1 <0>        -0.1363
      7 C7         -3.6142   -1.9158    2.9768 C.3       1 <0>        -0.0784
      8 C8         -3.8507   -3.3975    3.2855 C.3       1 <0>        -0.1656
      9 C9         -3.2714   -3.7431    4.6306 C.2       1 <0>         0.3873
     10 O1         -3.8446   -4.5486    5.3363 O.2       1 <0>        -0.4714
     11 C10        -2.0802   -3.1519    5.0872 C.2       1 <0>        -0.2514
     12 C11        -1.5045   -2.1459    4.3962 C.2       1 <0>         0.0278
     13 C12        -0.1926   -1.5329    4.8206 C.3       1 <0>        -0.0957
     14 C13         0.6713   -1.3603    3.5726 C.3       1 <0>        -0.1133
     15 C14        -0.0237   -0.5142    2.5157 C.3       1 <0>        -0.0430
     16 H1          0.0350    0.5224    2.8476 H         1 <0>         0.0807
     17 C15         0.7332   -0.5798    1.2245 C.3       1 <0>        -0.0717
     18 H2          1.6749   -0.0453    1.3488 H         1 <0>         0.0773
     19 C16         1.0583   -2.0241    0.8042 C.3       1 <0>        -0.1177
     20 C17         1.4645   -1.8797   -0.6814 C.3       1 <0>        -0.1596
     21 C18         0.8207   -0.5753   -1.1885 C.3       1 <0>         0.1035
     22 H3          0.1609   -0.7857   -2.0302 H         1 <0>         0.0581
     23 O2          1.8343    0.3536   -1.5782 O.3       1 <0>        -0.5613
     24 H4          1.0039    1.9031    0.0027 H         1 <0>         0.0670
     25 H5         -0.5459    1.8868   -0.8726 H         1 <0>         0.0553
     26 H6         -0.5289    1.8773    0.9072 H         1 <0>         0.0534
     27 H7         -1.9111   -0.1786   -0.9750 H         1 <0>         0.0692
     28 H8         -1.3357   -1.6797   -0.2167 H         1 <0>         0.0685
     29 H9         -2.3041    0.8092    1.2579 H         1 <0>         0.0837
     30 H10        -3.2014   -0.7212    1.0810 H         1 <0>         0.0864
     31 H11        -4.2248   -1.3021    3.6391 H         1 <0>         0.0799
     32 H12        -3.8771   -1.7117    1.9389 H         1 <0>         0.0921
     33 H13        -4.9218   -3.5994    3.2904 H         1 <0>         0.0945
     34 H14        -3.3730   -4.0073    2.5186 H         1 <0>         0.0984
     35 H15        -1.6220   -3.5061    5.9988 H         1 <0>         0.1342
     36 H16        -0.3717   -0.5619    5.2823 H         1 <0>         0.0886
     37 H17         0.3101   -2.1916    5.5288 H         1 <0>         0.0850
     38 H18         1.6081   -0.8789    3.8531 H         1 <0>         0.0760
     39 H19         0.8900   -2.3425    3.1536 H         1 <0>         0.0722
     40 H20         1.8867   -2.4185    1.3927 H         1 <0>         0.0693
     41 H21         0.1787   -2.6603    0.9022 H         1 <0>         0.0688
     42 H22         2.5494   -1.8188   -0.7676 H         1 <0>         0.0738
     43 H23         1.0909   -2.7281   -1.2548 H         1 <0>         0.0676
     44 H24         2.3796    0.0532   -2.3181 H         1 <0>         0.3763
@<TRIPOS>BOND
     1    1    2 1
     2    1   24 1
     3    1   25 1
     4    1   26 1
     5    2   17 1
     6    2   21 1
     7    2    3 1
     8    3    4 1
     9    3   27 1
    10    3   28 1
    11    4    5 1
    12    4   29 1
    13    4   30 1
    14    5   15 1
    15    5    6 2
    16    6   12 1
    17    6    7 1
    18    7    8 1
    19    7   31 1
    20    7   32 1
    21    8    9 1
    22    8   33 1
    23    8   34 1
    24    9   10 2
    25    9   11 1
    26   11   12 2
    27   11   35 1
    28   12   13 1
    29   13   14 1
    30   13   36 1
    31   13   37 1
    32   14   15 1
    33   14   38 1
    34   14   39 1
    35   15   16 1
    36   15   17 1
    37   17   18 1
    38   17   19 1
    39   19   20 1
    40   19   40 1
    41   19   41 1
    42   20   21 1
    43   20   42 1
    44   20   43 1
    45   21   22 1
    46   21   23 1
    47   23   44 1
@<TRIPOS>MOLECULE
ZINC05529906
   44    47     0     0     0
SMALL
USER_CHARGES
17-hydroxy-13-methyl-2,6,7,8,11,12,14,15,16,17-decahydro-1H-cyclopenta[a]phenanthren-3-one
@<TRIPOS>ATOM
      1 C1         -1.1080    3.0711    1.0768 C.3       1 <0>        -0.1294
      2 C2         -0.7543    1.5913    1.2383 C.3       1 <0>        -0.0563
      3 C3         -0.0127    1.0858    0.0080 C.3       1 <0>        -0.1066
      4 C4         -0.7831    1.6081   -1.2110 C.3       1 <0>        -0.0854
      5 C5         -2.2700    1.5198   -1.0332 C.2       1 <0>        -0.0424
      6 C6         -3.0632    1.9012   -2.0479 C.2       1 <0>        -0.1511
      7 C7         -2.4624    2.3559   -3.3559 C.3       1 <0>        -0.0762
      8 C8         -3.2668    1.7275   -4.4994 C.3       1 <0>        -0.1557
      9 C9         -4.7356    1.9676   -4.2801 C.2       1 <0>         0.3858
     10 O1         -5.4562    2.1355   -5.2434 O.2       1 <0>        -0.4730
     11 C10        -5.2965    2.0036   -2.9951 C.2       1 <0>        -0.2587
     12 C11        -4.5136    1.9475   -1.8855 C.2       1 <0>         0.0337
     13 C12        -5.1539    1.9590   -0.5221 C.3       1 <0>        -0.0988
     14 C13        -4.0789    2.0431    0.5688 C.3       1 <0>        -0.1127
     15 C14        -2.9657    1.0655    0.2186 C.3       1 <0>        -0.0431
     16 H1         -3.4601    0.1286   -0.0381 H         1 <0>         0.0740
     17 C15        -2.0438    0.7338    1.3383 C.3       1 <0>        -0.0808
     18 H2         -1.7733   -0.3203    1.2776 H         1 <0>         0.0755
     19 C16        -2.5090    1.0497    2.7626 C.3       1 <0>        -0.1129
     20 C17        -1.1894    1.0254    3.5811 C.3       1 <0>        -0.1577
     21 C18        -0.0560    1.3363    2.5733 C.3       1 <0>         0.1104
     22 H3          0.6181    0.4839    2.4893 H         1 <0>         0.0585
     23 O2          0.6653    2.4995    2.9839 O.3       1 <0>        -0.5596
     24 H4         -1.7545    3.1974    0.2084 H         1 <0>         0.0619
     25 H5         -1.6267    3.4202    1.9697 H         1 <0>         0.0550
     26 H6         -0.1949    3.6498    0.9374 H         1 <0>         0.0590
     27 H7          0.0021   -0.0041    0.0020 H         1 <0>         0.0678
     28 H8          1.0061    1.4731    0.0004 H         1 <0>         0.0725
     29 H9         -0.5097    2.6494   -1.3811 H         1 <0>         0.0845
     30 H10        -0.4974    1.0234   -2.0855 H         1 <0>         0.0798
     31 H11        -2.5127    3.4426   -3.4252 H         1 <0>         0.0799
     32 H12        -1.4234    2.0318   -3.4153 H         1 <0>         0.0875
     33 H13        -2.9902    2.1399   -5.3674 H         1 <0>         0.0847
     34 H14        -3.0764    0.6547   -4.5295 H         1 <0>         0.0986
     35 H15        -6.3684    2.0769   -2.8854 H         1 <0>         0.1327
     36 H16        -5.8174    2.8201   -0.4422 H         1 <0>         0.0906
     37 H17        -5.7337    1.0458   -0.3880 H         1 <0>         0.0900
     38 H18        -3.6783    3.0559    0.6126 H         1 <0>         0.0744
     39 H19        -4.5123    1.7774    1.5330 H         1 <0>         0.0817
     40 H20        -2.9784    2.0325    2.8059 H         1 <0>         0.0758
     41 H21        -3.1898    0.2797    3.1255 H         1 <0>         0.0669
     42 H22        -1.0304    0.0460    4.0322 H         1 <0>         0.0691
     43 H23        -1.2224    1.7923    4.3550 H         1 <0>         0.0739
     44 H24         1.1297    2.3974    3.8259 H         1 <0>         0.3761
@<TRIPOS>BOND
     1    1    2 1
     2    1   24 1
     3    1   25 1
     4    1   26 1
     5    2   17 1
     6    2   21 1
     7    2    3 1
     8    3    4 1
     9    3   27 1
    10    3   28 1
    11    4    5 1
    12    4   29 1
    13    4   30 1
    14    5   15 1
    15    5    6 2
    16    6   12 1
    17    6    7 1
    18    7    8 1
    19    7   31 1
    20    7   32 1
    21    8    9 1
    22    8   33 1
    23    8   34 1
    24    9   10 2
    25    9   11 1
    26   11   12 2
    27   11   35 1
    28   12   13 1
    29   13   14 1
    30   13   36 1
    31   13   37 1
    32   14   15 1
    33   14   38 1
    34   14   39 1
    35   15   16 1
    36   15   17 1
    37   17   18 1
    38   17   19 1
    39   19   20 1
    40   19   40 1
    41   19   41 1
    42   20   21 1
    43   20   42 1
    44   20   43 1
    45   21   22 1
    46   21   23 1
    47   23   44 1
@<TRIPOS>MOLECULE
ZINC05529907
   44    47     0     0     0
SMALL
USER_CHARGES
17-hydroxy-13-methyl-2,6,7,8,11,12,14,15,16,17-decahydro-1H-cyclopenta[a]phenanthren-3-one
@<TRIPOS>ATOM
      1 C1         -5.2135    2.7274   -3.0917 C.3       1 <0>        -0.1351
      2 C2         -4.5030    1.7471   -2.1562 C.3       1 <0>        -0.0476
      3 C3         -5.0508    1.9423   -0.7651 C.3       1 <0>        -0.1018
      4 C4         -4.3644    1.0085    0.2321 C.3       1 <0>        -0.1020
      5 C5         -2.8682    1.2454    0.1331 C.2       1 <0>        -0.0555
      6 C6         -2.1954    1.4917    1.2528 C.2       1 <0>        -0.1354
      7 C7         -2.9076    1.6185    2.5787 C.3       1 <0>        -0.0787
      8 C8         -2.2695    2.7648    3.3696 C.3       1 <0>        -0.1571
      9 C9         -0.7747    2.5957    3.4049 C.2       1 <0>         0.3864
     10 O1         -0.1631    2.9125    4.4054 O.2       1 <0>        -0.4702
     11 C10        -0.0723    2.0779    2.3029 C.2       1 <0>        -0.2505
     12 C11        -0.7328    1.5792    1.2376 C.2       1 <0>         0.0268
     13 C12        -0.0127    1.0858    0.0080 C.3       1 <0>        -0.0958
     14 C13        -0.7659    1.5990   -1.2183 C.3       1 <0>        -0.1122
     15 C14        -2.2214    1.1550   -1.2120 C.3       1 <0>        -0.0498
     16 H1         -2.2514    0.1079   -1.5136 H         1 <0>         0.0831
     17 C15        -2.9864    1.9666   -2.2646 C.3       1 <0>        -0.0701
     18 H2         -2.7139    3.0216   -2.2339 H         1 <0>         0.0900
     19 C16        -2.6458    1.3213   -3.6370 C.3       1 <0>        -0.1218
     20 C17        -3.7215    0.2470   -3.8859 C.3       1 <0>        -0.1600
     21 C18        -4.7003    0.3174   -2.6900 C.3       1 <0>         0.1069
     22 H3         -4.4329   -0.4171   -1.9304 H         1 <0>         0.0628
     23 O2         -6.0463    0.1204   -3.1278 O.3       1 <0>        -0.5588
     24 H4         -4.8881    2.5519   -4.1171 H         1 <0>         0.0560
     25 H5         -6.2912    2.5796   -3.0222 H         1 <0>         0.0638
     26 H6         -4.9674    3.7491   -2.8022 H         1 <0>         0.0509
     27 H7         -4.8878    2.9755   -0.4583 H         1 <0>         0.0673
     28 H8         -6.1211    1.7361   -0.7700 H         1 <0>         0.0736
     29 H9         -4.7074    1.2307    1.2426 H         1 <0>         0.0864
     30 H10        -4.5922   -0.0283   -0.0155 H         1 <0>         0.0809
     31 H11        -3.9623    1.8343    2.4082 H         1 <0>         0.0922
     32 H12        -2.8078    0.6882    3.1379 H         1 <0>         0.0802
     33 H13        -2.4908    3.6359    2.9312 H         1 <0>         0.0896
     34 H14        -2.6581    2.7619    4.3880 H         1 <0>         0.0948
     35 H15         1.0076    2.0786    2.3092 H         1 <0>         0.1343
     36 H16         0.0021   -0.0041    0.0020 H         1 <0>         0.0883
     37 H17         1.0080    1.4682    0.0003 H         1 <0>         0.0855
     38 H18        -0.7267    2.6883   -1.2294 H         1 <0>         0.0693
     39 H19        -0.2821    1.2182   -2.1177 H         1 <0>         0.0773
     40 H20        -2.6795    2.0748   -4.4240 H         1 <0>         0.0684
     41 H21        -1.6579    0.8623   -3.6004 H         1 <0>         0.0697
     42 H22        -4.2513    0.4572   -4.8151 H         1 <0>         0.0752
     43 H23        -3.2602   -0.7394   -3.9335 H         1 <0>         0.0652
     44 H24        -6.2044   -0.7409   -3.5379 H         1 <0>         0.3774
@<TRIPOS>BOND
     1    1    2 1
     2    1   24 1
     3    1   25 1
     4    1   26 1
     5    2   17 1
     6    2   21 1
     7    2    3 1
     8    3    4 1
     9    3   27 1
    10    3   28 1
    11    4    5 1
    12    4   29 1
    13    4   30 1
    14    5   15 1
    15    5    6 2
    16    6   12 1
    17    6    7 1
    18    7    8 1
    19    7   31 1
    20    7   32 1
    21    8    9 1
    22    8   33 1
    23    8   34 1
    24    9   10 2
    25    9   11 1
    26   11   12 2
    27   11   35 1
    28   12   13 1
    29   13   14 1
    30   13   36 1
    31   13   37 1
    32   14   15 1
    33   14   38 1
    34   14   39 1
    35   15   16 1
    36   15   17 1
    37   17   18 1
    38   17   19 1
    39   19   20 1
    40   19   40 1
    41   19   41 1
    42   20   21 1
    43   20   42 1
    44   20   43 1
    45   21   22 1
    46   21   23 1
    47   23   44 1
@<TRIPOS>MOLECULE
ZINC04475232
   51    54     0     0     0
SMALL
USER_CHARGES

@<TRIPOS>ATOM
      1 C1          0.1266    1.4493   -0.0038 C.3       1 <0>        -0.1352
      2 C2          0.0875   -0.0572   -0.0003 C.2       1 <0>        -0.0540
      3 C3         -1.0796   -0.6912   -0.0005 C.2       1 <0>        -0.2202
      4 C4         -2.4342   -0.0965   -0.0188 C.2       1 <0>         0.3900
      5 O1         -2.7031    1.0704   -0.2053 O.2       1 <0>        -0.4430
      6 C5         -3.4386   -1.2188    0.2584 C.3       1 <0>        -0.1690
      7 C6         -2.5457   -2.2885    0.9098 C.3       1 <0>        -0.0677
      8 H1         -2.2811   -1.9406    1.9299 H         1 <0>         0.0796
      9 C7         -1.2987   -2.1921    0.0027 C.3       1 <0>        -0.0145
     10 C8         -0.1792   -3.0135    0.5805 C.3       1 <0>        -0.1022
     11 C9         -0.6632   -4.3944    1.0290 C.3       1 <0>        -0.1119
     12 C10        -2.0729   -4.7310    0.5752 C.3       1 <0>        -0.0661
     13 H2         -2.0936   -4.8527   -0.5133 H         1 <0>         0.0832
     14 C11        -3.0947   -3.6799    0.9903 C.3       1 <0>        -0.0679
     15 H3         -3.3359   -3.8761    2.0558 H         1 <0>         0.0675
     16 C12        -4.4026   -3.8468    0.2244 C.3       1 <0>        -0.1101
     17 C13        -4.7228   -5.3326    0.0451 C.3       1 <0>        -0.0967
     18 C14        -4.0187   -6.1197    1.1264 C.2       1 <0>        -0.0155
     19 C15        -4.7138   -6.8171    2.0158 C.2       1 <0>        -0.2401
     20 C16        -4.0460   -7.5731    3.0723 C.2       1 <0>         0.3875
     21 O2         -4.7043   -8.2473    3.8390 O.2       1 <0>        -0.4656
     22 C17        -2.5488   -7.5196    3.2195 C.3       1 <0>        -0.1692
     23 C18        -2.0072   -6.2352    2.5879 C.3       1 <0>        -0.1060
     24 C19        -2.5092   -6.0886    1.1582 C.3       1 <0>        -0.0356
     25 C20        -1.9540   -7.2105    0.2790 C.3       1 <0>        -0.1403
     26 C21        -1.5881   -2.5953   -1.4442 C.3       1 <0>        -0.1461
     27 H4          1.1634    1.7858   -0.0030 H         1 <0>         0.0662
     28 H5         -0.3762    1.8237   -0.8954 H         1 <0>         0.0786
     29 H6         -0.3789    1.8280    0.8845 H         1 <0>         0.0741
     30 H7          1.0085   -0.6213    0.0025 H         1 <0>         0.1257
     31 H8         -4.1981   -0.8774    0.9655 H         1 <0>         0.0924
     32 H9         -3.9008   -1.5678   -0.6566 H         1 <0>         0.1096
     33 H10         0.6151   -3.1335   -0.1709 H         1 <0>         0.0637
     34 H11         0.2606   -2.4884    1.4407 H         1 <0>         0.0646
     35 H12         0.0326   -5.1531    0.6461 H         1 <0>         0.0663
     36 H13        -0.6153   -4.4386    2.1262 H         1 <0>         0.0669
     37 H14        -5.2081   -3.3733    0.7815 H         1 <0>         0.0707
     38 H15        -4.3134   -3.3878   -0.7568 H         1 <0>         0.0723
     39 H16        -5.7987   -5.4809    0.1298 H         1 <0>         0.0776
     40 H17        -4.3798   -5.6622   -0.9330 H         1 <0>         0.0840
     41 H18        -5.7928   -6.8279    1.9574 H         1 <0>         0.1302
     42 H19        -2.2955   -7.5260    4.2855 H         1 <0>         0.0948
     43 H20        -2.0961   -8.3922    2.7522 H         1 <0>         0.1027
     44 H21        -2.3273   -5.3764    3.1818 H         1 <0>         0.0726
     45 H22        -0.9138   -6.2741    2.5900 H         1 <0>         0.0829
     46 H23        -0.8658   -7.1519    0.2593 H         1 <0>         0.0673
     47 H24        -2.2587   -8.1750    0.6852 H         1 <0>         0.0592
     48 H25        -2.3420   -7.1040   -0.7341 H         1 <0>         0.0615
     49 H26        -0.8000   -2.2125   -2.0927 H         1 <0>         0.0582
     50 H27        -1.6236   -3.6822   -1.5183 H         1 <0>         0.0695
     51 H28        -2.5469   -2.1786   -1.7527 H         1 <0>         0.0576
@<TRIPOS>BOND
     1    1    2 1
     2    1   27 1
     3    1   28 1
     4    1   29 1
     5    2    3 2
     6    2   30 1
     7    3    9 1
     8    3    4 1
     9    4    5 2
    10    4    6 1
    11    6    7 1
    12    6   31 1
    13    6   32 1
    14    7    8 1
    15    7   14 1
    16    7    9 1
    17    9   10 1
    18    9   26 1
    19   10   11 1
    20   10   33 1
    21   10   34 1
    22   11   12 1
    23   11   35 1
    24   11   36 1
    25   12   13 1
    26   12   24 1
    27   12   14 1
    28   14   15 1
    29   14   16 1
    30   16   17 1
    31   16   37 1
    32   16   38 1
    33   17   18 1
    34   17   39 1
    35   17   40 1
    36   18   24 1
    37   18   19 2
    38   19   20 1
    39   19   41 1
    40   20   21 2
    41   20   22 1
    42   22   23 1
    43   22   42 1
    44   22   43 1
    45   23   24 1
    46   23   44 1
    47   23   45 1
    48   24   25 1
    49   25   46 1
    50   25   47 1
    51   25   48 1
    52   26   49 1
    53   26   50 1
    54   26   51 1
@<TRIPOS>MOLECULE
ZINC04475234
   51    54     0     0     0
SMALL
USER_CHARGES

@<TRIPOS>ATOM
      1 C1         -0.0184    1.5028    0.0103 C.3       1 <0>        -0.1353
      2 C2          0.0021   -0.0041    0.0020 C.2       1 <0>        -0.0539
      3 C3         -1.1385   -0.6835    0.0093 C.2       1 <0>        -0.2180
      4 C4         -2.5201   -0.1466    0.0096 C.2       1 <0>         0.3902
      5 O1         -2.8416    1.0081   -0.1703 O.2       1 <0>        -0.4423
      6 C5         -3.4731   -1.3136    0.2977 C.3       1 <0>        -0.1677
      7 C6         -2.5201   -2.3335    0.9395 C.3       1 <0>        -0.0708
      8 H1         -2.2472   -1.9480    1.9512 H         1 <0>         0.0789
      9 C7         -1.3045   -2.1857    0.0028 C.3       1 <0>        -0.0196
     10 C8         -0.1586   -3.0188    0.5126 C.3       1 <0>        -0.1038
     11 C9         -0.6143   -4.4932    0.5645 C.3       1 <0>        -0.1091
     12 C10        -1.8242   -4.6466    1.4643 C.3       1 <0>        -0.0637
     13 H2         -1.4904   -4.2669    2.4567 H         1 <0>         0.0651
     14 C11        -2.9975   -3.7534    1.0802 C.3       1 <0>        -0.0563
     15 H3         -3.6813   -3.7654    1.9734 H         1 <0>         0.0643
     16 C12        -3.8431   -4.2273   -0.0784 C.3       1 <0>        -0.1112
     17 C13        -3.5792   -5.6842   -0.4472 C.3       1 <0>        -0.0916
     18 C14        -3.4005   -6.4537    0.8374 C.2       1 <0>        -0.0155
     19 C15        -4.2433   -7.4203    1.1787 C.2       1 <0>        -0.2416
     20 C16        -4.0933   -8.1386    2.4421 C.2       1 <0>         0.3883
     21 O2         -4.7922   -9.1057    2.6718 O.2       1 <0>        -0.4658
     22 C17        -3.0911   -7.6792    3.4685 C.3       1 <0>        -0.1678
     23 C18        -2.6654   -6.2395    3.1862 C.3       1 <0>        -0.1062
     24 C19        -2.2347   -6.0868    1.7223 C.3       1 <0>        -0.0273
     25 C20        -1.0806   -7.0505    1.4396 C.3       1 <0>        -0.1410
     26 C21        -1.6030   -2.5786   -1.4441 C.3       1 <0>        -0.1454
     27 H4          1.0042    1.8801    0.0026 H         1 <0>         0.0663
     28 H5         -0.5455    1.8639   -0.8728 H         1 <0>         0.0785
     29 H6         -0.5286    1.8543    0.9071 H         1 <0>         0.0738
     30 H7          0.9446   -0.5313   -0.0098 H         1 <0>         0.1258
     31 H8         -4.2363   -1.0050    1.0173 H         1 <0>         0.0916
     32 H9         -3.9337   -1.6870   -0.6070 H         1 <0>         0.1084
     33 H10         0.6993   -2.9298   -0.1571 H         1 <0>         0.0678
     34 H11         0.1282   -2.6935    1.5145 H         1 <0>         0.0660
     35 H12        -0.8231   -4.8621   -0.4313 H         1 <0>         0.0703
     36 H13         0.2379   -5.0489    0.9770 H         1 <0>         0.0669
     37 H14        -4.9021   -4.1735    0.2433 H         1 <0>         0.0574
     38 H15        -3.7661   -3.6025   -0.9501 H         1 <0>         0.0786
     39 H16        -4.4283   -6.0801   -0.9998 H         1 <0>         0.0780
     40 H17        -2.6768   -5.7519   -1.0495 H         1 <0>         0.0842
     41 H18        -5.0513   -7.6824    0.5115 H         1 <0>         0.1307
     42 H19        -3.5597   -7.7222    4.4604 H         1 <0>         0.0954
     43 H20        -2.2292   -8.3432    3.4742 H         1 <0>         0.1038
     44 H21        -3.5008   -5.5648    3.3838 H         1 <0>         0.0713
     45 H22        -1.8293   -5.9700    3.8342 H         1 <0>         0.0796
     46 H23        -0.2379   -6.8080    2.0869 H         1 <0>         0.0669
     47 H24        -1.4052   -8.0729    1.6333 H         1 <0>         0.0586
     48 H25        -0.7765   -6.9572    0.3970 H         1 <0>         0.0644
     49 H26        -0.7619   -2.2973   -2.0778 H         1 <0>         0.0586
     50 H27        -1.7583   -3.6558   -1.5034 H         1 <0>         0.0691
     51 H28        -2.5015   -2.0628   -1.7827 H         1 <0>         0.0550
@<TRIPOS>BOND
     1    1    2 1
     2    1   27 1
     3    1   28 1
     4    1   29 1
     5    2    3 2
     6    2   30 1
     7    3    9 1
     8    3    4 1
     9    4    5 2
    10    4    6 1
    11    6    7 1
    12    6   31 1
    13    6   32 1
    14    7    8 1
    15    7   14 1
    16    7    9 1
    17    9   10 1
    18    9   26 1
    19   10   11 1
    20   10   33 1
    21   10   34 1
    22   11   12 1
    23   11   35 1
    24   11   36 1
    25   12   13 1
    26   12   24 1
    27   12   14 1
    28   14   15 1
    29   14   16 1
    30   16   17 1
    31   16   37 1
    32   16   38 1
    33   17   18 1
    34   17   39 1
    35   17   40 1
    36   18   24 1
    37   18   19 2
    38   19   20 1
    39   19   41 1
    40   20   21 2
    41   20   22 1
    42   22   23 1
    43   22   42 1
    44   22   43 1
    45   23   24 1
    46   23   44 1
    47   23   45 1
    48   24   25 1
    49   25   46 1
    50   25   47 1
    51   25   48 1
    52   26   49 1
    53   26   50 1
    54   26   51 1
@<TRIPOS>MOLECULE
ZINC04475235
   51    54     0     0     0
SMALL
USER_CHARGES

@<TRIPOS>ATOM
      1 C1         -0.0184    1.5028    0.0103 C.3       1 <0>        -0.1334
      2 C2          0.0021   -0.0041    0.0020 C.2       1 <0>        -0.0532
      3 C3         -1.1437   -0.6865    0.0093 C.2       1 <0>        -0.2116
      4 C4         -2.4987   -0.1061    0.0105 C.2       1 <0>         0.3897
      5 O1         -2.7671    1.0739   -0.0795 O.2       1 <0>        -0.4460
      6 C5         -3.4986   -1.2425    0.1495 C.3       1 <0>        -0.1810
      7 C6         -2.6567   -2.4154    0.7318 C.3       1 <0>        -0.0649
      8 H1         -3.0910   -3.3884    0.5115 H         1 <0>         0.1016
      9 C7         -1.3161   -2.1830    0.0029 C.3       1 <0>        -0.0123
     10 C8         -0.1729   -2.9564    0.6004 C.3       1 <0>        -0.1049
     11 C9         -0.0654   -2.8530    2.1109 C.3       1 <0>        -0.1071
     12 C10        -1.3920   -3.0179    2.8397 C.3       1 <0>        -0.0593
     13 H2         -1.2181   -2.5767    3.8629 H         1 <0>         0.0612
     14 C11        -2.4721   -2.1558    2.2224 C.3       1 <0>        -0.0708
     15 H3         -2.1458   -1.0993    2.3272 H         1 <0>         0.0681
     16 C12        -3.7937   -2.2800    2.9746 C.3       1 <0>        -0.1151
     17 C13        -4.2542   -3.7382    2.9711 C.3       1 <0>        -0.0976
     18 C14        -3.1691   -4.5773    3.6190 C.2       1 <0>        -0.0138
     19 C15        -3.5177   -5.3654    4.6323 C.2       1 <0>        -0.2438
     20 C16        -2.5366   -6.2231    5.3004 C.2       1 <0>         0.3875
     21 O2         -2.7964   -6.7853    6.3472 O.2       1 <0>        -0.4613
     22 C17        -1.1945   -6.4062    4.6234 C.3       1 <0>        -0.1670
     23 C18        -0.7465   -5.0605    4.0667 C.3       1 <0>        -0.1085
     24 C19        -1.7654   -4.4686    3.0933 C.3       1 <0>        -0.0175
     25 C20        -1.7000   -5.2988    1.8142 C.3       1 <0>        -0.1490
     26 C21        -1.4835   -2.6375   -1.4545 C.3       1 <0>        -0.1460
     27 H4          1.0042    1.8801    0.0026 H         1 <0>         0.0652
     28 H5         -0.5455    1.8639   -0.8728 H         1 <0>         0.0785
     29 H6         -0.5286    1.8543    0.9071 H         1 <0>         0.0756
     30 H7          0.9446   -0.5313   -0.0098 H         1 <0>         0.1248
     31 H8         -4.2969   -0.9592    0.8383 H         1 <0>         0.0964
     32 H9         -3.9247   -1.5058   -0.8177 H         1 <0>         0.1045
     33 H10        -0.2149   -3.9934    0.2761 H         1 <0>         0.0750
     34 H11         0.7647   -2.5568    0.1697 H         1 <0>         0.0567
     35 H12         0.6477   -3.6062    2.4748 H         1 <0>         0.0684
     36 H13         0.3616   -1.8710    2.3711 H         1 <0>         0.0606
     37 H14        -3.6552   -1.9504    4.0084 H         1 <0>         0.0671
     38 H15        -4.5542   -1.6554    2.5073 H         1 <0>         0.0747
     39 H16        -5.1779   -3.8304    3.5442 H         1 <0>         0.0770
     40 H17        -4.4245   -4.0720    1.9501 H         1 <0>         0.0864
     41 H18        -4.5477   -5.3720    4.9695 H         1 <0>         0.1315
     42 H19        -0.4632   -6.7594    5.3582 H         1 <0>         0.0922
     43 H20        -1.2750   -7.1447    3.8265 H         1 <0>         0.1022
     44 H21        -0.6083   -4.3592    4.8891 H         1 <0>         0.0679
     45 H22         0.2000   -5.1861    3.5424 H         1 <0>         0.0819
     46 H23        -0.6867   -5.2699    1.4136 H         1 <0>         0.0704
     47 H24        -1.9736   -6.3303    2.0362 H         1 <0>         0.0571
     48 H25        -2.3930   -4.8892    1.0793 H         1 <0>         0.0649
     49 H26        -0.5873   -2.3820   -2.0199 H         1 <0>         0.0577
     50 H27        -1.6360   -3.7164   -1.4834 H         1 <0>         0.0626
     51 H28        -2.3458   -2.1367   -1.8945 H         1 <0>         0.0567
@<TRIPOS>BOND
     1    1    2 1
     2    1   27 1
     3    1   28 1
     4    1   29 1
     5    2    3 2
     6    2   30 1
     7    3    9 1
     8    3    4 1
     9    4    5 2
    10    4    6 1
    11    6    7 1
    12    6   31 1
    13    6   32 1
    14    7    8 1
    15    7   14 1
    16    7    9 1
    17    9   10 1
    18    9   26 1
    19   10   11 1
    20   10   33 1
    21   10   34 1
    22   11   12 1
    23   11   35 1
    24   11   36 1
    25   12   13 1
    26   12   24 1
    27   12   14 1
    28   14   15 1
    29   14   16 1
    30   16   17 1
    31   16   37 1
    32   16   38 1
    33   17   18 1
    34   17   39 1
    35   17   40 1
    36   18   24 1
    37   18   19 2
    38   19   20 1
    39   19   41 1
    40   20   21 2
    41   20   22 1
    42   22   23 1
    43   22   42 1
    44   22   43 1
    45   23   24 1
    46   23   44 1
    47   23   45 1
    48   24   25 1
    49   25   46 1
    50   25   47 1
    51   25   48 1
    52   26   49 1
    53   26   50 1
    54   26   51 1
@<TRIPOS>MOLECULE
ZINC13783217
   51    54     0     0     0
SMALL
USER_CHARGES

@<TRIPOS>ATOM
      1 C1         -0.0246    1.5012   -0.0652 C.3       1 <0>        -0.1446
      2 C2          0.0021   -0.0041    0.0020 C.2       1 <0>        -0.0544
      3 C3         -1.1391   -0.6875    0.1100 C.2       1 <0>        -0.2100
      4 C4         -1.2761   -2.1485    0.2273 C.2       1 <0>         0.3914
      5 O1         -0.3675   -2.9523    0.2498 O.2       1 <0>        -0.4493
      6 C5         -2.7592   -2.4702    0.3160 C.3       1 <0>        -0.1794
      7 C6         -3.4400   -1.2429   -0.3645 C.3       1 <0>        -0.0670
      8 H1         -4.4754   -1.1126   -0.0498 H         1 <0>         0.0980
      9 C7         -2.5321   -0.1077    0.1414 C.3       1 <0>        -0.0144
     10 C8         -2.6648    1.1552   -0.6785 C.3       1 <0>        -0.1298
     11 C9         -2.4155    0.8605   -2.1550 C.3       1 <0>        -0.1221
     12 C10        -3.4580   -0.1552   -2.6463 C.3       1 <0>        -0.0606
     13 H2         -4.4594    0.2515   -2.5057 H         1 <0>         0.0814
     14 C11        -3.3200   -1.4716   -1.8764 C.3       1 <0>        -0.0731
     15 H3         -2.3360   -1.8923   -2.0835 H         1 <0>         0.0671
     16 C12        -4.3674   -2.5138   -2.2603 C.3       1 <0>        -0.1116
     17 C13        -4.7868   -2.4171   -3.7195 C.3       1 <0>        -0.0935
     18 C14        -3.6671   -1.8028   -4.5220 C.2       1 <0>        -0.0198
     19 C15        -3.1040   -2.4721   -5.5226 C.2       1 <0>        -0.2427
     20 C16        -2.0096   -1.8893   -6.2966 C.2       1 <0>         0.3872
     21 O2         -1.5248   -2.5065   -7.2219 O.2       1 <0>        -0.4644
     22 C17        -1.4837   -0.5201   -5.9450 C.3       1 <0>        -0.1698
     23 C18        -1.7207   -0.2654   -4.4524 C.3       1 <0>        -0.1089
     24 C19        -3.1973   -0.3758   -4.1420 C.3       1 <0>        -0.0304
     25 C20        -3.9843    0.6549   -4.9540 C.3       1 <0>        -0.1414
     26 C21        -2.9009    0.2201    1.5896 C.3       1 <0>        -0.1431
     27 H4         -0.5743    1.8934    0.7904 H         1 <0>         0.0784
     28 H5          0.9959    1.8838   -0.0478 H         1 <0>         0.0662
     29 H6         -0.5146    1.8151   -0.9868 H         1 <0>         0.0910
     30 H7          0.9447   -0.5298   -0.0372 H         1 <0>         0.1230
     31 H8         -2.9864   -3.3862   -0.2293 H         1 <0>         0.0949
     32 H9         -3.0720   -2.5543    1.3567 H         1 <0>         0.1045
     33 H10        -3.6693    1.5603   -0.5564 H         1 <0>         0.0681
     34 H11        -1.9384    1.8893   -0.3299 H         1 <0>         0.0880
     35 H12        -2.5045    1.7818   -2.7308 H         1 <0>         0.0693
     36 H13        -1.4152    0.4460   -2.2803 H         1 <0>         0.0722
     37 H14        -3.9585   -3.5074   -2.0769 H         1 <0>         0.0661
     38 H15        -5.2472   -2.3763   -1.6316 H         1 <0>         0.0714
     39 H16        -5.0038   -3.4144   -4.1023 H         1 <0>         0.0769
     40 H17        -5.6773   -1.7940   -3.8015 H         1 <0>         0.0844
     41 H18        -3.4602   -3.4618   -5.7673 H         1 <0>         0.1302
     42 H19        -0.4157   -0.4735   -6.1582 H         1 <0>         0.0953
     43 H20        -2.0080    0.2341   -6.5318 H         1 <0>         0.1037
     44 H21        -1.1571   -0.9898   -3.8645 H         1 <0>         0.0718
     45 H22        -1.3973    0.7441   -4.1985 H         1 <0>         0.0837
     46 H23        -3.6652    1.6588   -4.6737 H         1 <0>         0.0673
     47 H24        -3.7992    0.4984   -6.0167 H         1 <0>         0.0599
     48 H25        -5.0491    0.5419   -4.7501 H         1 <0>         0.0619
     49 H26        -2.2071    0.9636    1.9819 H         1 <0>         0.0585
     50 H27        -3.9159    0.6158    1.6254 H         1 <0>         0.0628
     51 H28        -2.8425   -0.6855    2.1934 H         1 <0>         0.0559
@<TRIPOS>BOND
     1    1    2 1
     2    1   27 1
     3    1   28 1
     4    1   29 1
     5    2    3 2
     6    2   30 1
     7    3    9 1
     8    3    4 1
     9    4    5 2
    10    4    6 1
    11    6    7 1
    12    6   31 1
    13    6   32 1
    14    7    8 1
    15    7   14 1
    16    7    9 1
    17    9   10 1
    18    9   26 1
    19   10   11 1
    20   10   33 1
    21   10   34 1
    22   11   12 1
    23   11   35 1
    24   11   36 1
    25   12   13 1
    26   12   24 1
    27   12   14 1
    28   14   15 1
    29   14   16 1
    30   16   17 1
    31   16   37 1
    32   16   38 1
    33   17   18 1
    34   17   39 1
    35   17   40 1
    36   18   24 1
    37   18   19 2
    38   19   20 1
    39   19   41 1
    40   20   21 2
    41   20   22 1
    42   22   23 1
    43   22   42 1
    44   22   43 1
    45   23   24 1
    46   23   44 1
    47   23   45 1
    48   24   25 1
    49   25   46 1
    50   25   47 1
    51   25   48 1
    52   26   49 1
    53   26   50 1
    54   26   51 1
@<TRIPOS>MOLECULE
ZINC14968243
   29    30     0     0     0
SMALL
USER_CHARGES
6-dimethylamino-4-(trifluoromethyl)-1H-quinolin-2-one
@<TRIPOS>ATOM
      1 C1         -0.0127    1.0858    0.0080 C.3       1 <0>         0.0890
      2 N1         -0.6984    1.5583    1.2133 N.pl3     1 <0>        -0.6352
      3 C2          0.0634    1.8061    2.4399 C.3       1 <0>         0.0904
      4 C3         -2.0804    1.7728    1.1930 C.ar      1 <0>         0.2004
      5 C4         -2.7311    2.2171    2.3438 C.ar      1 <0>        -0.1297
      6 C5         -4.0900    2.4380    2.3400 C.ar      1 <0>        -0.1062
      7 C6         -4.8289    2.2078    1.1839 C.ar      1 <0>         0.1336
      8 C7         -4.1780    1.7543    0.0213 C.ar      1 <0>        -0.0597
      9 C8         -2.7961    1.5381    0.0344 C.ar      1 <0>        -0.1517
     10 C9         -4.9684    1.5167   -1.1881 C.2       1 <0>        -0.0910
     11 C10        -6.3045    1.7432   -1.1443 C.2       1 <0>        -0.1288
     12 C11        -6.9097    2.1976    0.0468 C.2       1 <0>         0.5339
     13 O1         -8.1125    2.3946    0.0645 O.2       1 <0>        -0.5258
     14 N2         -6.1929    2.4191    1.1624 N.am      1 <0>        -0.6187
     15 H1         -6.6408    2.7317    1.9640 H         1 <0>         0.4199
     16 C12        -4.3109    1.0315   -2.4544 C.3       1 <0>         0.5095
     17 F1         -5.2776    0.8847   -3.4550 F         1 <0>        -0.1682
     18 F2         -3.3502    1.9610   -2.8668 F         1 <0>        -0.1672
     19 F3         -3.6947   -0.2019   -2.2168 F         1 <0>        -0.1668
     20 H2          0.0021   -0.0041    0.0020 H         1 <0>         0.0529
     21 H3          1.0099    1.4631    0.0003 H         1 <0>         0.0712
     22 H4         -0.5399    1.4469   -0.8751 H         1 <0>         0.0691
     23 H5          0.4076    2.8402    2.4512 H         1 <0>         0.0520
     24 H6         -0.5735    1.6257    3.3059 H         1 <0>         0.0698
     25 H7          0.9229    1.1366    2.4753 H         1 <0>         0.0705
     26 H8         -2.1630    2.3931    3.2453 H         1 <0>         0.1385
     27 H9         -4.5831    2.7861    3.2356 H         1 <0>         0.1410
     28 H10        -2.2919    1.1898   -0.8549 H         1 <0>         0.1359
     29 H11        -6.9079    1.5746   -2.0240 H         1 <0>         0.1715
@<TRIPOS>BOND
     1    1    2 1
     2    1   20 1
     3    1   21 1
     4    1   22 1
     5    2    3 1
     6    2    4 1
     7    3   23 1
     8    3   24 1
     9    3   25 1
    10    4    9 ar
    11    4    5 ar
    12    5    6 ar
    13    5   26 1
    14    6    7 ar
    15    6   27 1
    16    7   14 1
    17    7    8 ar
    18    8    9 ar
    19    8   10 1
    20    9   28 1
    21   10   11 2
    22   10   16 1
    23   11   12 1
    24   11   29 1
    25   12   13 2
    26   12   14 am
    27   14   15 1
    28   16   17 1
    29   16   18 1
    30   16   19 1
