@<TRIPOS>MOLECULE
ZINC19166991
   23    23     0     0     0
SMALL
USER_CHARGES

@<TRIPOS>ATOM
      1 C1         -0.0167    1.3781    0.0096 C.ar      1 <0>        -0.1082
      2 C2          1.1709    2.0855    0.0021 C.ar      1 <0>        -0.1149
      3 C3          2.3773    1.4107   -0.0130 C.ar      1 <0>        -0.1108
      4 C4          2.3960    0.0285   -0.0201 C.ar      1 <0>        -0.1054
      5 C5          1.2084   -0.6789   -0.0117 C.ar      1 <0>        -0.1139
      6 C6          0.0021   -0.0041    0.0020 C.ar      1 <0>        -0.1155
      7 C7          3.7112   -0.7071   -0.0376 C.3       1 <0>        -0.0701
      8 C8          4.1714   -0.9633    1.3989 C.3       1 <0>         0.0158
      9 N1          5.4533   -1.6804    1.3819 N.3       1 <0>        -0.4911
     10 N2          5.9223   -1.9415    2.7332 N.4       1 <0>        -0.4992
     11 H1         -0.9591    1.9053    0.0259 H         1 <0>         0.1285
     12 H2          1.1563    3.1654    0.0076 H         1 <0>         0.1285
     13 H3          3.3051    1.9634   -0.0196 H         1 <0>         0.1246
     14 H4          1.2231   -1.7588   -0.0176 H         1 <0>         0.1216
     15 H5         -0.9258   -0.5567    0.0082 H         1 <0>         0.1278
     16 H6          3.5884   -1.6586   -0.5549 H         1 <0>         0.0857
     17 H7          4.4573   -0.1052   -0.5563 H         1 <0>         0.0967
     18 H8          4.2941   -0.0118    1.9163 H         1 <0>         0.1111
     19 H9          3.4252   -1.5652    1.9176 H         1 <0>         0.0767
     20 H10         5.3819   -2.5362    0.8522 H         1 <0>         0.3977
     21 H11         6.0472   -1.0670    3.2207 H         1 <0>         0.4512
     22 H12         5.2428   -2.5050    3.2220 H         1 <0>         0.4121
     23 H13         6.8022   -2.4338    2.6946 H         1 <0>         0.4510
@<TRIPOS>BOND
     1    1    6 ar
     2    1    2 ar
     3    1   11 1
     4    2    3 ar
     5    2   12 1
     6    3    4 ar
     7    3   13 1
     8    4    5 ar
     9    4    7 1
    10    5    6 ar
    11    5   14 1
    12    6   15 1
    13    7    8 1
    14    7   16 1
    15    7   17 1
    16    8    9 1
    17    8   18 1
    18    8   19 1
    19    9   10 1
    20    9   20 1
    21   10   21 1
    22   10   22 1
    23   10   23 1
@<TRIPOS>MOLECULE
ZINC19166991
   23    23     0     0     0
SMALL
USER_CHARGES

@<TRIPOS>ATOM
      1 C1         -0.0167    1.3781    0.0096 C.ar      1 <0>        -0.1022
      2 C2          1.1709    2.0855    0.0021 C.ar      1 <0>        -0.1138
      3 C3          2.3773    1.4107   -0.0130 C.ar      1 <0>        -0.1080
      4 C4          2.3960    0.0285   -0.0201 C.ar      1 <0>        -0.1109
      5 C5          1.2084   -0.6789   -0.0117 C.ar      1 <0>        -0.1101
      6 C6          0.0021   -0.0041    0.0020 C.ar      1 <0>        -0.1145
      7 C7          3.7112   -0.7071   -0.0376 C.3       1 <0>        -0.0983
      8 C8          4.1714   -0.9633    1.3989 C.3       1 <0>         0.0040
      9 N1          5.4533   -1.6804    1.3819 N.4       1 <0>        -0.3650
     10 N2          5.8907   -1.9238    2.7470 N.3       1 <0>        -0.6467
     11 H1         -0.9591    1.9053    0.0259 H         1 <0>         0.1305
     12 H2          1.1563    3.1654    0.0076 H         1 <0>         0.1306
     13 H3          3.3051    1.9634   -0.0196 H         1 <0>         0.1257
     14 H4          1.2231   -1.7588   -0.0176 H         1 <0>         0.1238
     15 H5         -0.9258   -0.5567    0.0082 H         1 <0>         0.1300
     16 H6          3.5884   -1.6586   -0.5549 H         1 <0>         0.0954
     17 H7          4.4573   -0.1052   -0.5563 H         1 <0>         0.0985
     18 H8          4.2941   -0.0118    1.9163 H         1 <0>         0.1425
     19 H9          3.4252   -1.5652    1.9176 H         1 <0>         0.1307
     20 H10         5.3397   -2.5612    0.9030 H         1 <0>         0.4079
     21 H11         5.1869   -2.4250    3.2682 H         1 <0>         0.4018
     22 H12         6.7712   -2.4163    2.7623 H         1 <0>         0.4020
     23 H13         6.1440   -1.1232    0.9018 H         1 <0>         0.4462
@<TRIPOS>BOND
     1    1    6 ar
     2    1    2 ar
     3    1   11 1
     4    2    3 ar
     5    2   12 1
     6    3    4 ar
     7    3   13 1
     8    4    5 ar
     9    4    7 1
    10    5    6 ar
    11    5   14 1
    12    6   15 1
    13    7    8 1
    14    7   16 1
    15    7   17 1
    16    8    9 1
    17    8   18 1
    18    8   19 1
    19    9   10 1
    20    9   20 1
    21    9   23 1
    22   10   21 1
    23   10   22 1
@<TRIPOS>MOLECULE
ZINC64491718
   25    25     0     0     0
SMALL
USER_CHARGES

@<TRIPOS>ATOM
      1 C1         -0.0178    1.4648    0.0101 C.3       1 <0>         0.0212
      2 N1          0.0021   -0.0041    0.0020 N.3       1 <0>        -0.3909
      3 C2          0.7062   -0.5275    1.1802 C.3       1 <0>         0.0577
      4 C3          0.5158   -2.0437    1.2563 C.3       1 <0>        -0.0774
      5 C4          1.2381   -2.5807    2.4650 C.ar      1 <0>        -0.0828
      6 C5          2.5579   -2.9786    2.3613 C.ar      1 <0>        -0.1160
      7 C6          3.2205   -3.4712    3.4700 C.ar      1 <0>        -0.1183
      8 C7          2.5634   -3.5654    4.6826 C.ar      1 <0>        -0.1237
      9 C8          1.2439   -3.1666    4.7865 C.ar      1 <0>        -0.1184
     10 C9          0.5826   -2.6700    3.6788 C.ar      1 <0>        -0.1163
     11 N2          0.5935   -0.5104   -1.2260 N.3       1 <0>        -0.7049
     12 H1          1.0047    1.8421    0.0024 H         1 <0>         0.0351
     13 H2         -0.5450    1.8259   -0.8730 H         1 <0>         0.0691
     14 H3         -0.5280    1.8163    0.9069 H         1 <0>         0.0760
     15 H4          1.7688   -0.2983    1.1001 H         1 <0>         0.0459
     16 H5          0.3016   -0.0649    2.0805 H         1 <0>         0.0813
     17 H6         -0.5468   -2.2729    1.3365 H         1 <0>         0.0787
     18 H7          0.9204   -2.5063    0.3560 H         1 <0>         0.0719
     19 H8          3.0712   -2.9050    1.4139 H         1 <0>         0.1209
     20 H9          4.2513   -3.7828    3.3888 H         1 <0>         0.1221
     21 H10         3.0808   -3.9508    5.5486 H         1 <0>         0.1215
     22 H11         0.7305   -3.2405    5.7338 H         1 <0>         0.1223
     23 H12        -0.4471   -2.3549    3.7608 H         1 <0>         0.1220
     24 H13         0.6071   -1.5193   -1.2315 H         1 <0>         0.3511
     25 H14         0.1098   -0.1509   -2.0353 H         1 <0>         0.3520
@<TRIPOS>BOND
     1    1    2 1
     2    1   12 1
     3    1   13 1
     4    1   14 1
     5    2    3 1
     6    2   11 1
     7    3    4 1
     8    3   15 1
     9    3   16 1
    10    4    5 1
    11    4   17 1
    12    4   18 1
    13    5   10 ar
    14    5    6 ar
    15    6    7 ar
    16    6   19 1
    17    7    8 ar
    18    7   20 1
    19    8    9 ar
    20    8   21 1
    21    9   10 ar
    22    9   22 1
    23   10   23 1
    24   11   24 1
    25   11   25 1
@<TRIPOS>MOLECULE
ZINC64491718
   26    26     0     0     0
SMALL
USER_CHARGES

@<TRIPOS>ATOM
      1 C1         -0.0178    1.4648    0.0101 C.3       1 <0>        -0.0346
      2 N1          0.0021   -0.0041    0.0020 N.4       1 <0>        -0.2450
      3 C2          0.7126   -0.4907    1.1921 C.3       1 <0>         0.0032
      4 C3          0.6259   -2.0172    1.2492 C.3       1 <0>        -0.1016
      5 C4          1.3548   -2.5164    2.4701 C.ar      1 <0>        -0.1096
      6 C5          2.7010   -2.8212    2.3949 C.ar      1 <0>        -0.1082
      7 C6          3.3696   -3.2791    3.5148 C.ar      1 <0>        -0.1137
      8 C7          2.6920   -3.4318    4.7100 C.ar      1 <0>        -0.1029
      9 C8          1.3460   -3.1262    4.7854 C.ar      1 <0>        -0.1140
     10 C9          0.6784   -2.6642    3.6666 C.ar      1 <0>        -0.1104
     11 N2          0.6826   -0.4730   -1.1943 N.3       1 <0>        -0.6522
     12 H1          1.0047    1.8421    0.0024 H         1 <0>         0.1313
     13 H2         -0.5450    1.8259   -0.8730 H         1 <0>         0.1227
     14 H3         -0.5280    1.8163    0.9069 H         1 <0>         0.1317
     15 H4          1.7583   -0.1878    1.1401 H         1 <0>         0.1410
     16 H5          0.2557   -0.0671    2.0865 H         1 <0>         0.1396
     17 H6         -0.4199   -2.3200    1.3012 H         1 <0>         0.0930
     18 H7          1.0828   -2.4407    0.3548 H         1 <0>         0.0917
     19 H8          3.2304   -2.7018    1.4611 H         1 <0>         0.1252
     20 H9          4.4212   -3.5179    3.4559 H         1 <0>         0.1303
     21 H10         3.2142   -3.7902    5.5848 H         1 <0>         0.1304
     22 H11         0.8166   -3.2458    5.7191 H         1 <0>         0.1301
     23 H12        -0.3723   -2.4219    3.7264 H         1 <0>         0.1240
     24 H13         0.7665   -1.4785   -1.1919 H         1 <0>         0.3961
     25 H14         0.2128   -0.1512   -2.0272 H         1 <0>         0.3978
     26 H15        -0.9445   -0.3533    0.0092 H         1 <0>         0.4040
@<TRIPOS>BOND
     1    1    2 1
     2    1   12 1
     3    1   13 1
     4    1   14 1
     5    2    3 1
     6    2   11 1
     7    2   26 1
     8    3    4 1
     9    3   15 1
    10    3   16 1
    11    4    5 1
    12    4   17 1
    13    4   18 1
    14    5   10 ar
    15    5    6 ar
    16    6    7 ar
    17    6   19 1
    18    7    8 ar
    19    7   20 1
    20    8    9 ar
    21    8   21 1
    22    9   10 ar
    23    9   22 1
    24   10   23 1
    25   11   24 1
    26   11   25 1
@<TRIPOS>MOLECULE
ZINC64491718
   26    26     0     0     0
SMALL
USER_CHARGES

@<TRIPOS>ATOM
      1 C1         -0.0178    1.4648    0.0101 C.3       1 <0>        -0.0305
      2 N1          0.0021   -0.0041    0.0020 N.3       1 <0>        -0.3420
      3 C2          0.7062   -0.5275    1.1802 C.3       1 <0>         0.0095
      4 C3          0.5158   -2.0437    1.2563 C.3       1 <0>        -0.0823
      5 C4          1.2381   -2.5807    2.4650 C.ar      1 <0>        -0.1077
      6 C5          2.5579   -2.9786    2.3613 C.ar      1 <0>        -0.1165
      7 C6          3.2205   -3.4712    3.4700 C.ar      1 <0>        -0.1150
      8 C7          2.5634   -3.5654    4.6826 C.ar      1 <0>        -0.1075
      9 C8          1.2439   -3.1666    4.7865 C.ar      1 <0>        -0.1129
     10 C9          0.5826   -2.6700    3.6788 C.ar      1 <0>        -0.1092
     11 N2          0.5935   -0.5104   -1.2260 N.4       1 <0>        -0.5111
     12 H1          1.0047    1.8421    0.0024 H         1 <0>         0.0719
     13 H2         -0.5450    1.8259   -0.8730 H         1 <0>         0.1065
     14 H3         -0.5280    1.8163    0.9069 H         1 <0>         0.1311
     15 H4          1.7688   -0.2983    1.1001 H         1 <0>         0.0815
     16 H5          0.3016   -0.0649    2.0805 H         1 <0>         0.1352
     17 H6         -0.5468   -2.2729    1.3365 H         1 <0>         0.0996
     18 H7          0.9204   -2.5063    0.3560 H         1 <0>         0.0685
     19 H8          3.0712   -2.9050    1.4139 H         1 <0>         0.1186
     20 H9          4.2513   -3.7828    3.3888 H         1 <0>         0.1277
     21 H10         3.0808   -3.9508    5.5486 H         1 <0>         0.1290
     22 H11         0.7305   -3.2405    5.7338 H         1 <0>         0.1294
     23 H12        -0.4471   -2.3549    3.7608 H         1 <0>         0.1257
     24 H13         1.5608   -0.2276   -1.2750 H         1 <0>         0.4075
     25 H14         0.5367   -1.5178   -1.2362 H         1 <0>         0.4457
     26 H15         0.0933   -0.1373   -2.0189 H         1 <0>         0.4473
@<TRIPOS>BOND
     1    1    2 1
     2    1   12 1
     3    1   13 1
     4    1   14 1
     5    2    3 1
     6    2   11 1
     7    3    4 1
     8    3   15 1
     9    3   16 1
    10    4    5 1
    11    4   17 1
    12    4   18 1
    13    5   10 ar
    14    5    6 ar
    15    6    7 ar
    16    6   19 1
    17    7    8 ar
    18    7   20 1
    19    8    9 ar
    20    8   21 1
    21    9   10 ar
    22    9   22 1
    23   10   23 1
    24   11   24 1
    25   11   25 1
    26   11   26 1
@<TRIPOS>MOLECULE
ZINC64479838
   25    25     0     0     0
SMALL
USER_CHARGES

@<TRIPOS>ATOM
      1 C1         -0.0178    1.4648    0.0101 C.3       1 <0>        -0.0240
      2 N1          0.0021   -0.0041    0.0020 N.3       1 <0>        -0.3574
      3 C2          0.7062   -0.5275    1.1802 C.3       1 <0>         0.0609
      4 C3          0.9025   -2.0372    1.0281 C.3       1 <0>        -0.0676
      5 C4          1.6248   -2.5742    2.2368 C.ar      1 <0>        -0.1171
      6 C5          2.9990   -2.7208    2.2125 C.ar      1 <0>        -0.0887
      7 C6          3.6618   -3.2132    3.3210 C.ar      1 <0>        -0.1284
      8 C7          2.9511   -3.5598    4.4553 C.ar      1 <0>        -0.0954
      9 C8          1.5774   -3.4137    4.4821 C.ar      1 <0>        -0.1536
     10 C9          0.9129   -2.9154    3.3740 C.ar      1 <0>         0.0987
     11 F1         -0.4298   -2.7678    3.4007 F         1 <0>        -0.1374
     12 N2         -1.3458   -0.5430   -0.0816 N.3       1 <0>        -0.6673
     13 H1          1.0047    1.8421    0.0024 H         1 <0>         0.0798
     14 H2         -0.5450    1.8259   -0.8730 H         1 <0>         0.0738
     15 H3         -0.5280    1.8163    0.9069 H         1 <0>         0.0286
     16 H4          1.6780   -0.0418    1.2683 H         1 <0>         0.0825
     17 H5          0.1169   -0.3261    2.0749 H         1 <0>         0.0381
     18 H6         -0.0693   -2.5229    0.9401 H         1 <0>         0.0884
     19 H7          1.4917   -2.2386    0.1335 H         1 <0>         0.0852
     20 H8          3.5550   -2.4507    1.3269 H         1 <0>         0.1334
     21 H9          4.7355   -3.3278    3.3009 H         1 <0>         0.1300
     22 H10         3.4700   -3.9451    5.3206 H         1 <0>         0.1322
     23 H11         1.0225   -3.6847    5.3681 H         1 <0>         0.1345
     24 H12        -1.8640   -0.3535    0.7631 H         1 <0>         0.3155
     25 H13        -1.8294   -0.1835   -0.8909 H         1 <0>         0.3550
@<TRIPOS>BOND
     1    1    2 1
     2    1   13 1
     3    1   14 1
     4    1   15 1
     5    2    3 1
     6    2   12 1
     7    3    4 1
     8    3   16 1
     9    3   17 1
    10    4    5 1
    11    4   18 1
    12    4   19 1
    13    5   10 ar
    14    5    6 ar
    15    6    7 ar
    16    6   20 1
    17    7    8 ar
    18    7   21 1
    19    8    9 ar
    20    8   22 1
    21    9   10 ar
    22    9   23 1
    23   10   11 1
    24   12   24 1
    25   12   25 1
@<TRIPOS>MOLECULE
ZINC64479838
   26    26     0     0     0
SMALL
USER_CHARGES

@<TRIPOS>ATOM
      1 C1         -0.0178    1.4648    0.0101 C.3       1 <0>        -0.0342
      2 N1          0.0021   -0.0041    0.0020 N.4       1 <0>        -0.2397
      3 C2          0.7126   -0.4907    1.1921 C.3       1 <0>        -0.0443
      4 C3          0.8424   -2.0135    1.1214 C.3       1 <0>        -0.1015
      5 C4          1.5713   -2.5128    2.3423 C.ar      1 <0>        -0.1426
      6 C5          2.9372   -2.7190    2.2959 C.ar      1 <0>        -0.0799
      7 C6          3.6060   -3.1769    3.4156 C.ar      1 <0>        -0.1210
      8 C7          2.9097   -3.4291    4.5832 C.ar      1 <0>        -0.0725
      9 C8          1.5442   -3.2232    4.6321 C.ar      1 <0>        -0.1460
     10 C9          0.8739   -2.7595    3.5125 C.ar      1 <0>         0.1042
     11 F1         -0.4604   -2.5534    3.5605 F         1 <0>        -0.1390
     12 N2         -1.3620   -0.5073    0.0123 N.3       1 <0>        -0.6445
     13 H1          1.0047    1.8421    0.0024 H         1 <0>         0.1321
     14 H2         -0.5450    1.8259   -0.8730 H         1 <0>         0.1348
     15 H3         -0.5280    1.8163    0.9069 H         1 <0>         0.1202
     16 H4          1.7055   -0.0428    1.2310 H         1 <0>         0.1432
     17 H5          0.1543   -0.2148    2.0867 H         1 <0>         0.1317
     18 H6         -0.1505   -2.4615    1.0826 H         1 <0>         0.0911
     19 H7          1.4007   -2.2894    0.2268 H         1 <0>         0.1064
     20 H8          3.4821   -2.5227    1.3843 H         1 <0>         0.1374
     21 H9          4.6733   -3.3381    3.3783 H         1 <0>         0.1398
     22 H10         3.4332   -3.7875    5.4572 H         1 <0>         0.1429
     23 H11         1.0005   -3.4205    5.5441 H         1 <0>         0.1441
     24 H12        -1.3766   -1.5138   -0.0579 H         1 <0>         0.3967
     25 H13        -1.8564   -0.1950    0.8346 H         1 <0>         0.3991
     26 H14         0.4744   -0.3295   -0.8281 H         1 <0>         0.4416
@<TRIPOS>BOND
     1    1    2 1
     2    1   13 1
     3    1   14 1
     4    1   15 1
     5    2    3 1
     6    2   12 1
     7    2   26 1
     8    3    4 1
     9    3   16 1
    10    3   17 1
    11    4    5 1
    12    4   18 1
    13    4   19 1
    14    5   10 ar
    15    5    6 ar
    16    6    7 ar
    17    6   20 1
    18    7    8 ar
    19    7   21 1
    20    8    9 ar
    21    8   22 1
    22    9   10 ar
    23    9   23 1
    24   10   11 1
    25   12   24 1
    26   12   25 1
@<TRIPOS>MOLECULE
ZINC64479838
   26    26     0     0     0
SMALL
USER_CHARGES

@<TRIPOS>ATOM
      1 C1         -0.0178    1.4648    0.0101 C.3       1 <0>        -0.0304
      2 N1          0.0021   -0.0041    0.0020 N.3       1 <0>        -0.3409
      3 C2          0.7062   -0.5275    1.1802 C.3       1 <0>         0.0093
      4 C3          0.9025   -2.0372    1.0281 C.3       1 <0>        -0.0825
      5 C4          1.6248   -2.5742    2.2368 C.ar      1 <0>        -0.1381
      6 C5          2.9990   -2.7208    2.2125 C.ar      1 <0>        -0.0808
      7 C6          3.6618   -3.2132    3.3210 C.ar      1 <0>        -0.1210
      8 C7          2.9511   -3.5598    4.4553 C.ar      1 <0>        -0.0783
      9 C8          1.5774   -3.4137    4.4821 C.ar      1 <0>        -0.1472
     10 C9          0.9129   -2.9154    3.3740 C.ar      1 <0>         0.0982
     11 F1         -0.4298   -2.7678    3.4007 F         1 <0>        -0.1435
     12 N2         -1.3458   -0.5430   -0.0816 N.4       1 <0>        -0.5111
     13 H1          1.0047    1.8421    0.0024 H         1 <0>         0.1314
     14 H2         -0.5450    1.8259   -0.8730 H         1 <0>         0.1072
     15 H3         -0.5280    1.8163    0.9069 H         1 <0>         0.0721
     16 H4          1.6780   -0.0418    1.2683 H         1 <0>         0.1370
     17 H5          0.1169   -0.3261    2.0749 H         1 <0>         0.0812
     18 H6         -0.0693   -2.5229    0.9401 H         1 <0>         0.0718
     19 H7          1.4917   -2.2386    0.1335 H         1 <0>         0.1060
     20 H8          3.5550   -2.4507    1.3269 H         1 <0>         0.1377
     21 H9          4.7355   -3.3278    3.3009 H         1 <0>         0.1380
     22 H10         3.4700   -3.9451    5.3206 H         1 <0>         0.1406
     23 H11         1.0225   -3.6847    5.3681 H         1 <0>         0.1413
     24 H12        -1.8074   -0.1692   -0.8972 H         1 <0>         0.4475
     25 H13        -1.3022   -1.5487   -0.1511 H         1 <0>         0.4458
     26 H14        -1.8630   -0.2851    0.7454 H         1 <0>         0.4088
@<TRIPOS>BOND
     1    1    2 1
     2    1   13 1
     3    1   14 1
     4    1   15 1
     5    2    3 1
     6    2   12 1
     7    3    4 1
     8    3   16 1
     9    3   17 1
    10    4    5 1
    11    4   18 1
    12    4   19 1
    13    5   10 ar
    14    5    6 ar
    15    6    7 ar
    16    6   20 1
    17    7    8 ar
    18    7   21 1
    19    8    9 ar
    20    8   22 1
    21    9   10 ar
    22    9   23 1
    23   10   11 1
    24   12   24 1
    25   12   25 1
    26   12   26 1
@<TRIPOS>MOLECULE
ZINC64475320
   25    25     0     0     0
SMALL
USER_CHARGES

@<TRIPOS>ATOM
      1 C1         -0.0178    1.4648    0.0101 C.3       1 <0>         0.0211
      2 N1          0.0021   -0.0041    0.0020 N.3       1 <0>        -0.3906
      3 C2          0.7062   -0.5275    1.1802 C.3       1 <0>         0.0563
      4 C3          0.5158   -2.0437    1.2563 C.3       1 <0>        -0.0767
      5 C4          1.2381   -2.5807    2.4650 C.ar      1 <0>        -0.0931
      6 C5          2.5580   -2.9784    2.3607 C.ar      1 <0>        -0.0858
      7 C6          3.2216   -3.4706    3.4685 C.ar      1 <0>        -0.1514
      8 C7          2.5639   -3.5652    4.6833 C.ar      1 <0>         0.0947
      9 C8          1.2420   -3.1665    4.7866 C.ar      1 <0>        -0.1515
     10 C9          0.5821   -2.6698    3.6786 C.ar      1 <0>        -0.0861
     11 F1          3.2115   -4.0466    5.7669 F         1 <0>        -0.1397
     12 N2          0.5935   -0.5104   -1.2260 N.3       1 <0>        -0.7049
     13 H1          1.0047    1.8421    0.0024 H         1 <0>         0.0354
     14 H2         -0.5450    1.8259   -0.8730 H         1 <0>         0.0694
     15 H3         -0.5280    1.8163    0.9069 H         1 <0>         0.0763
     16 H4          1.7688   -0.2983    1.1001 H         1 <0>         0.0467
     17 H5          0.3016   -0.0649    2.0805 H         1 <0>         0.0822
     18 H6         -0.5468   -2.2729    1.3365 H         1 <0>         0.0815
     19 H7          0.9204   -2.5063    0.3560 H         1 <0>         0.0744
     20 H8          3.0706   -2.9049    1.4130 H         1 <0>         0.1325
     21 H9          4.2526   -3.7816    3.3867 H         1 <0>         0.1360
     22 H10         0.7280   -3.2402    5.7335 H         1 <0>         0.1362
     23 H11        -0.4477   -2.3546    3.7600 H         1 <0>         0.1336
     24 H12         0.6071   -1.5193   -1.2315 H         1 <0>         0.3511
     25 H13         0.1098   -0.1509   -2.0353 H         1 <0>         0.3525
@<TRIPOS>BOND
     1    1    2 1
     2    1   13 1
     3    1   14 1
     4    1   15 1
     5    2    3 1
     6    2   12 1
     7    3    4 1
     8    3   16 1
     9    3   17 1
    10    4    5 1
    11    4   18 1
    12    4   19 1
    13    5   10 ar
    14    5    6 ar
    15    6    7 ar
    16    6   20 1
    17    7    8 ar
    18    7   21 1
    19    8    9 ar
    20    8   11 1
    21    9   10 ar
    22    9   22 1
    23   10   23 1
    24   12   24 1
    25   12   25 1
@<TRIPOS>MOLECULE
ZINC64475320
   26    26     0     0     0
SMALL
USER_CHARGES

@<TRIPOS>ATOM
      1 C1         -0.0178    1.4648    0.0101 C.3       1 <0>        -0.0305
      2 N1          0.0021   -0.0041    0.0020 N.3       1 <0>        -0.3415
      3 C2          0.7062   -0.5275    1.1802 C.3       1 <0>         0.0077
      4 C3          0.5988   -2.0536    1.2023 C.3       1 <0>        -0.0827
      5 C4          1.3212   -2.5905    2.4110 C.ar      1 <0>        -0.1198
      6 C5          2.6632   -2.9115    2.3275 C.ar      1 <0>        -0.0848
      7 C6          3.3268   -3.4036    3.4354 C.ar      1 <0>        -0.1508
      8 C7          2.6469   -3.5751    4.6293 C.ar      1 <0>         0.1150
      9 C8          1.3027   -3.2533    4.7118 C.ar      1 <0>        -0.1486
     10 C9          0.6426   -2.7564    3.6040 C.ar      1 <0>        -0.0773
     11 F1          3.2944   -4.0565    5.7129 F         1 <0>        -0.1301
     12 N2          0.5935   -0.5104   -1.2260 N.4       1 <0>        -0.5119
     13 H1          1.0047    1.8421    0.0024 H         1 <0>         0.0723
     14 H2         -0.5450    1.8259   -0.8730 H         1 <0>         0.1068
     15 H3         -0.5280    1.8163    0.9069 H         1 <0>         0.1315
     16 H4          1.7560   -0.2377    1.1346 H         1 <0>         0.0819
     17 H5          0.2553   -0.1185    2.0844 H         1 <0>         0.1374
     18 H6         -0.4509   -2.3433    1.2479 H         1 <0>         0.1028
     19 H7          1.0497   -2.4626    0.2981 H         1 <0>         0.0699
     20 H8          3.1933   -2.7780    1.3961 H         1 <0>         0.1301
     21 H9          4.3752   -3.6546    3.3699 H         1 <0>         0.1416
     22 H10         0.7713   -3.3869    5.6424 H         1 <0>         0.1433
     23 H11        -0.4048   -2.5011    3.6692 H         1 <0>         0.1372
     24 H12         1.5411   -0.1736   -1.3067 H         1 <0>         0.4078
     25 H13         0.5955   -1.5192   -1.2072 H         1 <0>         0.4442
     26 H14         0.0541   -0.1898   -2.0162 H         1 <0>         0.4487
@<TRIPOS>BOND
     1    1    2 1
     2    1   13 1
     3    1   14 1
     4    1   15 1
     5    2    3 1
     6    2   12 1
     7    3    4 1
     8    3   16 1
     9    3   17 1
    10    4    5 1
    11    4   18 1
    12    4   19 1
    13    5   10 ar
    14    5    6 ar
    15    6    7 ar
    16    6   20 1
    17    7    8 ar
    18    7   21 1
    19    8    9 ar
    20    8   11 1
    21    9   10 ar
    22    9   22 1
    23   10   23 1
    24   12   24 1
    25   12   25 1
    26   12   26 1
@<TRIPOS>MOLECULE
ZINC64475320
   26    26     0     0     0
SMALL
USER_CHARGES

@<TRIPOS>ATOM
      1 C1         -0.0178    1.4648    0.0101 C.3       1 <0>        -0.0834
      2 N1          0.0021   -0.0041    0.0020 N.4       1 <0>        -0.2416
      3 C2          0.7126   -0.4907    1.1921 C.3       1 <0>         0.0061
      4 C3          0.6259   -2.0172    1.2492 C.3       1 <0>        -0.0895
      5 C4          1.3548   -2.5164    2.4701 C.ar      1 <0>        -0.1217
      6 C5          2.7011   -2.8210    2.3943 C.ar      1 <0>        -0.0785
      7 C6          3.3707   -3.2784    3.5134 C.ar      1 <0>        -0.1507
      8 C7          2.6925   -3.4316    4.7108 C.ar      1 <0>         0.1168
      9 C8          1.3441   -3.1263    4.7855 C.ar      1 <0>        -0.1505
     10 C9          0.6779   -2.6640    3.6664 C.ar      1 <0>        -0.0803
     11 F1          3.3460   -3.8792    5.8053 F         1 <0>        -0.1298
     12 N2          0.6826   -0.4730   -1.1943 N.3       1 <0>        -0.6464
     13 H1          1.0047    1.8421    0.0024 H         1 <0>         0.1245
     14 H2         -0.5450    1.8259   -0.8730 H         1 <0>         0.1266
     15 H3         -0.5280    1.8163    0.9069 H         1 <0>         0.1338
     16 H4          1.7584   -0.1878    1.1401 H         1 <0>         0.1292
     17 H5          0.2557   -0.0671    2.0865 H         1 <0>         0.1382
     18 H6         -0.4199   -2.3200    1.3012 H         1 <0>         0.0943
     19 H7          1.0828   -2.4407    0.3548 H         1 <0>         0.1076
     20 H8          3.2298   -2.7017    1.4602 H         1 <0>         0.1353
     21 H9          4.4224   -3.5166    3.4539 H         1 <0>         0.1427
     22 H10         0.8141   -3.2457    5.7188 H         1 <0>         0.1428
     23 H11        -0.3729   -2.4215    3.7255 H         1 <0>         0.1352
     24 H12         0.1775   -0.2058   -2.0258 H         1 <0>         0.3989
     25 H13         1.6333   -0.1364   -1.2248 H         1 <0>         0.3985
     26 H14        -0.9445   -0.3533    0.0092 H         1 <0>         0.4420
@<TRIPOS>BOND
     1    1    2 1
     2    1   13 1
     3    1   14 1
     4    1   15 1
     5    2    3 1
     6    2   12 1
     7    2   26 1
     8    3    4 1
     9    3   16 1
    10    3   17 1
    11    4    5 1
    12    4   18 1
    13    4   19 1
    14    5   10 ar
    15    5    6 ar
    16    6    7 ar
    17    6   20 1
    18    7    8 ar
    19    7   21 1
    20    8    9 ar
    21    8   11 1
    22    9   10 ar
    23    9   22 1
    24   10   23 1
    25   12   24 1
    26   12   25 1
@<TRIPOS>MOLECULE
ZINC64475148
   25    25     0     0     0
SMALL
USER_CHARGES

@<TRIPOS>ATOM
      1 C1         -0.0178    1.4648    0.0101 C.3       1 <0>        -0.0238
      2 N1          0.0021   -0.0041    0.0020 N.3       1 <0>        -0.3564
      3 C2          0.7062   -0.5275    1.1802 C.3       1 <0>         0.0616
      4 C3          0.9025   -2.0372    1.0281 C.3       1 <0>        -0.0730
      5 C4          1.6248   -2.5742    2.2368 C.ar      1 <0>        -0.0742
      6 C5          2.9991   -2.7207    2.2123 C.ar      1 <0>        -0.1052
      7 C6          3.6618   -3.2132    3.3209 C.ar      1 <0>        -0.1132
      8 C7          2.9506   -3.5595    4.4548 C.ar      1 <0>        -0.1125
      9 C8          1.5766   -3.4135    4.4805 C.ar      1 <0>        -0.1101
     10 C9          0.9133   -2.9151    3.3731 C.ar      1 <0>        -0.0348
     11 Cl1        -0.8120   -2.7252    3.4069 Cl        1 <0>        -0.0665
     12 N2         -1.3458   -0.5430   -0.0816 N.3       1 <0>        -0.6659
     13 H1          1.0047    1.8421    0.0024 H         1 <0>         0.0793
     14 H2         -0.5450    1.8259   -0.8730 H         1 <0>         0.0734
     15 H3         -0.5280    1.8163    0.9069 H         1 <0>         0.0283
     16 H4          1.6780   -0.0418    1.2683 H         1 <0>         0.0804
     17 H5          0.1169   -0.3261    2.0749 H         1 <0>         0.0411
     18 H6         -0.0693   -2.5229    0.9401 H         1 <0>         0.0936
     19 H7          1.4917   -2.2386    0.1335 H         1 <0>         0.0831
     20 H8          3.5552   -2.4507    1.3267 H         1 <0>         0.1327
     21 H9          4.7355   -3.3278    3.3011 H         1 <0>         0.1293
     22 H10         3.4688   -3.9446    5.3206 H         1 <0>         0.1314
     23 H11         1.0211   -3.6843    5.3662 H         1 <0>         0.1325
     24 H12        -1.8640   -0.3535    0.7631 H         1 <0>         0.3143
     25 H13        -1.8294   -0.1835   -0.8909 H         1 <0>         0.3544
@<TRIPOS>BOND
     1    1    2 1
     2    1   13 1
     3    1   14 1
     4    1   15 1
     5    2    3 1
     6    2   12 1
     7    3    4 1
     8    3   16 1
     9    3   17 1
    10    4    5 1
    11    4   18 1
    12    4   19 1
    13    5   10 ar
    14    5    6 ar
    15    6    7 ar
    16    6   20 1
    17    7    8 ar
    18    7   21 1
    19    8    9 ar
    20    8   22 1
    21    9   10 ar
    22    9   23 1
    23   10   11 1
    24   12   24 1
    25   12   25 1
@<TRIPOS>MOLECULE
ZINC64475148
   26    26     0     0     0
SMALL
USER_CHARGES

@<TRIPOS>ATOM
      1 C1         -0.0178    1.4648    0.0101 C.3       1 <0>        -0.0344
      2 N1          0.0021   -0.0041    0.0020 N.4       1 <0>        -0.2391
      3 C2          0.7126   -0.4907    1.1921 C.3       1 <0>        -0.0453
      4 C3          0.8424   -2.0135    1.1214 C.3       1 <0>        -0.1071
      5 C4          1.5713   -2.5128    2.3423 C.ar      1 <0>        -0.0993
      6 C5          2.9374   -2.7190    2.2958 C.ar      1 <0>        -0.0952
      7 C6          3.6061   -3.1768    3.4155 C.ar      1 <0>        -0.1060
      8 C7          2.9091   -3.4288    4.5827 C.ar      1 <0>        -0.0889
      9 C8          1.5434   -3.2230    4.6305 C.ar      1 <0>        -0.1025
     10 C9          0.8743   -2.7593    3.5115 C.ar      1 <0>        -0.0308
     11 Cl1        -0.8402   -2.4942    3.5727 Cl        1 <0>        -0.0676
     12 N2         -1.3620   -0.5073    0.0123 N.3       1 <0>        -0.6440
     13 H1          1.0047    1.8421    0.0024 H         1 <0>         0.1324
     14 H2         -0.5450    1.8259   -0.8730 H         1 <0>         0.1351
     15 H3         -0.5280    1.8163    0.9069 H         1 <0>         0.1202
     16 H4          1.7055   -0.0428    1.2310 H         1 <0>         0.1439
     17 H5          0.1543   -0.2148    2.0867 H         1 <0>         0.1318
     18 H6         -0.1505   -2.4615    1.0826 H         1 <0>         0.0930
     19 H7          1.4007   -2.2894    0.2268 H         1 <0>         0.1065
     20 H8          3.4823   -2.5227    1.3842 H         1 <0>         0.1370
     21 H9          4.6733   -3.3381    3.3785 H         1 <0>         0.1394
     22 H10         3.4320   -3.7869    5.4572 H         1 <0>         0.1423
     23 H11         0.9991   -3.4202    5.5422 H         1 <0>         0.1423
     24 H12        -1.3766   -1.5138   -0.0579 H         1 <0>         0.3964
     25 H13        -1.8564   -0.1950    0.8346 H         1 <0>         0.3980
     26 H14         0.4744   -0.3295   -0.8281 H         1 <0>         0.4418
@<TRIPOS>BOND
     1    1    2 1
     2    1   13 1
     3    1   14 1
     4    1   15 1
     5    2    3 1
     6    2   12 1
     7    2   26 1
     8    3    4 1
     9    3   16 1
    10    3   17 1
    11    4    5 1
    12    4   18 1
    13    4   19 1
    14    5   10 ar
    15    5    6 ar
    16    6    7 ar
    17    6   20 1
    18    7    8 ar
    19    7   21 1
    20    8    9 ar
    21    8   22 1
    22    9   10 ar
    23    9   23 1
    24   10   11 1
    25   12   24 1
    26   12   25 1
@<TRIPOS>MOLECULE
ZINC64475148
   26    26     0     0     0
SMALL
USER_CHARGES

@<TRIPOS>ATOM
      1 C1         -0.0178    1.4648    0.0101 C.3       1 <0>        -0.0307
      2 N1          0.0021   -0.0041    0.0020 N.3       1 <0>        -0.3391
      3 C2          0.7062   -0.5275    1.1802 C.3       1 <0>         0.0088
      4 C3          0.9025   -2.0372    1.0281 C.3       1 <0>        -0.0874
      5 C4          1.6248   -2.5742    2.2368 C.ar      1 <0>        -0.0952
      6 C5          2.9991   -2.7207    2.2123 C.ar      1 <0>        -0.0961
      7 C6          3.6618   -3.2132    3.3209 C.ar      1 <0>        -0.1058
      8 C7          2.9506   -3.5595    4.4548 C.ar      1 <0>        -0.0945
      9 C8          1.5766   -3.4135    4.4805 C.ar      1 <0>        -0.1039
     10 C9          0.9133   -2.9151    3.3731 C.ar      1 <0>        -0.0321
     11 Cl1        -0.8120   -2.7252    3.4069 Cl        1 <0>        -0.0780
     12 N2         -1.3458   -0.5430   -0.0816 N.4       1 <0>        -0.5123
     13 H1          1.0047    1.8421    0.0024 H         1 <0>         0.1318
     14 H2         -0.5450    1.8259   -0.8730 H         1 <0>         0.1074
     15 H3         -0.5280    1.8163    0.9069 H         1 <0>         0.0723
     16 H4          1.6780   -0.0418    1.2683 H         1 <0>         0.1372
     17 H5          0.1169   -0.3261    2.0749 H         1 <0>         0.0823
     18 H6         -0.0693   -2.5229    0.9401 H         1 <0>         0.0735
     19 H7          1.4917   -2.2386    0.1335 H         1 <0>         0.1057
     20 H8          3.5552   -2.4507    1.3267 H         1 <0>         0.1374
     21 H9          4.7355   -3.3278    3.3011 H         1 <0>         0.1377
     22 H10         3.4688   -3.9446    5.3206 H         1 <0>         0.1402
     23 H11         1.0211   -3.6843    5.3662 H         1 <0>         0.1397
     24 H12        -1.8074   -0.1692   -0.8972 H         1 <0>         0.4479
     25 H13        -1.3022   -1.5487   -0.1511 H         1 <0>         0.4454
     26 H14        -1.8630   -0.2851    0.7454 H         1 <0>         0.4075
@<TRIPOS>BOND
     1    1    2 1
     2    1   13 1
     3    1   14 1
     4    1   15 1
     5    2    3 1
     6    2   12 1
     7    3    4 1
     8    3   16 1
     9    3   17 1
    10    4    5 1
    11    4   18 1
    12    4   19 1
    13    5   10 ar
    14    5    6 ar
    15    6    7 ar
    16    6   20 1
    17    7    8 ar
    18    7   21 1
    19    8    9 ar
    20    8   22 1
    21    9   10 ar
    22    9   23 1
    23   10   11 1
    24   12   24 1
    25   12   25 1
    26   12   26 1
@<TRIPOS>MOLECULE
ZINC64479798
   25    25     0     0     0
SMALL
USER_CHARGES

@<TRIPOS>ATOM
      1 C1         -0.0178    1.4648    0.0101 C.3       1 <0>         0.0212
      2 N1          0.0021   -0.0041    0.0020 N.3       1 <0>        -0.3904
      3 C2          0.7062   -0.5275    1.1802 C.3       1 <0>         0.0569
      4 C3          0.5158   -2.0437    1.2563 C.3       1 <0>        -0.0777
      5 C4          1.2381   -2.5807    2.4650 C.ar      1 <0>        -0.0691
      6 C5          2.5582   -2.9787    2.3611 C.ar      1 <0>        -0.1112
      7 C6          3.2213   -3.4713    3.4692 C.ar      1 <0>        -0.1040
      8 C7          2.5649   -3.5667    4.6821 C.ar      1 <0>        -0.1143
      9 C8          1.2443   -3.1687    4.7867 C.ar      1 <0>        -0.0322
     10 C9          0.5827   -2.6699    3.6783 C.ar      1 <0>        -0.1073
     11 Cl1         0.4193   -3.2882    6.3094 Cl        1 <0>        -0.0688
     12 N2          0.5935   -0.5104   -1.2260 N.3       1 <0>        -0.7048
     13 H1          1.0047    1.8421    0.0024 H         1 <0>         0.0355
     14 H2         -0.5450    1.8259   -0.8730 H         1 <0>         0.0696
     15 H3         -0.5280    1.8163    0.9069 H         1 <0>         0.0764
     16 H4          1.7688   -0.2983    1.1001 H         1 <0>         0.0471
     17 H5          0.3016   -0.0649    2.0805 H         1 <0>         0.0823
     18 H6         -0.5468   -2.2729    1.3365 H         1 <0>         0.0821
     19 H7          0.9204   -2.5063    0.3560 H         1 <0>         0.0761
     20 H8          3.0712   -2.9050    1.4136 H         1 <0>         0.1288
     21 H9          4.2524   -3.7820    3.3875 H         1 <0>         0.1332
     22 H10         3.0830   -3.9523    5.5477 H         1 <0>         0.1334
     23 H11        -0.4470   -2.3548    3.7604 H         1 <0>         0.1336
     24 H12         0.6071   -1.5193   -1.2315 H         1 <0>         0.3509
     25 H13         0.1098   -0.1509   -2.0353 H         1 <0>         0.3526
@<TRIPOS>BOND
     1    1    2 1
     2    1   13 1
     3    1   14 1
     4    1   15 1
     5    2    3 1
     6    2   12 1
     7    3    4 1
     8    3   16 1
     9    3   17 1
    10    4    5 1
    11    4   18 1
    12    4   19 1
    13    5   10 ar
    14    5    6 ar
    15    6    7 ar
    16    6   20 1
    17    7    8 ar
    18    7   21 1
    19    8    9 ar
    20    8   22 1
    21    9   10 ar
    22    9   11 1
    23   10   23 1
    24   12   24 1
    25   12   25 1
@<TRIPOS>MOLECULE
ZINC64479798
   26    26     0     0     0
SMALL
USER_CHARGES

@<TRIPOS>ATOM
      1 C1         -0.0178    1.4648    0.0101 C.3       1 <0>        -0.0833
      2 N1          0.0021   -0.0041    0.0020 N.4       1 <0>        -0.2416
      3 C2          0.7126   -0.4907    1.1921 C.3       1 <0>         0.0065
      4 C3          0.6259   -2.0172    1.2492 C.3       1 <0>        -0.0909
      5 C4          1.3548   -2.5164    2.4701 C.ar      1 <0>        -0.0954
      6 C5          2.7013   -2.8212    2.3948 C.ar      1 <0>        -0.1061
      7 C6          3.3705   -3.2791    3.5141 C.ar      1 <0>        -0.0999
      8 C7          2.6937   -3.4331    4.7096 C.ar      1 <0>        -0.0977
      9 C8          1.3465   -3.1283    4.7856 C.ar      1 <0>        -0.0326
     10 C9          0.6785   -2.6641    3.6661 C.ar      1 <0>        -0.1046
     11 Cl1         0.4959   -3.3213    6.2865 Cl        1 <0>        -0.0529
     12 N2          0.6826   -0.4730   -1.1943 N.3       1 <0>        -0.6464
     13 H1          1.0047    1.8421    0.0024 H         1 <0>         0.1246
     14 H2         -0.5450    1.8259   -0.8730 H         1 <0>         0.1269
     15 H3         -0.5280    1.8163    0.9069 H         1 <0>         0.1339
     16 H4          1.7584   -0.1878    1.1401 H         1 <0>         0.1298
     17 H5          0.2557   -0.0671    2.0865 H         1 <0>         0.1383
     18 H6         -0.4199   -2.3200    1.3012 H         1 <0>         0.0950
     19 H7          1.0828   -2.4407    0.3548 H         1 <0>         0.1095
     20 H8          3.2303   -2.7017    1.4608 H         1 <0>         0.1317
     21 H9          4.4223   -3.5170    3.4546 H         1 <0>         0.1396
     22 H10         3.2165   -3.7915    5.5839 H         1 <0>         0.1406
     23 H11        -0.3723   -2.4218    3.7260 H         1 <0>         0.1353
     24 H12         0.1775   -0.2058   -2.0258 H         1 <0>         0.3990
     25 H13         1.6333   -0.1364   -1.2248 H         1 <0>         0.3985
     26 H14        -0.9445   -0.3533    0.0092 H         1 <0>         0.4422
@<TRIPOS>BOND
     1    1    2 1
     2    1   13 1
     3    1   14 1
     4    1   15 1
     5    2    3 1
     6    2   12 1
     7    2   26 1
     8    3    4 1
     9    3   16 1
    10    3   17 1
    11    4    5 1
    12    4   18 1
    13    4   19 1
    14    5   10 ar
    15    5    6 ar
    16    6    7 ar
    17    6   20 1
    18    7    8 ar
    19    7   21 1
    20    8    9 ar
    21    8   22 1
    22    9   10 ar
    23    9   11 1
    24   10   23 1
    25   12   24 1
    26   12   25 1
@<TRIPOS>MOLECULE
ZINC64479798
   26    26     0     0     0
SMALL
USER_CHARGES

@<TRIPOS>ATOM
      1 C1         -0.0178    1.4648    0.0101 C.3       1 <0>        -0.0305
      2 N1          0.0021   -0.0041    0.0020 N.3       1 <0>        -0.3412
      3 C2          0.7062   -0.5275    1.1802 C.3       1 <0>         0.0082
      4 C3          0.5988   -2.0536    1.2023 C.3       1 <0>        -0.0843
      5 C4          1.3212   -2.5905    2.4110 C.ar      1 <0>        -0.0936
      6 C5          2.6634   -2.9117    2.3279 C.ar      1 <0>        -0.1125
      7 C6          3.3266   -3.4043    3.4361 C.ar      1 <0>        -0.1000
      8 C7          2.6480   -3.5765    4.6281 C.ar      1 <0>        -0.0995
      9 C8          1.3051   -3.2553    4.7118 C.ar      1 <0>        -0.0309
     10 C9          0.6432   -2.7565    3.6037 C.ar      1 <0>        -0.1014
     11 Cl1         0.4523   -3.4712    6.2084 Cl        1 <0>        -0.0521
     12 N2          0.5935   -0.5104   -1.2260 N.4       1 <0>        -0.5119
     13 H1          1.0047    1.8421    0.0024 H         1 <0>         0.0725
     14 H2         -0.5450    1.8259   -0.8730 H         1 <0>         0.1071
     15 H3         -0.5280    1.8163    0.9069 H         1 <0>         0.1316
     16 H4          1.7560   -0.2377    1.1346 H         1 <0>         0.0824
     17 H5          0.2553   -0.1185    2.0844 H         1 <0>         0.1375
     18 H6         -0.4509   -2.3433    1.2479 H         1 <0>         0.1034
     19 H7          1.0497   -2.4626    0.2981 H         1 <0>         0.0718
     20 H8          3.1938   -2.7780    1.3967 H         1 <0>         0.1264
     21 H9          4.3750   -3.6550    3.3706 H         1 <0>         0.1385
     22 H10         3.1661   -3.9620    5.4937 H         1 <0>         0.1404
     23 H11        -0.4041   -2.5014    3.6697 H         1 <0>         0.1372
     24 H12         1.5411   -0.1736   -1.3067 H         1 <0>         0.4078
     25 H13         0.5955   -1.5192   -1.2072 H         1 <0>         0.4442
     26 H14         0.0541   -0.1898   -2.0162 H         1 <0>         0.4488
@<TRIPOS>BOND
     1    1    2 1
     2    1   13 1
     3    1   14 1
     4    1   15 1
     5    2    3 1
     6    2   12 1
     7    3    4 1
     8    3   16 1
     9    3   17 1
    10    4    5 1
    11    4   18 1
    12    4   19 1
    13    5   10 ar
    14    5    6 ar
    15    6    7 ar
    16    6   20 1
    17    7    8 ar
    18    7   21 1
    19    8    9 ar
    20    8   22 1
    21    9   10 ar
    22    9   11 1
    23   10   23 1
    24   12   24 1
    25   12   25 1
    26   12   26 1
@<TRIPOS>MOLECULE
ZINC64485911
   25    25     0     0     0
SMALL
USER_CHARGES

@<TRIPOS>ATOM
      1 C1         -0.0178    1.4648    0.0101 C.3       1 <0>         0.0211
      2 N1          0.0021   -0.0041    0.0020 N.3       1 <0>        -0.3907
      3 C2          0.7062   -0.5275    1.1802 C.3       1 <0>         0.0569
      4 C3          0.5158   -2.0437    1.2563 C.3       1 <0>        -0.0785
      5 C4          1.2381   -2.5807    2.4650 C.ar      1 <0>        -0.0775
      6 C5          2.5579   -2.9786    2.3610 C.ar      1 <0>        -0.1027
      7 C6          3.2210   -3.4711    3.4692 C.ar      1 <0>        -0.1081
      8 C7          2.5635   -3.5659    4.6828 C.ar      1 <0>        -0.0380
      9 C8          1.2426   -3.1676    4.7863 C.ar      1 <0>        -0.1082
     10 C9          0.5823   -2.6699    3.6787 C.ar      1 <0>        -0.1029
     11 Cl1         3.3954   -4.1850    6.0750 Cl        1 <0>        -0.0699
     12 N2          0.5935   -0.5104   -1.2260 N.3       1 <0>        -0.7048
     13 H1          1.0047    1.8421    0.0024 H         1 <0>         0.0355
     14 H2         -0.5450    1.8259   -0.8730 H         1 <0>         0.0695
     15 H3         -0.5280    1.8163    0.9069 H         1 <0>         0.0763
     16 H4          1.7688   -0.2983    1.1001 H         1 <0>         0.0468
     17 H5          0.3016   -0.0649    2.0805 H         1 <0>         0.0823
     18 H6         -0.5468   -2.2729    1.3365 H         1 <0>         0.0818
     19 H7          0.9204   -2.5063    0.3560 H         1 <0>         0.0748
     20 H8          3.0710   -2.9048    1.4134 H         1 <0>         0.1318
     21 H9          4.2519   -3.7823    3.3877 H         1 <0>         0.1339
     22 H10         0.7287   -3.2416    5.7333 H         1 <0>         0.1341
     23 H11        -0.4473   -2.3544    3.7605 H         1 <0>         0.1328
     24 H12         0.6071   -1.5193   -1.2315 H         1 <0>         0.3510
     25 H13         0.1098   -0.1509   -2.0353 H         1 <0>         0.3526
@<TRIPOS>BOND
     1    1    2 1
     2    1   13 1
     3    1   14 1
     4    1   15 1
     5    2    3 1
     6    2   12 1
     7    3    4 1
     8    3   16 1
     9    3   17 1
    10    4    5 1
    11    4   18 1
    12    4   19 1
    13    5   10 ar
    14    5    6 ar
    15    6    7 ar
    16    6   20 1
    17    7    8 ar
    18    7   21 1
    19    8    9 ar
    20    8   11 1
    21    9   10 ar
    22    9   22 1
    23   10   23 1
    24   12   24 1
    25   12   25 1
@<TRIPOS>MOLECULE
ZINC64485911
   26    26     0     0     0
SMALL
USER_CHARGES

@<TRIPOS>ATOM
      1 C1         -0.0178    1.4648    0.0101 C.3       1 <0>        -0.0834
      2 N1          0.0021   -0.0041    0.0020 N.4       1 <0>        -0.2414
      3 C2          0.7126   -0.4907    1.1921 C.3       1 <0>         0.0066
      4 C3          0.6259   -2.0172    1.2492 C.3       1 <0>        -0.0915
      5 C4          1.3548   -2.5164    2.4701 C.ar      1 <0>        -0.1058
      6 C5          2.7011   -2.8211    2.3946 C.ar      1 <0>        -0.0961
      7 C6          3.3701   -3.2790    3.5140 C.ar      1 <0>        -0.1065
      8 C7          2.6921   -3.4324    4.7102 C.ar      1 <0>        -0.0245
      9 C8          1.3448   -3.1273    4.7852 C.ar      1 <0>        -0.1063
     10 C9          0.6781   -2.6641    3.6665 C.ar      1 <0>        -0.0979
     11 Cl1         3.5317   -4.0080    6.1165 Cl        1 <0>        -0.0510
     12 N2          0.6826   -0.4730   -1.1943 N.3       1 <0>        -0.6465
     13 H1          1.0047    1.8421    0.0024 H         1 <0>         0.1245
     14 H2         -0.5450    1.8259   -0.8730 H         1 <0>         0.1268
     15 H3         -0.5280    1.8163    0.9069 H         1 <0>         0.1339
     16 H4          1.7584   -0.1878    1.1401 H         1 <0>         0.1293
     17 H5          0.2557   -0.0671    2.0865 H         1 <0>         0.1383
     18 H6         -0.4199   -2.3200    1.3012 H         1 <0>         0.0947
     19 H7          1.0828   -2.4407    0.3548 H         1 <0>         0.1080
     20 H8          3.2301   -2.7016    1.4607 H         1 <0>         0.1344
     21 H9          4.4218   -3.5173    3.4548 H         1 <0>         0.1403
     22 H10         0.8149   -3.2471    5.7186 H         1 <0>         0.1404
     23 H11        -0.3726   -2.4213    3.7261 H         1 <0>         0.1343
     24 H12         0.1775   -0.2058   -2.0258 H         1 <0>         0.3990
     25 H13         1.6333   -0.1364   -1.2248 H         1 <0>         0.3986
     26 H14        -0.9445   -0.3533    0.0092 H         1 <0>         0.4420
@<TRIPOS>BOND
     1    1    2 1
     2    1   13 1
     3    1   14 1
     4    1   15 1
     5    2    3 1
     6    2   12 1
     7    2   26 1
     8    3    4 1
     9    3   16 1
    10    3   17 1
    11    4    5 1
    12    4   18 1
    13    4   19 1
    14    5   10 ar
    15    5    6 ar
    16    6    7 ar
    17    6   20 1
    18    7    8 ar
    19    7   21 1
    20    8    9 ar
    21    8   11 1
    22    9   10 ar
    23    9   22 1
    24   10   23 1
    25   12   24 1
    26   12   25 1
@<TRIPOS>MOLECULE
ZINC64485911
   26    26     0     0     0
SMALL
USER_CHARGES

@<TRIPOS>ATOM
      1 C1         -0.0178    1.4648    0.0101 C.3       1 <0>        -0.0305
      2 N1          0.0021   -0.0041    0.0020 N.3       1 <0>        -0.3413
      3 C2          0.7062   -0.5275    1.1802 C.3       1 <0>         0.0082
      4 C3          0.5988   -2.0536    1.2023 C.3       1 <0>        -0.0847
      5 C4          1.3212   -2.5905    2.4110 C.ar      1 <0>        -0.1038
      6 C5          2.6632   -2.9116    2.3278 C.ar      1 <0>        -0.1024
      7 C6          3.3262   -3.4042    3.4360 C.ar      1 <0>        -0.1065
      8 C7          2.6465   -3.5758    4.6288 C.ar      1 <0>        -0.0261
      9 C8          1.3034   -3.2543    4.7114 C.ar      1 <0>        -0.1046
     10 C9          0.6428   -2.7565    3.6041 C.ar      1 <0>        -0.0948
     11 Cl1         3.4784   -4.1949    6.0210 Cl        1 <0>        -0.0515
     12 N2          0.5935   -0.5104   -1.2260 N.4       1 <0>        -0.5120
     13 H1          1.0047    1.8421    0.0024 H         1 <0>         0.0724
     14 H2         -0.5450    1.8259   -0.8730 H         1 <0>         0.1069
     15 H3         -0.5280    1.8163    0.9069 H         1 <0>         0.1315
     16 H4          1.7560   -0.2377    1.1346 H         1 <0>         0.0820
     17 H5          0.2553   -0.1185    2.0844 H         1 <0>         0.1374
     18 H6         -0.4509   -2.3433    1.2479 H         1 <0>         0.1031
     19 H7          1.0497   -2.4626    0.2981 H         1 <0>         0.0703
     20 H8          3.1936   -2.7779    1.3966 H         1 <0>         0.1291
     21 H9          4.3746   -3.6553    3.3708 H         1 <0>         0.1392
     22 H10         0.7722   -3.3883    5.6422 H         1 <0>         0.1408
     23 H11        -0.4044   -2.5010    3.6698 H         1 <0>         0.1363
     24 H12         1.5411   -0.1736   -1.3067 H         1 <0>         0.4079
     25 H13         0.5955   -1.5192   -1.2072 H         1 <0>         0.4442
     26 H14         0.0541   -0.1898   -2.0162 H         1 <0>         0.4488
@<TRIPOS>BOND
     1    1    2 1
     2    1   13 1
     3    1   14 1
     4    1   15 1
     5    2    3 1
     6    2   12 1
     7    3    4 1
     8    3   16 1
     9    3   17 1
    10    4    5 1
    11    4   18 1
    12    4   19 1
    13    5   10 ar
    14    5    6 ar
    15    6    7 ar
    16    6   20 1
    17    7    8 ar
    18    7   21 1
    19    8    9 ar
    20    8   11 1
    21    9   10 ar
    22    9   22 1
    23   10   23 1
    24   12   24 1
    25   12   25 1
    26   12   26 1
@<TRIPOS>MOLECULE
ZINC64475084
   29    29     0     0     0
SMALL
USER_CHARGES

@<TRIPOS>ATOM
      1 C1         -0.0178    1.4648    0.0101 C.3       1 <0>        -0.0237
      2 N1          0.0021   -0.0041    0.0020 N.3       1 <0>        -0.3578
      3 C2          0.7062   -0.5275    1.1802 C.3       1 <0>         0.0632
      4 C3          0.9025   -2.0372    1.0281 C.3       1 <0>        -0.0575
      5 C4          1.6248   -2.5742    2.2368 C.ar      1 <0>        -0.1151
      6 C5          2.9984   -2.7209    2.2128 C.ar      1 <0>        -0.0792
      7 C6          3.6616   -3.2139    3.3211 C.ar      1 <0>        -0.1556
      8 C7          2.9524   -3.5610    4.4564 C.ar      1 <0>        -0.0849
      9 C8          1.5791   -3.4158    4.4856 C.ar      1 <0>        -0.2086
     10 C9          0.9118   -2.9162    3.3764 C.ar      1 <0>         0.1286
     11 O1         -0.4387   -2.7671    3.4046 O.3       1 <0>        -0.3113
     12 C10        -1.1075   -3.1395    4.6114 C.3       1 <0>         0.0263
     13 N2         -1.3458   -0.5430   -0.0816 N.3       1 <0>        -0.6655
     14 H1          1.0047    1.8421    0.0024 H         1 <0>         0.0788
     15 H2         -0.5450    1.8259   -0.8730 H         1 <0>         0.0723
     16 H3         -0.5280    1.8163    0.9069 H         1 <0>         0.0273
     17 H4          1.6780   -0.0418    1.2683 H         1 <0>         0.0782
     18 H5          0.1169   -0.3261    2.0749 H         1 <0>         0.0389
     19 H6         -0.0693   -2.5229    0.9401 H         1 <0>         0.0882
     20 H7          1.4917   -2.2386    0.1335 H         1 <0>         0.0769
     21 H8          3.5545   -2.4505    1.3273 H         1 <0>         0.1298
     22 H9          4.7353   -3.3285    3.3001 H         1 <0>         0.1239
     23 H10         3.4727   -3.9462    5.3209 H         1 <0>         0.1236
     24 H11         1.0257   -3.6870    5.3725 H         1 <0>         0.1267
     25 H12        -0.9249   -4.1942    4.8173 H         1 <0>         0.0554
     26 H13        -0.7290   -2.5372    5.4372 H         1 <0>         0.0537
     27 H14        -2.1786   -2.9712    4.5000 H         1 <0>         0.0999
     28 H15        -1.8640   -0.3535    0.7631 H         1 <0>         0.3148
     29 H16        -1.8294   -0.1835   -0.8909 H         1 <0>         0.3529
@<TRIPOS>BOND
     1    1    2 1
     2    1   14 1
     3    1   15 1
     4    1   16 1
     5    2    3 1
     6    2   13 1
     7    3    4 1
     8    3   17 1
     9    3   18 1
    10    4    5 1
    11    4   19 1
    12    4   20 1
    13    5   10 ar
    14    5    6 ar
    15    6    7 ar
    16    6   21 1
    17    7    8 ar
    18    7   22 1
    19    8    9 ar
    20    8   23 1
    21    9   10 ar
    22    9   24 1
    23   10   11 1
    24   11   12 1
    25   12   25 1
    26   12   26 1
    27   12   27 1
    28   13   28 1
    29   13   29 1
@<TRIPOS>MOLECULE
ZINC64475084
   30    30     0     0     0
SMALL
USER_CHARGES

@<TRIPOS>ATOM
      1 C1         -0.0178    1.4648    0.0101 C.3       1 <0>        -0.0337
      2 N1          0.0021   -0.0041    0.0020 N.4       1 <0>        -0.2402
      3 C2          0.7126   -0.4907    1.1921 C.3       1 <0>        -0.0424
      4 C3          0.8424   -2.0135    1.1214 C.3       1 <0>        -0.0908
      5 C4          1.5713   -2.5128    2.3423 C.ar      1 <0>        -0.1421
      6 C5          2.9367   -2.7191    2.2963 C.ar      1 <0>        -0.0701
      7 C6          3.6058   -3.1775    3.4157 C.ar      1 <0>        -0.1491
      8 C7          2.9109   -3.4303    4.5843 C.ar      1 <0>        -0.0620
      9 C8          1.5460   -3.2252    4.6356 C.ar      1 <0>        -0.2022
     10 C9          0.8729   -2.7601    3.5150 C.ar      1 <0>         0.1354
     11 O1         -0.4692   -2.5521    3.5646 O.3       1 <0>        -0.3271
     12 C10        -1.1230   -2.8279    4.8050 C.3       1 <0>         0.0233
     13 N2         -1.3620   -0.5073    0.0123 N.3       1 <0>        -0.6444
     14 H1          1.0047    1.8421    0.0024 H         1 <0>         0.1310
     15 H2         -0.5450    1.8259   -0.8730 H         1 <0>         0.1334
     16 H3         -0.5280    1.8163    0.9069 H         1 <0>         0.1192
     17 H4          1.7055   -0.0428    1.2310 H         1 <0>         0.1392
     18 H5          0.1543   -0.2148    2.0867 H         1 <0>         0.1321
     19 H6         -0.1505   -2.4615    1.0826 H         1 <0>         0.0906
     20 H7          1.4007   -2.2894    0.2268 H         1 <0>         0.0980
     21 H8          3.4816   -2.5224    1.3848 H         1 <0>         0.1333
     22 H9          4.6730   -3.3389    3.3775 H         1 <0>         0.1333
     23 H10         3.4359   -3.7887    5.4575 H         1 <0>         0.1341
     24 H11         1.0037   -3.4227    5.5485 H         1 <0>         0.1355
     25 H12        -0.9792   -3.8763    5.0663 H         1 <0>         0.0630
     26 H13        -0.6998   -2.1972    5.5868 H         1 <0>         0.0613
     27 H14        -2.1887   -2.6205    4.7080 H         1 <0>         0.1063
     28 H15        -1.3766   -1.5138   -0.0579 H         1 <0>         0.3968
     29 H16        -1.8564   -0.1950    0.8346 H         1 <0>         0.3981
     30 H17         0.4744   -0.3295   -0.8281 H         1 <0>         0.4405
@<TRIPOS>BOND
     1    1    2 1
     2    1   14 1
     3    1   15 1
     4    1   16 1
     5    2    3 1
     6    2   13 1
     7    2   30 1
     8    3    4 1
     9    3   17 1
    10    3   18 1
    11    4    5 1
    12    4   19 1
    13    4   20 1
    14    5   10 ar
    15    5    6 ar
    16    6    7 ar
    17    6   21 1
    18    7    8 ar
    19    7   22 1
    20    8    9 ar
    21    8   23 1
    22    9   10 ar
    23    9   24 1
    24   10   11 1
    25   11   12 1
    26   12   25 1
    27   12   26 1
    28   12   27 1
    29   13   28 1
    30   13   29 1
@<TRIPOS>MOLECULE
ZINC64475084
   30    30     0     0     0
SMALL
USER_CHARGES

@<TRIPOS>ATOM
      1 C1         -0.0178    1.4648    0.0101 C.3       1 <0>        -0.0302
      2 N1          0.0021   -0.0041    0.0020 N.3       1 <0>        -0.3414
      3 C2          0.7062   -0.5275    1.1802 C.3       1 <0>         0.0111
      4 C3          0.9025   -2.0372    1.0281 C.3       1 <0>        -0.0719
      5 C4          1.6248   -2.5742    2.2368 C.ar      1 <0>        -0.1370
      6 C5          2.9984   -2.7209    2.2128 C.ar      1 <0>        -0.0712
      7 C6          3.6616   -3.2139    3.3211 C.ar      1 <0>        -0.1487
      8 C7          2.9524   -3.5610    4.4564 C.ar      1 <0>        -0.0679
      9 C8          1.5791   -3.4158    4.4856 C.ar      1 <0>        -0.2028
     10 C9          0.9118   -2.9162    3.3764 C.ar      1 <0>         0.1296
     11 O1         -0.4387   -2.7671    3.4046 O.3       1 <0>        -0.3295
     12 C10        -1.1075   -3.1395    4.6114 C.3       1 <0>         0.0237
     13 N2         -1.3458   -0.5430   -0.0816 N.4       1 <0>        -0.5103
     14 H1          1.0047    1.8421    0.0024 H         1 <0>         0.1303
     15 H2         -0.5450    1.8259   -0.8730 H         1 <0>         0.1057
     16 H3         -0.5280    1.8163    0.9069 H         1 <0>         0.0708
     17 H4          1.6780   -0.0418    1.2683 H         1 <0>         0.1331
     18 H5          0.1169   -0.3261    2.0749 H         1 <0>         0.0818
     19 H6         -0.0693   -2.5229    0.9401 H         1 <0>         0.0713
     20 H7          1.4917   -2.2386    0.1335 H         1 <0>         0.0977
     21 H8          3.5545   -2.4505    1.3273 H         1 <0>         0.1338
     22 H9          4.7353   -3.3285    3.3001 H         1 <0>         0.1317
     23 H10         3.4727   -3.9462    5.3209 H         1 <0>         0.1319
     24 H11         1.0257   -3.6870    5.3725 H         1 <0>         0.1329
     25 H12        -0.9249   -4.1942    4.8173 H         1 <0>         0.0620
     26 H13        -0.7290   -2.5372    5.4372 H         1 <0>         0.0602
     27 H14        -2.1786   -2.9712    4.5000 H         1 <0>         0.1033
     28 H15        -1.8074   -0.1692   -0.8972 H         1 <0>         0.4459
     29 H16        -1.3022   -1.5487   -0.1511 H         1 <0>         0.4462
     30 H17        -1.8630   -0.2851    0.7454 H         1 <0>         0.4079
@<TRIPOS>BOND
     1    1    2 1
     2    1   14 1
     3    1   15 1
     4    1   16 1
     5    2    3 1
     6    2   13 1
     7    3    4 1
     8    3   17 1
     9    3   18 1
    10    4    5 1
    11    4   19 1
    12    4   20 1
    13    5   10 ar
    14    5    6 ar
    15    6    7 ar
    16    6   21 1
    17    7    8 ar
    18    7   22 1
    19    8    9 ar
    20    8   23 1
    21    9   10 ar
    22    9   24 1
    23   10   11 1
    24   11   12 1
    25   12   25 1
    26   12   26 1
    27   12   27 1
    28   13   28 1
    29   13   29 1
    30   13   30 1
@<TRIPOS>MOLECULE
ZINC64485594
   29    29     0     0     0
SMALL
USER_CHARGES

@<TRIPOS>ATOM
      1 C1         -0.0178    1.4648    0.0101 C.3       1 <0>         0.0213
      2 N1          0.0021   -0.0041    0.0020 N.3       1 <0>        -0.3905
      3 C2          0.7062   -0.5275    1.1802 C.3       1 <0>         0.0575
      4 C3          0.5158   -2.0437    1.2563 C.3       1 <0>        -0.0774
      5 C4          1.2381   -2.5807    2.4650 C.ar      1 <0>        -0.0427
      6 C5          2.5584   -2.9786    2.3606 C.ar      1 <0>        -0.1528
      7 C6          3.2238   -3.4716    3.4675 C.ar      1 <0>        -0.0774
      8 C7          2.5707   -3.5684    4.6812 C.ar      1 <0>        -0.2120
      9 C8          1.2464   -3.1699    4.7886 C.ar      1 <0>         0.1288
     10 C9          0.5826   -2.6697    3.6775 C.ar      1 <0>        -0.1484
     11 O1          0.6019   -3.2640    5.9813 O.3       1 <0>        -0.3180
     12 C10         1.3491   -3.7825    7.0834 C.3       1 <0>         0.0269
     13 N2          0.5935   -0.5104   -1.2260 N.3       1 <0>        -0.7049
     14 H1          1.0047    1.8421    0.0024 H         1 <0>         0.0352
     15 H2         -0.5450    1.8259   -0.8730 H         1 <0>         0.0691
     16 H3         -0.5280    1.8163    0.9069 H         1 <0>         0.0762
     17 H4          1.7688   -0.2983    1.1001 H         1 <0>         0.0470
     18 H5          0.3016   -0.0649    2.0805 H         1 <0>         0.0825
     19 H6         -0.5468   -2.2729    1.3365 H         1 <0>         0.0812
     20 H7          0.9204   -2.5063    0.3560 H         1 <0>         0.0751
     21 H8          3.0704   -2.9045    1.4126 H         1 <0>         0.1237
     22 H9          4.2549   -3.7818    3.3834 H         1 <0>         0.1255
     23 H10         3.0907   -3.9542    5.5455 H         1 <0>         0.1275
     24 H11        -0.4470   -2.3543    3.7597 H         1 <0>         0.1308
     25 H12         1.6848   -4.7933    6.8514 H         1 <0>         0.0559
     26 H13         2.2143   -3.1456    7.2675 H         1 <0>         0.0558
     27 H14         0.7183   -3.8042    7.9721 H         1 <0>         0.1012
     28 H15         0.6071   -1.5193   -1.2315 H         1 <0>         0.3512
     29 H16         0.1098   -0.1509   -2.0353 H         1 <0>         0.3520
@<TRIPOS>BOND
     1    1    2 1
     2    1   14 1
     3    1   15 1
     4    1   16 1
     5    2    3 1
     6    2   13 1
     7    3    4 1
     8    3   17 1
     9    3   18 1
    10    4    5 1
    11    4   19 1
    12    4   20 1
    13    5   10 ar
    14    5    6 ar
    15    6    7 ar
    16    6   21 1
    17    7    8 ar
    18    7   22 1
    19    8    9 ar
    20    8   23 1
    21    9   10 ar
    22    9   11 1
    23   10   24 1
    24   11   12 1
    25   12   25 1
    26   12   26 1
    27   12   27 1
    28   13   28 1
    29   13   29 1
@<TRIPOS>MOLECULE
ZINC64485594
   30    30     0     0     0
SMALL
USER_CHARGES

@<TRIPOS>ATOM
      1 C1         -0.0178    1.4648    0.0101 C.3       1 <0>        -0.0832
      2 N1          0.0021   -0.0041    0.0020 N.4       1 <0>        -0.2414
      3 C2          0.7126   -0.4907    1.1921 C.3       1 <0>         0.0073
      4 C3          0.6259   -2.0172    1.2492 C.3       1 <0>        -0.0908
      5 C4          1.3548   -2.5164    2.4701 C.ar      1 <0>        -0.0677
      6 C5          2.7015   -2.8211    2.3942 C.ar      1 <0>        -0.1496
      7 C6          3.3730   -3.2793    3.5124 C.ar      1 <0>        -0.0723
      8 C7          2.6996   -3.4343    4.7088 C.ar      1 <0>        -0.1977
      9 C8          1.3487   -3.1293    4.7875 C.ar      1 <0>         0.1357
     10 C9          0.6784   -2.6638    3.6653 C.ar      1 <0>        -0.1477
     11 O1          0.6841   -3.2809    5.9632 O.3       1 <0>        -0.3156
     12 C10         1.4391   -3.7589    7.0783 C.3       1 <0>         0.0238
     13 N2          0.6826   -0.4730   -1.1943 N.3       1 <0>        -0.6464
     14 H1          1.0047    1.8421    0.0024 H         1 <0>         0.1243
     15 H2         -0.5450    1.8259   -0.8730 H         1 <0>         0.1264
     16 H3         -0.5280    1.8163    0.9069 H         1 <0>         0.1338
     17 H4          1.7584   -0.1878    1.1401 H         1 <0>         0.1295
     18 H5          0.2557   -0.0671    2.0865 H         1 <0>         0.1385
     19 H6         -0.4199   -2.3200    1.3012 H         1 <0>         0.0941
     20 H7          1.0828   -2.4407    0.3548 H         1 <0>         0.1084
     21 H8          3.2296   -2.7013    1.4598 H         1 <0>         0.1263
     22 H9          4.4248   -3.5166    3.4506 H         1 <0>         0.1319
     23 H10         3.2244   -3.7929    5.5819 H         1 <0>         0.1344
     24 H11        -0.3723   -2.4212    3.7252 H         1 <0>         0.1323
     25 H12         0.7904   -3.8339    7.9510 H         1 <0>         0.1072
     26 H13         1.8494   -4.7414    6.8450 H         1 <0>         0.0603
     27 H14         2.2535   -3.0659    7.2895 H         1 <0>         0.0594
     28 H15         0.1775   -0.2058   -2.0258 H         1 <0>         0.3985
     29 H16         1.6333   -0.1364   -1.2248 H         1 <0>         0.3984
     30 H17        -0.9445   -0.3533    0.0092 H         1 <0>         0.4420
@<TRIPOS>BOND
     1    1    2 1
     2    1   14 1
     3    1   15 1
     4    1   16 1
     5    2    3 1
     6    2   13 1
     7    2   30 1
     8    3    4 1
     9    3   17 1
    10    3   18 1
    11    4    5 1
    12    4   19 1
    13    4   20 1
    14    5   10 ar
    15    5    6 ar
    16    6    7 ar
    17    6   21 1
    18    7    8 ar
    19    7   22 1
    20    8    9 ar
    21    8   23 1
    22    9   10 ar
    23    9   11 1
    24   10   24 1
    25   11   12 1
    26   12   25 1
    27   12   26 1
    28   12   27 1
    29   13   28 1
    30   13   29 1
@<TRIPOS>MOLECULE
ZINC64485594
   30    30     0     0     0
SMALL
USER_CHARGES

@<TRIPOS>ATOM
      1 C1         -0.0178    1.4648    0.0101 C.3       1 <0>        -0.0304
      2 N1          0.0021   -0.0041    0.0020 N.3       1 <0>        -0.3416
      3 C2          0.7062   -0.5275    1.1802 C.3       1 <0>         0.0093
      4 C3          0.5158   -2.0437    1.2563 C.3       1 <0>        -0.0825
      5 C4          1.2381   -2.5807    2.4650 C.ar      1 <0>        -0.0659
      6 C5          2.5584   -2.9786    2.3606 C.ar      1 <0>        -0.1563
      7 C6          3.2238   -3.4716    3.4675 C.ar      1 <0>        -0.0724
      8 C7          2.5707   -3.5684    4.6812 C.ar      1 <0>        -0.1999
      9 C8          1.2464   -3.1699    4.7886 C.ar      1 <0>         0.1374
     10 C9          0.5826   -2.6697    3.6775 C.ar      1 <0>        -0.1448
     11 O1          0.6019   -3.2640    5.9813 O.3       1 <0>        -0.3147
     12 C10         1.3491   -3.7825    7.0834 C.3       1 <0>         0.0238
     13 N2          0.5935   -0.5104   -1.2260 N.4       1 <0>        -0.5112
     14 H1          1.0047    1.8421    0.0024 H         1 <0>         0.0720
     15 H2         -0.5450    1.8259   -0.8730 H         1 <0>         0.1064
     16 H3         -0.5280    1.8163    0.9069 H         1 <0>         0.1313
     17 H4          1.7688   -0.2983    1.1001 H         1 <0>         0.0827
     18 H5          0.3016   -0.0649    2.0805 H         1 <0>         0.1363
     19 H6         -0.5468   -2.2729    1.3365 H         1 <0>         0.1020
     20 H7          0.9204   -2.5063    0.3560 H         1 <0>         0.0716
     21 H8          3.0704   -2.9045    1.4126 H         1 <0>         0.1209
     22 H9          4.2549   -3.7818    3.3834 H         1 <0>         0.1307
     23 H10         3.0907   -3.9542    5.5455 H         1 <0>         0.1341
     24 H11        -0.4470   -2.3543    3.7597 H         1 <0>         0.1341
     25 H12         1.6848   -4.7933    6.8514 H         1 <0>         0.0599
     26 H13         2.2143   -3.1456    7.2675 H         1 <0>         0.0592
     27 H14         0.7183   -3.8042    7.9721 H         1 <0>         0.1073
     28 H15         1.5608   -0.2276   -1.2750 H         1 <0>         0.4076
     29 H16         0.5367   -1.5178   -1.2362 H         1 <0>         0.4457
     30 H17         0.0933   -0.1373   -2.0189 H         1 <0>         0.4473
@<TRIPOS>BOND
     1    1    2 1
     2    1   14 1
     3    1   15 1
     4    1   16 1
     5    2    3 1
     6    2   13 1
     7    3    4 1
     8    3   17 1
     9    3   18 1
    10    4    5 1
    11    4   19 1
    12    4   20 1
    13    5   10 ar
    14    5    6 ar
    15    6    7 ar
    16    6   21 1
    17    7    8 ar
    18    7   22 1
    19    8    9 ar
    20    8   23 1
    21    9   10 ar
    22    9   11 1
    23   10   24 1
    24   11   12 1
    25   12   25 1
    26   12   26 1
    27   12   27 1
    28   13   28 1
    29   13   29 1
    30   13   30 1
@<TRIPOS>MOLECULE
ZINC64479794
   29    29     0     0     0
SMALL
USER_CHARGES

@<TRIPOS>ATOM
      1 C1         -0.0178    1.4648    0.0101 C.3       1 <0>         0.0212
      2 N1          0.0021   -0.0041    0.0020 N.3       1 <0>        -0.3911
      3 C2          0.7062   -0.5275    1.1802 C.3       1 <0>         0.0567
      4 C3          0.5158   -2.0437    1.2563 C.3       1 <0>        -0.0719
      5 C4          1.2381   -2.5807    2.4650 C.ar      1 <0>        -0.1203
      6 C5          2.5582   -2.9784    2.3599 C.ar      1 <0>        -0.0746
      7 C6          3.2224   -3.4714    3.4663 C.ar      1 <0>        -0.1499
      8 C7          2.5640   -3.5668    4.6837 C.ar      1 <0>         0.1241
      9 C8          1.2396   -3.1667    4.7866 C.ar      1 <0>        -0.2064
     10 C9          0.5814   -2.6695    3.6785 C.ar      1 <0>        -0.0747
     11 O1          3.2151   -4.0519    5.7735 O.3       1 <0>        -0.3184
     12 C10         2.4747   -4.1217    6.9938 C.3       1 <0>         0.0268
     13 N2          0.5935   -0.5104   -1.2260 N.3       1 <0>        -0.7048
     14 H1          1.0047    1.8421    0.0024 H         1 <0>         0.0350
     15 H2         -0.5450    1.8259   -0.8730 H         1 <0>         0.0687
     16 H3         -0.5280    1.8163    0.9069 H         1 <0>         0.0756
     17 H4          1.7688   -0.2983    1.1001 H         1 <0>         0.0459
     18 H5          0.3016   -0.0649    2.0805 H         1 <0>         0.0805
     19 H6         -0.5468   -2.2729    1.3365 H         1 <0>         0.0773
     20 H7          0.9204   -2.5063    0.3560 H         1 <0>         0.0713
     21 H8          3.0703   -2.9039    1.4120 H         1 <0>         0.1290
     22 H9          4.2533   -3.7826    3.3836 H         1 <0>         0.1310
     23 H10         0.7248   -3.2400    5.7332 H         1 <0>         0.1282
     24 H11        -0.4483   -2.3538    3.7591 H         1 <0>         0.1252
     25 H12         2.1399   -3.1227    7.2733 H         1 <0>         0.0557
     26 H13         1.6092   -4.7700    6.8571 H         1 <0>         0.0559
     27 H14         3.1104   -4.5255    7.7818 H         1 <0>         0.1011
     28 H15         0.6071   -1.5193   -1.2315 H         1 <0>         0.3513
     29 H16         0.1098   -0.1509   -2.0353 H         1 <0>         0.3517
@<TRIPOS>BOND
     1    1    2 1
     2    1   14 1
     3    1   15 1
     4    1   16 1
     5    2    3 1
     6    2   13 1
     7    3    4 1
     8    3   17 1
     9    3   18 1
    10    4    5 1
    11    4   19 1
    12    4   20 1
    13    5   10 ar
    14    5    6 ar
    15    6    7 ar
    16    6   21 1
    17    7    8 ar
    18    7   22 1
    19    8    9 ar
    20    8   11 1
    21    9   10 ar
    22    9   23 1
    23   10   24 1
    24   11   12 1
    25   12   25 1
    26   12   26 1
    27   12   27 1
    28   13   28 1
    29   13   29 1
@<TRIPOS>MOLECULE
ZINC64479794
   30    30     0     0     0
SMALL
USER_CHARGES

@<TRIPOS>ATOM
      1 C1         -0.0178    1.4648    0.0101 C.3       1 <0>        -0.0833
      2 N1          0.0021   -0.0041    0.0020 N.4       1 <0>        -0.2415
      3 C2          0.7126   -0.4907    1.1921 C.3       1 <0>         0.0061
      4 C3          0.6259   -2.0172    1.2492 C.3       1 <0>        -0.0844
      5 C4          1.3548   -2.5164    2.4701 C.ar      1 <0>        -0.1509
      6 C5          2.7013   -2.8209    2.3936 C.ar      1 <0>        -0.0673
      7 C6          3.3716   -3.2791    3.5112 C.ar      1 <0>        -0.1500
      8 C7          2.6927   -3.4332    4.7112 C.ar      1 <0>         0.1453
      9 C8          1.3417   -3.1266    4.7855 C.ar      1 <0>        -0.2072
     10 C9          0.6771   -2.6638    3.6663 C.ar      1 <0>        -0.0680
     11 O1          3.3498   -3.8843    5.8120 O.3       1 <0>        -0.3127
     12 C10         2.5873   -4.0185    7.0131 C.3       1 <0>         0.0237
     13 N2          0.6826   -0.4730   -1.1943 N.3       1 <0>        -0.6462
     14 H1          1.0047    1.8421    0.0024 H         1 <0>         0.1242
     15 H2         -0.5450    1.8259   -0.8730 H         1 <0>         0.1260
     16 H3         -0.5280    1.8163    0.9069 H         1 <0>         0.1332
     17 H4          1.7584   -0.1878    1.1401 H         1 <0>         0.1283
     18 H5          0.2557   -0.0671    2.0865 H         1 <0>         0.1365
     19 H6         -0.4199   -2.3200    1.3012 H         1 <0>         0.0900
     20 H7          1.0828   -2.4407    0.3548 H         1 <0>         0.1045
     21 H8          3.2294   -2.7007    1.4592 H         1 <0>         0.1313
     22 H9          4.4233   -3.5175    3.4508 H         1 <0>         0.1372
     23 H10         0.8109   -3.2458    5.7185 H         1 <0>         0.1343
     24 H11        -0.3735   -2.4207    3.7247 H         1 <0>         0.1266
     25 H12         3.2305   -4.3862    7.8125 H         1 <0>         0.1077
     26 H13         2.1775   -3.0482    7.2936 H         1 <0>         0.0588
     27 H14         1.7722   -4.7235    6.8491 H         1 <0>         0.0599
     28 H15         0.1775   -0.2058   -2.0258 H         1 <0>         0.3981
     29 H16         1.6333   -0.1364   -1.2248 H         1 <0>         0.3984
     30 H17        -0.9445   -0.3533    0.0092 H         1 <0>         0.4414
@<TRIPOS>BOND
     1    1    2 1
     2    1   14 1
     3    1   15 1
     4    1   16 1
     5    2    3 1
     6    2   13 1
     7    2   30 1
     8    3    4 1
     9    3   17 1
    10    3   18 1
    11    4    5 1
    12    4   19 1
    13    4   20 1
    14    5   10 ar
    15    5    6 ar
    16    6    7 ar
    17    6   21 1
    18    7    8 ar
    19    7   22 1
    20    8    9 ar
    21    8   11 1
    22    9   10 ar
    23    9   23 1
    24   10   24 1
    25   11   12 1
    26   12   25 1
    27   12   26 1
    28   12   27 1
    29   13   28 1
    30   13   29 1
@<TRIPOS>MOLECULE
ZINC64479794
   30    30     0     0     0
SMALL
USER_CHARGES

@<TRIPOS>ATOM
      1 C1         -0.0178    1.4648    0.0101 C.3       1 <0>        -0.0305
      2 N1          0.0021   -0.0041    0.0020 N.3       1 <0>        -0.3422
      3 C2          0.7062   -0.5275    1.1802 C.3       1 <0>         0.0083
      4 C3          0.5158   -2.0437    1.2563 C.3       1 <0>        -0.0760
      5 C4          1.2381   -2.5807    2.4650 C.ar      1 <0>        -0.1490
      6 C5          2.5582   -2.9784    2.3599 C.ar      1 <0>        -0.0736
      7 C6          3.2224   -3.4714    3.4663 C.ar      1 <0>        -0.1501
      8 C7          2.5640   -3.5668    4.6837 C.ar      1 <0>         0.1432
      9 C8          1.2396   -3.1667    4.7866 C.ar      1 <0>        -0.2053
     10 C9          0.5814   -2.6695    3.6785 C.ar      1 <0>        -0.0654
     11 O1          3.2151   -4.0519    5.7735 O.3       1 <0>        -0.3133
     12 C10         2.4747   -4.1217    6.9938 C.3       1 <0>         0.0236
     13 N2          0.5935   -0.5104   -1.2260 N.4       1 <0>        -0.5111
     14 H1          1.0047    1.8421    0.0024 H         1 <0>         0.0717
     15 H2         -0.5450    1.8259   -0.8730 H         1 <0>         0.1060
     16 H3         -0.5280    1.8163    0.9069 H         1 <0>         0.1306
     17 H4          1.7688   -0.2983    1.1001 H         1 <0>         0.0814
     18 H5          0.3016   -0.0649    2.0805 H         1 <0>         0.1344
     19 H6         -0.5468   -2.2729    1.3365 H         1 <0>         0.0979
     20 H7          0.9204   -2.5063    0.3560 H         1 <0>         0.0676
     21 H8          3.0703   -2.9039    1.4120 H         1 <0>         0.1260
     22 H9          4.2533   -3.7826    3.3836 H         1 <0>         0.1360
     23 H10         0.7248   -3.2400    5.7332 H         1 <0>         0.1345
     24 H11        -0.4483   -2.3538    3.7591 H         1 <0>         0.1284
     25 H12         2.1399   -3.1227    7.2733 H         1 <0>         0.0591
     26 H13         1.6092   -4.7700    6.8571 H         1 <0>         0.0598
     27 H14         3.1104   -4.5255    7.7818 H         1 <0>         0.1075
     28 H15         1.5608   -0.2276   -1.2750 H         1 <0>         0.4075
     29 H16         0.5367   -1.5178   -1.2362 H         1 <0>         0.4457
     30 H17         0.0933   -0.1373   -2.0189 H         1 <0>         0.4471
@<TRIPOS>BOND
     1    1    2 1
     2    1   14 1
     3    1   15 1
     4    1   16 1
     5    2    3 1
     6    2   13 1
     7    3    4 1
     8    3   17 1
     9    3   18 1
    10    4    5 1
    11    4   19 1
    12    4   20 1
    13    5   10 ar
    14    5    6 ar
    15    6    7 ar
    16    6   21 1
    17    7    8 ar
    18    7   22 1
    19    8    9 ar
    20    8   11 1
    21    9   10 ar
    22    9   23 1
    23   10   24 1
    24   11   12 1
    25   12   25 1
    26   12   26 1
    27   12   27 1
    28   13   28 1
    29   13   29 1
    30   13   30 1
@<TRIPOS>MOLECULE
ZINC64485566
   33    33     0     0     0
SMALL
USER_CHARGES

@<TRIPOS>ATOM
      1 C1         -0.0178    1.4648    0.0101 C.3       1 <0>        -0.0235
      2 N1          0.0021   -0.0041    0.0020 N.3       1 <0>        -0.3574
      3 C2          0.7062   -0.5275    1.1802 C.3       1 <0>         0.0630
      4 C3          0.9025   -2.0372    1.0281 C.3       1 <0>        -0.0578
      5 C4          1.6248   -2.5742    2.2368 C.ar      1 <0>        -0.0739
      6 C5          2.9983   -2.7206    2.2122 C.ar      1 <0>        -0.1102
      7 C6          3.6631   -3.2143    3.3246 C.ar      1 <0>         0.0940
      8 C7          2.9488   -3.5611    4.4621 C.ar      1 <0>        -0.1730
      9 C8          1.5757   -3.4147    4.4867 C.ar      1 <0>        -0.1677
     10 C9          0.9114   -2.9159    3.3758 C.ar      1 <0>         0.0945
     11 O1         -0.4400   -2.7665    3.4020 O.3       1 <0>        -0.3105
     12 C10        -1.1105   -3.1384    4.6079 C.3       1 <0>         0.0267
     13 O2          5.0150   -3.3588    3.3002 O.3       1 <0>        -0.3175
     14 C11         5.6339   -3.8730    4.4812 C.3       1 <0>         0.0276
     15 N2         -1.3458   -0.5430   -0.0816 N.3       1 <0>        -0.6655
     16 H1          1.0047    1.8421    0.0024 H         1 <0>         0.0790
     17 H2         -0.5450    1.8259   -0.8730 H         1 <0>         0.0723
     18 H3         -0.5280    1.8163    0.9069 H         1 <0>         0.0273
     19 H4          1.6780   -0.0418    1.2683 H         1 <0>         0.0793
     20 H5          0.1169   -0.3261    2.0749 H         1 <0>         0.0401
     21 H6         -0.0693   -2.5229    0.9401 H         1 <0>         0.0917
     22 H7          1.4917   -2.2386    0.1335 H         1 <0>         0.0797
     23 H8          3.5543   -2.4509    1.3265 H         1 <0>         0.1391
     24 H9          3.4665   -3.9459    5.3284 H         1 <0>         0.1298
     25 H10         1.0196   -3.6854    5.3721 H         1 <0>         0.1302
     26 H11        -2.1815   -2.9699    4.4949 H         1 <0>         0.0995
     27 H12        -0.9284   -4.1930    4.8146 H         1 <0>         0.0541
     28 H13        -0.7331   -2.5358    5.4341 H         1 <0>         0.0524
     29 H14         5.4254   -3.2083    5.3195 H         1 <0>         0.0539
     30 H15         5.2371   -4.8651    4.6968 H         1 <0>         0.0544
     31 H16         6.7111   -3.9379    4.3280 H         1 <0>         0.1005
     32 H17        -1.8640   -0.3535    0.7631 H         1 <0>         0.3149
     33 H18        -1.8294   -0.1835   -0.8909 H         1 <0>         0.3530
@<TRIPOS>BOND
     1    1    2 1
     2    1   16 1
     3    1   17 1
     4    1   18 1
     5    2    3 1
     6    2   15 1
     7    3    4 1
     8    3   19 1
     9    3   20 1
    10    4    5 1
    11    4   21 1
    12    4   22 1
    13    5   10 ar
    14    5    6 ar
    15    6    7 ar
    16    6   23 1
    17    7    8 ar
    18    7   13 1
    19    8    9 ar
    20    8   24 1
    21    9   10 ar
    22    9   25 1
    23   10   11 1
    24   11   12 1
    25   12   26 1
    26   12   27 1
    27   12   28 1
    28   13   14 1
    29   14   29 1
    30   14   30 1
    31   14   31 1
    32   15   32 1
    33   15   33 1
@<TRIPOS>MOLECULE
ZINC64485566
   34    34     0     0     0
SMALL
USER_CHARGES

@<TRIPOS>ATOM
      1 C1         -0.0178    1.4648    0.0101 C.3       1 <0>        -0.0337
      2 N1          0.0021   -0.0041    0.0020 N.4       1 <0>        -0.2400
      3 C2          0.7126   -0.4907    1.1921 C.3       1 <0>        -0.0426
      4 C3          0.8424   -2.0135    1.1214 C.3       1 <0>        -0.0912
      5 C4          1.5713   -2.5128    2.3423 C.ar      1 <0>        -0.0994
      6 C5          2.9366   -2.7188    2.2956 C.ar      1 <0>        -0.1063
      7 C6          3.6074   -3.1777    3.4193 C.ar      1 <0>         0.1041
      8 C7          2.9075   -3.4299    4.5901 C.ar      1 <0>        -0.1537
      9 C8          1.5427   -3.2239    4.6368 C.ar      1 <0>        -0.1586
     10 C9          0.8725   -2.7598    3.5144 C.ar      1 <0>         0.0981
     11 O1         -0.4705   -2.5516    3.5620 O.3       1 <0>        -0.3266
     12 C10        -1.1261   -2.8268    4.8015 C.3       1 <0>         0.0239
     13 O2          4.9511   -3.3810    3.3732 O.3       1 <0>        -0.3140
     14 C11         5.5770   -3.8546    4.5673 C.3       1 <0>         0.0238
     15 N2         -1.3620   -0.5073    0.0123 N.3       1 <0>        -0.6444
     16 H1          1.0047    1.8421    0.0024 H         1 <0>         0.1312
     17 H2         -0.5450    1.8259   -0.8730 H         1 <0>         0.1334
     18 H3         -0.5280    1.8163    0.9069 H         1 <0>         0.1193
     19 H4          1.7055   -0.0428    1.2310 H         1 <0>         0.1402
     20 H5          0.1543   -0.2148    2.0867 H         1 <0>         0.1334
     21 H6         -0.1505   -2.4615    1.0826 H         1 <0>         0.0939
     22 H7          1.4007   -2.2894    0.2268 H         1 <0>         0.1006
     23 H8          3.4814   -2.5228    1.3840 H         1 <0>         0.1421
     24 H9          3.4299   -3.7877    5.4651 H         1 <0>         0.1392
     25 H10         0.9977   -3.4209    5.5481 H         1 <0>         0.1386
     26 H11        -0.9828   -3.8751    5.0635 H         1 <0>         0.0615
     27 H12        -0.7040   -2.1958    5.5837 H         1 <0>         0.0598
     28 H13        -2.1916   -2.6194    4.7029 H         1 <0>         0.1057
     29 H14         5.4168   -3.1360    5.3711 H         1 <0>         0.0587
     30 H15         5.1449   -4.8153    4.8475 H         1 <0>         0.0593
     31 H16         6.6465   -3.9739    4.3943 H         1 <0>         0.1080
     32 H17        -1.3766   -1.5138   -0.0579 H         1 <0>         0.3969
     33 H18        -1.8564   -0.1950    0.8346 H         1 <0>         0.3982
     34 H19         0.4744   -0.3295   -0.8281 H         1 <0>         0.4408
@<TRIPOS>BOND
     1    1    2 1
     2    1   16 1
     3    1   17 1
     4    1   18 1
     5    2    3 1
     6    2   15 1
     7    2   34 1
     8    3    4 1
     9    3   19 1
    10    3   20 1
    11    4    5 1
    12    4   21 1
    13    4   22 1
    14    5   10 ar
    15    5    6 ar
    16    6    7 ar
    17    6   23 1
    18    7    8 ar
    19    7   13 1
    20    8    9 ar
    21    8   24 1
    22    9   10 ar
    23    9   25 1
    24   10   11 1
    25   11   12 1
    26   12   26 1
    27   12   27 1
    28   12   28 1
    29   13   14 1
    30   14   29 1
    31   14   30 1
    32   14   31 1
    33   15   32 1
    34   15   33 1
@<TRIPOS>MOLECULE
ZINC64485566
   34    34     0     0     0
SMALL
USER_CHARGES

@<TRIPOS>ATOM
      1 C1         -0.0178    1.4648    0.0101 C.3       1 <0>        -0.0301
      2 N1          0.0021   -0.0041    0.0020 N.3       1 <0>        -0.3410
      3 C2          0.7062   -0.5275    1.1802 C.3       1 <0>         0.0109
      4 C3          0.9025   -2.0372    1.0281 C.3       1 <0>        -0.0724
      5 C4          1.6248   -2.5742    2.2368 C.ar      1 <0>        -0.0943
      6 C5          2.9983   -2.7206    2.2122 C.ar      1 <0>        -0.1065
      7 C6          3.6631   -3.2143    3.3246 C.ar      1 <0>         0.1041
      8 C7          2.9488   -3.5611    4.4621 C.ar      1 <0>        -0.1595
      9 C8          1.5757   -3.4147    4.4867 C.ar      1 <0>        -0.1595
     10 C9          0.9114   -2.9159    3.3758 C.ar      1 <0>         0.0923
     11 O1         -0.4400   -2.7665    3.4020 O.3       1 <0>        -0.3289
     12 C10        -1.1105   -3.1384    4.6079 C.3       1 <0>         0.0243
     13 O2          5.0150   -3.3588    3.3002 O.3       1 <0>        -0.3142
     14 C11         5.6339   -3.8730    4.4812 C.3       1 <0>         0.0243
     15 N2         -1.3458   -0.5430   -0.0816 N.4       1 <0>        -0.5104
     16 H1          1.0047    1.8421    0.0024 H         1 <0>         0.1305
     17 H2         -0.5450    1.8259   -0.8730 H         1 <0>         0.1058
     18 H3         -0.5280    1.8163    0.9069 H         1 <0>         0.0710
     19 H4          1.6780   -0.0418    1.2683 H         1 <0>         0.1341
     20 H5          0.1169   -0.3261    2.0749 H         1 <0>         0.0832
     21 H6         -0.0693   -2.5229    0.9401 H         1 <0>         0.0747
     22 H7          1.4917   -2.2386    0.1335 H         1 <0>         0.1003
     23 H8          3.5543   -2.4509    1.3265 H         1 <0>         0.1425
     24 H9          3.4665   -3.9459    5.3284 H         1 <0>         0.1373
     25 H10         1.0196   -3.6854    5.3721 H         1 <0>         0.1360
     26 H11        -0.9284   -4.1930    4.8146 H         1 <0>         0.0606
     27 H12        -0.7331   -2.5358    5.4341 H         1 <0>         0.0587
     28 H13        -2.1815   -2.9699    4.4949 H         1 <0>         0.1028
     29 H14         5.4254   -3.2083    5.3195 H         1 <0>         0.0579
     30 H15         5.2371   -4.8651    4.6968 H         1 <0>         0.0585
     31 H16         6.7111   -3.9379    4.3280 H         1 <0>         0.1069
     32 H17        -1.8074   -0.1692   -0.8972 H         1 <0>         0.4459
     33 H18        -1.3022   -1.5487   -0.1511 H         1 <0>         0.4462
     34 H19        -1.8630   -0.2851    0.7454 H         1 <0>         0.4080
@<TRIPOS>BOND
     1    1    2 1
     2    1   16 1
     3    1   17 1
     4    1   18 1
     5    2    3 1
     6    2   15 1
     7    3    4 1
     8    3   19 1
     9    3   20 1
    10    4    5 1
    11    4   21 1
    12    4   22 1
    13    5   10 ar
    14    5    6 ar
    15    6    7 ar
    16    6   23 1
    17    7    8 ar
    18    7   13 1
    19    8    9 ar
    20    8   24 1
    21    9   10 ar
    22    9   25 1
    23   10   11 1
    24   11   12 1
    25   12   26 1
    26   12   27 1
    27   12   28 1
    28   13   14 1
    29   14   29 1
    30   14   30 1
    31   14   31 1
    32   15   32 1
    33   15   33 1
    34   15   34 1
@<TRIPOS>MOLECULE
ZINC64470290
   33    33     0     0     0
SMALL
USER_CHARGES

@<TRIPOS>ATOM
      1 C1         -0.0178    1.4648    0.0101 C.3       1 <0>         0.0213
      2 N1          0.0021   -0.0041    0.0020 N.3       1 <0>        -0.3909
      3 C2          0.7062   -0.5275    1.1802 C.3       1 <0>         0.0572
      4 C3          0.5158   -2.0437    1.2563 C.3       1 <0>        -0.0729
      5 C4          1.2381   -2.5807    2.4650 C.ar      1 <0>        -0.0796
      6 C5          2.5581   -2.9782    2.3596 C.ar      1 <0>        -0.1109
      7 C6          3.2251   -3.4714    3.4654 C.ar      1 <0>        -0.1700
      8 C7          2.5708   -3.5679    4.6831 C.ar      1 <0>         0.0964
      9 C8          1.2424   -3.1673    4.7893 C.ar      1 <0>         0.1012
     10 C9          0.5811   -2.6693    3.6781 C.ar      1 <0>        -0.1676
     11 O1          0.5960   -3.2600    5.9822 O.3       1 <0>        -0.3067
     12 C10        -0.7665   -2.8305    6.0169 C.3       1 <0>         0.0258
     13 O2          3.2254   -4.0533    5.7718 O.3       1 <0>        -0.3072
     14 C11         4.5872   -4.4456    5.5885 C.3       1 <0>         0.0259
     15 N2          0.5935   -0.5104   -1.2260 N.3       1 <0>        -0.7047
     16 H1          1.0047    1.8421    0.0024 H         1 <0>         0.0352
     17 H2         -0.5450    1.8259   -0.8730 H         1 <0>         0.0690
     18 H3         -0.5280    1.8163    0.9069 H         1 <0>         0.0757
     19 H4          1.7688   -0.2983    1.1001 H         1 <0>         0.0468
     20 H5          0.3016   -0.0649    2.0805 H         1 <0>         0.0807
     21 H6         -0.5468   -2.2729    1.3365 H         1 <0>         0.0781
     22 H7          0.9204   -2.5063    0.3560 H         1 <0>         0.0735
     23 H8          3.0691   -2.9035    1.4111 H         1 <0>         0.1269
     24 H9          4.2559   -3.7819    3.3802 H         1 <0>         0.1357
     25 H10        -0.4487   -2.3543    3.7587 H         1 <0>         0.1356
     26 H11        -1.1619   -2.9573    7.0247 H         1 <0>         0.1013
     27 H12        -0.8234   -1.7795    5.7338 H         1 <0>         0.0548
     28 H13        -1.3534   -3.4272    5.3186 H         1 <0>         0.0551
     29 H14         4.6401   -5.2352    4.8388 H         1 <0>         0.0550
     30 H15         5.1706   -3.5877    5.2544 H         1 <0>         0.0549
     31 H16         4.9896   -4.8133    6.5324 H         1 <0>         0.1012
     32 H17         0.6071   -1.5193   -1.2315 H         1 <0>         0.3512
     33 H18         0.1098   -0.1509   -2.0353 H         1 <0>         0.3519
@<TRIPOS>BOND
     1    1    2 1
     2    1   16 1
     3    1   17 1
     4    1   18 1
     5    2    3 1
     6    2   15 1
     7    3    4 1
     8    3   19 1
     9    3   20 1
    10    4    5 1
    11    4   21 1
    12    4   22 1
    13    5   10 ar
    14    5    6 ar
    15    6    7 ar
    16    6   23 1
    17    7    8 ar
    18    7   24 1
    19    8    9 ar
    20    8   13 1
    21    9   10 ar
    22    9   11 1
    23   10   25 1
    24   11   12 1
    25   12   26 1
    26   12   27 1
    27   12   28 1
    28   13   14 1
    29   14   29 1
    30   14   30 1
    31   14   31 1
    32   15   32 1
    33   15   33 1
@<TRIPOS>MOLECULE
ZINC64470290
   34    34     0     0     0
SMALL
USER_CHARGES

@<TRIPOS>ATOM
      1 C1         -0.0178    1.4648    0.0101 C.3       1 <0>        -0.0834
      2 N1          0.0021   -0.0041    0.0020 N.4       1 <0>        -0.2415
      3 C2          0.7126   -0.4907    1.1921 C.3       1 <0>         0.0063
      4 C3          0.6259   -2.0172    1.2492 C.3       1 <0>        -0.0855
      5 C4          1.3548   -2.5164    2.4701 C.ar      1 <0>        -0.1092
      6 C5          2.7012   -2.8207    2.3932 C.ar      1 <0>        -0.1027
      7 C6          3.3743   -3.2790    3.5103 C.ar      1 <0>        -0.1722
      8 C7          2.6996   -3.4338    4.7107 C.ar      1 <0>         0.1164
      9 C8          1.3445   -3.1271    4.7882 C.ar      1 <0>         0.1053
     10 C9          0.6769   -2.6636    3.6659 C.ar      1 <0>        -0.1672
     11 O1          0.6779   -3.2774    5.9640 O.3       1 <0>        -0.3013
     12 C10        -0.7115   -2.9433    5.9694 C.3       1 <0>         0.0252
     13 O2          3.3602   -3.8849    5.8105 O.3       1 <0>        -0.3019
     14 C11         4.7499   -4.1803    5.6568 C.3       1 <0>         0.0229
     15 N2          0.6826   -0.4730   -1.1943 N.3       1 <0>        -0.6461
     16 H1          1.0047    1.8421    0.0024 H         1 <0>         0.1244
     17 H2         -0.5450    1.8259   -0.8730 H         1 <0>         0.1263
     18 H3         -0.5280    1.8163    0.9069 H         1 <0>         0.1333
     19 H4          1.7584   -0.1878    1.1401 H         1 <0>         0.1293
     20 H5          0.2557   -0.0671    2.0865 H         1 <0>         0.1367
     21 H6         -0.4199   -2.3200    1.3012 H         1 <0>         0.0907
     22 H7          1.0828   -2.4407    0.3548 H         1 <0>         0.1066
     23 H8          3.2282   -2.7004    1.4582 H         1 <0>         0.1292
     24 H9          4.4260   -3.5166    3.4474 H         1 <0>         0.1415
     25 H10        -0.3739   -2.4213    3.7243 H         1 <0>         0.1365
     26 H11        -0.8343   -1.8956    5.6950 H         1 <0>         0.0537
     27 H12        -1.2389   -3.5713    5.2514 H         1 <0>         0.0567
     28 H13        -1.1209   -3.1083    6.9660 H         1 <0>         0.1067
     29 H14         5.1542   -4.5298    6.6068 H         1 <0>         0.1076
     30 H15         4.8751   -4.9560    4.9013 H         1 <0>         0.0591
     31 H16         5.2803   -3.2805    5.3452 H         1 <0>         0.0580
     32 H17         0.1775   -0.2058   -2.0258 H         1 <0>         0.3983
     33 H18         1.6333   -0.1364   -1.2248 H         1 <0>         0.3985
     34 H19        -0.9445   -0.3533    0.0092 H         1 <0>         0.4414
@<TRIPOS>BOND
     1    1    2 1
     2    1   16 1
     3    1   17 1
     4    1   18 1
     5    2    3 1
     6    2   15 1
     7    2   34 1
     8    3    4 1
     9    3   19 1
    10    3   20 1
    11    4    5 1
    12    4   21 1
    13    4   22 1
    14    5   10 ar
    15    5    6 ar
    16    6    7 ar
    17    6   23 1
    18    7    8 ar
    19    7   24 1
    20    8    9 ar
    21    8   13 1
    22    9   10 ar
    23    9   11 1
    24   10   25 1
    25   11   12 1
    26   12   26 1
    27   12   27 1
    28   12   28 1
    29   13   14 1
    30   14   29 1
    31   14   30 1
    32   14   31 1
    33   15   32 1
    34   15   33 1
@<TRIPOS>MOLECULE
ZINC64470290
   34    34     0     0     0
SMALL
USER_CHARGES

@<TRIPOS>ATOM
      1 C1         -0.0178    1.4648    0.0101 C.3       1 <0>        -0.0305
      2 N1          0.0021   -0.0041    0.0020 N.3       1 <0>        -0.3421
      3 C2          0.7062   -0.5275    1.1802 C.3       1 <0>         0.0085
      4 C3          0.5158   -2.0437    1.2563 C.3       1 <0>        -0.0773
      5 C4          1.2381   -2.5807    2.4650 C.ar      1 <0>        -0.1065
      6 C5          2.5581   -2.9782    2.3596 C.ar      1 <0>        -0.1101
      7 C6          3.2251   -3.4714    3.4654 C.ar      1 <0>        -0.1718
      8 C7          2.5708   -3.5679    4.6831 C.ar      1 <0>         0.1139
      9 C8          1.2424   -3.1673    4.7893 C.ar      1 <0>         0.1072
     10 C9          0.5811   -2.6693    3.6781 C.ar      1 <0>        -0.1646
     11 O1          0.5960   -3.2600    5.9822 O.3       1 <0>        -0.3015
     12 C10        -0.7665   -2.8305    6.0169 C.3       1 <0>         0.0247
     13 O2          3.2254   -4.0533    5.7718 O.3       1 <0>        -0.3019
     14 C11         4.5872   -4.4456    5.5885 C.3       1 <0>         0.0234
     15 N2          0.5935   -0.5104   -1.2260 N.4       1 <0>        -0.5111
     16 H1          1.0047    1.8421    0.0024 H         1 <0>         0.0720
     17 H2         -0.5450    1.8259   -0.8730 H         1 <0>         0.1063
     18 H3         -0.5280    1.8163    0.9069 H         1 <0>         0.1307
     19 H4          1.7688   -0.2983    1.1001 H         1 <0>         0.0824
     20 H5          0.3016   -0.0649    2.0805 H         1 <0>         0.1346
     21 H6         -0.5468   -2.2729    1.3365 H         1 <0>         0.0986
     22 H7          0.9204   -2.5063    0.3560 H         1 <0>         0.0698
     23 H8          3.0691   -2.9035    1.4111 H         1 <0>         0.1238
     24 H9          4.2559   -3.7819    3.3802 H         1 <0>         0.1403
     25 H10        -0.4487   -2.3543    3.7587 H         1 <0>         0.1383
     26 H11        -1.3534   -3.4272    5.3186 H         1 <0>         0.0570
     27 H12        -1.1619   -2.9573    7.0247 H         1 <0>         0.1068
     28 H13        -0.8234   -1.7795    5.7338 H         1 <0>         0.0551
     29 H14         4.6401   -5.2352    4.8388 H         1 <0>         0.0583
     30 H15         5.1706   -3.5877    5.2544 H         1 <0>         0.0574
     31 H16         4.9896   -4.8133    6.5324 H         1 <0>         0.1074
     32 H17         1.5608   -0.2276   -1.2750 H         1 <0>         0.4076
     33 H18         0.5367   -1.5178   -1.2362 H         1 <0>         0.4457
     34 H19         0.0933   -0.1373   -2.0189 H         1 <0>         0.4472
@<TRIPOS>BOND
     1    1    2 1
     2    1   16 1
     3    1   17 1
     4    1   18 1
     5    2    3 1
     6    2   15 1
     7    3    4 1
     8    3   19 1
     9    3   20 1
    10    4    5 1
    11    4   21 1
    12    4   22 1
    13    5   10 ar
    14    5    6 ar
    15    6    7 ar
    16    6   23 1
    17    7    8 ar
    18    7   24 1
    19    8    9 ar
    20    8   13 1
    21    9   10 ar
    22    9   11 1
    23   10   25 1
    24   11   12 1
    25   12   26 1
    26   12   27 1
    27   12   28 1
    28   13   14 1
    29   14   29 1
    30   14   30 1
    31   14   31 1
    32   15   32 1
    33   15   33 1
    34   15   34 1
@<TRIPOS>MOLECULE
ZINC64490638
   37    37     0     0     0
SMALL
USER_CHARGES

@<TRIPOS>ATOM
      1 C1         -0.0178    1.4648    0.0101 C.3       1 <0>         0.0213
      2 N1          0.0021   -0.0041    0.0020 N.3       1 <0>        -0.3902
      3 C2          0.7062   -0.5275    1.1802 C.3       1 <0>         0.0581
      4 C3          0.5158   -2.0437    1.2563 C.3       1 <0>        -0.0785
      5 C4          1.2381   -2.5807    2.4650 C.ar      1 <0>        -0.0062
      6 C5          2.5578   -2.9781    2.3592 C.ar      1 <0>        -0.2291
      7 C6          3.2259   -3.4731    3.4689 C.ar      1 <0>         0.1523
      8 C7          2.5670   -3.5691    4.6887 C.ar      1 <0>         0.0238
      9 C8          1.2402   -3.1680    4.7911 C.ar      1 <0>         0.1523
     10 C9          0.5809   -2.6692    3.6778 C.ar      1 <0>        -0.2295
     11 O1          0.5911   -3.2599    5.9825 O.3       1 <0>        -0.3023
     12 C10        -0.7712   -2.8295    6.0140 C.3       1 <0>         0.0244
     13 O2          3.2190   -4.0548    5.7801 O.3       1 <0>        -0.3128
     14 C11         3.9094   -3.1080    6.5980 C.3       1 <0>         0.0353
     15 O3          4.5240   -3.8647    3.3635 O.3       1 <0>        -0.3024
     16 C12         5.1375   -3.7384    2.0791 C.3       1 <0>         0.0246
     17 N2          0.5935   -0.5104   -1.2260 N.3       1 <0>        -0.7047
     18 H1          1.0047    1.8421    0.0024 H         1 <0>         0.0354
     19 H2         -0.5450    1.8259   -0.8730 H         1 <0>         0.0697
     20 H3         -0.5280    1.8163    0.9069 H         1 <0>         0.0761
     21 H4          1.7688   -0.2983    1.1001 H         1 <0>         0.0471
     22 H5          0.3016   -0.0649    2.0805 H         1 <0>         0.0824
     23 H6         -0.5468   -2.2729    1.3365 H         1 <0>         0.0832
     24 H7          0.9204   -2.5063    0.3560 H         1 <0>         0.0760
     25 H8          3.0692   -2.9032    1.4108 H         1 <0>         0.1351
     26 H9         -0.4488   -2.3532    3.7575 H         1 <0>         0.1359
     27 H10        -0.8269   -1.7785    5.7304 H         1 <0>         0.0571
     28 H11        -1.3570   -3.4260    5.3146 H         1 <0>         0.0586
     29 H12        -1.1690   -2.9557    7.0209 H         1 <0>         0.1036
     30 H13         4.6699   -2.6011    6.0041 H         1 <0>         0.0437
     31 H14         3.2004   -2.3749    6.9827 H         1 <0>         0.0438
     32 H15         4.3846   -3.6259    7.4312 H         1 <0>         0.0928
     33 H16         4.5902   -4.3408    1.3542 H         1 <0>         0.0585
     34 H17         5.1208   -2.6934    1.7697 H         1 <0>         0.0570
     35 H18         6.1696   -4.0847    2.1339 H         1 <0>         0.1037
     36 H19         0.6071   -1.5193   -1.2315 H         1 <0>         0.3510
     37 H20         0.1098   -0.1509   -2.0353 H         1 <0>         0.3527
@<TRIPOS>BOND
     1    1    2 1
     2    1   18 1
     3    1   19 1
     4    1   20 1
     5    2    3 1
     6    2   17 1
     7    3    4 1
     8    3   21 1
     9    3   22 1
    10    4    5 1
    11    4   23 1
    12    4   24 1
    13    5   10 ar
    14    5    6 ar
    15    6    7 ar
    16    6   25 1
    17    7    8 ar
    18    7   15 1
    19    8    9 ar
    20    8   13 1
    21    9   10 ar
    22    9   11 1
    23   10   26 1
    24   11   12 1
    25   12   27 1
    26   12   28 1
    27   12   29 1
    28   13   14 1
    29   14   30 1
    30   14   31 1
    31   14   32 1
    32   15   16 1
    33   16   33 1
    34   16   34 1
    35   16   35 1
    36   17   36 1
    37   17   37 1
@<TRIPOS>MOLECULE
ZINC64490638
   38    38     0     0     0
SMALL
USER_CHARGES

@<TRIPOS>ATOM
      1 C1         -0.0178    1.4648    0.0101 C.3       1 <0>        -0.0834
      2 N1          0.0021   -0.0041    0.0020 N.4       1 <0>        -0.2414
      3 C2          0.7126   -0.4907    1.1921 C.3       1 <0>         0.0071
      4 C3          0.6259   -2.0172    1.2492 C.3       1 <0>        -0.0918
      5 C4          1.3548   -2.5164    2.4701 C.ar      1 <0>        -0.0324
      6 C5          2.7010   -2.8206    2.3928 C.ar      1 <0>        -0.2264
      7 C6          3.3752   -3.2807    3.5138 C.ar      1 <0>         0.1555
      8 C7          2.6957   -3.4353    4.7163 C.ar      1 <0>         0.0405
      9 C8          1.3423   -3.1279    4.7899 C.ar      1 <0>         0.1558
     10 C9          0.6766   -2.6635    3.6656 C.ar      1 <0>        -0.2285
     11 O1          0.6730   -3.2776    5.9642 O.3       1 <0>        -0.2970
     12 C10        -0.7162   -2.9426    5.9664 C.3       1 <0>         0.0238
     13 O2          3.3537   -3.8870    5.8186 O.3       1 <0>        -0.3118
     14 C11         3.9573   -2.9040    6.6620 C.3       1 <0>         0.0357
     15 O3          4.6994   -3.5805    3.4366 O.3       1 <0>        -0.2970
     16 C12         5.3331   -3.3980    2.1688 C.3       1 <0>         0.0240
     17 N2          0.6826   -0.4730   -1.1943 N.3       1 <0>        -0.6463
     18 H1          1.0047    1.8421    0.0024 H         1 <0>         0.1246
     19 H2         -0.5450    1.8259   -0.8730 H         1 <0>         0.1271
     20 H3         -0.5280    1.8163    0.9069 H         1 <0>         0.1338
     21 H4          1.7584   -0.1878    1.1401 H         1 <0>         0.1298
     22 H5          0.2557   -0.0671    2.0865 H         1 <0>         0.1387
     23 H6         -0.4199   -2.3200    1.3012 H         1 <0>         0.0960
     24 H7          1.0828   -2.4407    0.3548 H         1 <0>         0.1094
     25 H8          3.2283   -2.7001    1.4580 H         1 <0>         0.1373
     26 H9         -0.3740   -2.4202    3.7231 H         1 <0>         0.1370
     27 H10        -1.1280   -3.1071    6.9621 H         1 <0>         0.1089
     28 H11        -0.8377   -1.8949    5.6915 H         1 <0>         0.0559
     29 H12        -1.2424   -3.5703    5.2473 H         1 <0>         0.0600
     30 H13         4.4473   -3.3970    7.5016 H         1 <0>         0.0989
     31 H14         4.6948   -2.3392    6.0916 H         1 <0>         0.0459
     32 H15         3.1903   -2.2259    7.0362 H         1 <0>         0.0460
     33 H16         6.3851   -3.6728    2.2455 H         1 <0>         0.1088
     34 H17         4.8461   -4.0287    1.4250 H         1 <0>         0.0603
     35 H18         5.2514   -2.3532    1.8689 H         1 <0>         0.0555
     36 H19         0.1775   -0.2058   -2.0258 H         1 <0>         0.3991
     37 H20         1.6333   -0.1364   -1.2248 H         1 <0>         0.3984
     38 H21        -0.9445   -0.3533    0.0092 H         1 <0>         0.4421
@<TRIPOS>BOND
     1    1    2 1
     2    1   18 1
     3    1   19 1
     4    1   20 1
     5    2    3 1
     6    2   17 1
     7    2   38 1
     8    3    4 1
     9    3   21 1
    10    3   22 1
    11    4    5 1
    12    4   23 1
    13    4   24 1
    14    5   10 ar
    15    5    6 ar
    16    6    7 ar
    17    6   25 1
    18    7    8 ar
    19    7   15 1
    20    8    9 ar
    21    8   13 1
    22    9   10 ar
    23    9   11 1
    24   10   26 1
    25   11   12 1
    26   12   27 1
    27   12   28 1
    28   12   29 1
    29   13   14 1
    30   14   30 1
    31   14   31 1
    32   14   32 1
    33   15   16 1
    34   16   33 1
    35   16   34 1
    36   16   35 1
    37   17   36 1
    38   17   37 1
@<TRIPOS>MOLECULE
ZINC64490638
   38    38     0     0     0
SMALL
USER_CHARGES

@<TRIPOS>ATOM
      1 C1         -0.0178    1.4648    0.0101 C.3       1 <0>        -0.0305
      2 N1          0.0021   -0.0041    0.0020 N.3       1 <0>        -0.3413
      3 C2          0.7062   -0.5275    1.1802 C.3       1 <0>         0.0093
      4 C3          0.5158   -2.0437    1.2563 C.3       1 <0>        -0.0834
      5 C4          1.2381   -2.5807    2.4650 C.ar      1 <0>        -0.0307
      6 C5          2.5578   -2.9781    2.3592 C.ar      1 <0>        -0.2327
      7 C6          3.2259   -3.4731    3.4689 C.ar      1 <0>         0.1551
      8 C7          2.5670   -3.5691    4.6887 C.ar      1 <0>         0.0386
      9 C8          1.2402   -3.1680    4.7911 C.ar      1 <0>         0.1574
     10 C9          0.5809   -2.6692    3.6778 C.ar      1 <0>        -0.2251
     11 O1          0.5911   -3.2599    5.9825 O.3       1 <0>        -0.2971
     12 C10        -0.7712   -2.8295    6.0140 C.3       1 <0>         0.0232
     13 O2          3.2190   -4.0548    5.7801 O.3       1 <0>        -0.3119
     14 C11         3.9094   -3.1080    6.5980 C.3       1 <0>         0.0355
     15 O3          4.5240   -3.8647    3.3635 O.3       1 <0>        -0.2970
     16 C12         5.1375   -3.7384    2.0791 C.3       1 <0>         0.0252
     17 N2          0.5935   -0.5104   -1.2260 N.4       1 <0>        -0.5114
     18 H1          1.0047    1.8421    0.0024 H         1 <0>         0.0723
     19 H2         -0.5450    1.8259   -0.8730 H         1 <0>         0.1071
     20 H3         -0.5280    1.8163    0.9069 H         1 <0>         0.1314
     21 H4          1.7688   -0.2983    1.1001 H         1 <0>         0.0828
     22 H5          0.3016   -0.0649    2.0805 H         1 <0>         0.1365
     23 H6         -0.5468   -2.2729    1.3365 H         1 <0>         0.1038
     24 H7          0.9204   -2.5063    0.3560 H         1 <0>         0.0725
     25 H8          3.0692   -2.9032    1.4108 H         1 <0>         0.1322
     26 H9         -0.4488   -2.3532    3.7575 H         1 <0>         0.1388
     27 H10        -1.3570   -3.4260    5.3146 H         1 <0>         0.0604
     28 H11        -1.1690   -2.9557    7.0209 H         1 <0>         0.1090
     29 H12        -0.8269   -1.7785    5.7304 H         1 <0>         0.0573
     30 H13         4.6699   -2.6011    6.0041 H         1 <0>         0.0455
     31 H14         3.2004   -2.3749    6.9827 H         1 <0>         0.0463
     32 H15         4.3846   -3.6259    7.4312 H         1 <0>         0.0988
     33 H16         6.1696   -4.0847    2.1339 H         1 <0>         0.1085
     34 H17         4.5902   -4.3408    1.3542 H         1 <0>         0.0583
     35 H18         5.1208   -2.6934    1.7697 H         1 <0>         0.0540
     36 H19         1.5608   -0.2276   -1.2750 H         1 <0>         0.4076
     37 H20         0.5367   -1.5178   -1.2362 H         1 <0>         0.4457
     38 H21         0.0933   -0.1373   -2.0189 H         1 <0>         0.4479
@<TRIPOS>BOND
     1    1    2 1
     2    1   18 1
     3    1   19 1
     4    1   20 1
     5    2    3 1
     6    2   17 1
     7    3    4 1
     8    3   21 1
     9    3   22 1
    10    4    5 1
    11    4   23 1
    12    4   24 1
    13    5   10 ar
    14    5    6 ar
    15    6    7 ar
    16    6   25 1
    17    7    8 ar
    18    7   15 1
    19    8    9 ar
    20    8   13 1
    21    9   10 ar
    22    9   11 1
    23   10   26 1
    24   11   12 1
    25   12   27 1
    26   12   28 1
    27   12   29 1
    28   13   14 1
    29   14   30 1
    30   14   31 1
    31   14   32 1
    32   15   16 1
    33   16   33 1
    34   16   34 1
    35   16   35 1
    36   17   36 1
    37   17   37 1
    38   17   38 1
@<TRIPOS>MOLECULE
ZINC19167170
   24    24     0     0     0
SMALL
USER_CHARGES
(1R)-2-hydrazino-1-phenyl-ethanol
@<TRIPOS>ATOM
      1 C1         -4.4861    2.4564   -4.3540 C.ar      1 <0>        -0.0956
      2 C2         -4.5606    3.0698   -3.1174 C.ar      1 <0>        -0.1166
      3 C3         -3.8229    2.5786   -2.0566 C.ar      1 <0>        -0.1008
      4 C4         -3.0111    1.4736   -2.2321 C.ar      1 <0>        -0.1160
      5 C5         -2.9325    0.8634   -3.4700 C.ar      1 <0>        -0.0858
      6 C6         -3.6735    1.3520   -4.5298 C.ar      1 <0>        -0.1198
      7 C7         -2.2069    0.9381   -1.0756 C.3       1 <0>         0.1490
      8 H1         -2.7101    1.1593   -0.1228 H         1 <0>         0.0914
      9 C8         -0.7955    1.5269   -1.1198 C.3       1 <0>        -0.0248
     10 N1         -0.0116    1.0048    0.0076 N.4       1 <0>        -0.3941
     11 N2          1.3386    1.5443   -0.0024 N.3       1 <0>        -0.6443
     12 O1         -2.1320   -0.4861   -1.1665 O.3       1 <0>        -0.5735
     13 H2         -5.0630    2.8398   -5.1826 H         1 <0>         0.1319
     14 H3         -5.1954    3.9327   -2.9801 H         1 <0>         0.1329
     15 H4         -3.8812    3.0579   -1.0905 H         1 <0>         0.1270
     16 H5         -2.2949    0.0027   -3.6083 H         1 <0>         0.1283
     17 H6         -3.6156    0.8725   -5.4958 H         1 <0>         0.1311
     18 H7         -0.3100    1.2449   -2.0657 H         1 <0>         0.1368
     19 H8         -0.8532    2.6232   -1.0498 H         1 <0>         0.1499
     20 H9         -0.4971    1.2868    0.9535 H         1 <0>         0.4697
     21 H10         1.8770    1.1857    0.7719 H         1 <0>         0.4010
     22 H11         1.7974    1.3542   -0.8807 H         1 <0>         0.3994
     23 H12        -1.5816   -1.0577   -0.4047 H         1 <0>         0.4023
     24 H13         0.0461   -0.0915   -0.0624 H         1 <0>         0.4206
@<TRIPOS>BOND
     1    1    6 ar
     2    1    2 ar
     3    1   13 1
     4    2    3 ar
     5    2   14 1
     6    3    4 ar
     7    3   15 1
     8    4    5 ar
     9    4    7 1
    10    5    6 ar
    11    5   16 1
    12    6   17 1
    13    7    8 1
    14    7    9 1
    15    7   12 1
    16    9   10 1
    17    9   18 1
    18    9   19 1
    19   10   11 1
    20   10   20 1
    21   10   24 1
    22   11   21 1
    23   11   22 1
    24   12   23 1
@<TRIPOS>MOLECULE
ZINC19167170
   24    24     0     0     0
SMALL
USER_CHARGES
(1R)-2-hydrazino-1-phenyl-ethanol
@<TRIPOS>ATOM
      1 C1         -4.4861    2.4564   -4.3540 C.ar      1 <0>        -0.1025
      2 C2         -4.5606    3.0698   -3.1174 C.ar      1 <0>        -0.1184
      3 C3         -3.8229    2.5786   -2.0566 C.ar      1 <0>        -0.1073
      4 C4         -3.0111    1.4736   -2.2321 C.ar      1 <0>        -0.1098
      5 C5         -2.9325    0.8634   -3.4700 C.ar      1 <0>        -0.0871
      6 C6         -3.6735    1.3520   -4.5298 C.ar      1 <0>        -0.1207
      7 C7         -2.2069    0.9381   -1.0756 C.3       1 <0>         0.1770
      8 H1         -2.7101    1.1593   -0.1228 H         1 <0>         0.0742
      9 C8         -0.7955    1.5269   -1.1198 C.3       1 <0>        -0.0259
     10 N1         -0.0116    1.0048    0.0076 N.3       1 <0>        -0.4816
     11 N2          1.3386    1.5443   -0.0024 N.4       1 <0>        -0.5521
     12 O1         -2.1320   -0.4861   -1.1665 O.3       1 <0>        -0.5787
     13 H2         -5.0630    2.8398   -5.1826 H         1 <0>         0.1296
     14 H3         -5.1954    3.9327   -2.9801 H         1 <0>         0.1299
     15 H4         -3.8812    3.0579   -1.0905 H         1 <0>         0.1229
     16 H5         -2.2949    0.0027   -3.6083 H         1 <0>         0.1284
     17 H6         -3.6156    0.8725   -5.4958 H         1 <0>         0.1291
     18 H7         -0.3100    1.2449   -2.0657 H         1 <0>         0.1161
     19 H8         -0.8532    2.6232   -1.0498 H         1 <0>         0.0832
     20 H9          1.9022    1.1378    0.8503 H         1 <0>         0.4741
     21 H10         1.2959    2.6407    0.0754 H         1 <0>         0.4313
     22 H11        -1.5816   -1.0577   -0.4047 H         1 <0>         0.4164
     23 H12        -0.4971    1.2868    0.9535 H         1 <0>         0.4004
     24 H13         1.8391    1.2625   -0.9405 H         1 <0>         0.4713
@<TRIPOS>BOND
     1    1    6 ar
     2    1    2 ar
     3    1   13 1
     4    2    3 ar
     5    2   14 1
     6    3    4 ar
     7    3   15 1
     8    4    5 ar
     9    4    7 1
    10    5    6 ar
    11    5   16 1
    12    6   17 1
    13    7    8 1
    14    7    9 1
    15    7   12 1
    16    9   10 1
    17    9   18 1
    18    9   19 1
    19   10   11 1
    20   10   23 1
    21   11   20 1
    22   11   21 1
    23   11   24 1
    24   12   22 1
@<TRIPOS>MOLECULE
ZINC19167170
   23    23     0     0     0
SMALL
USER_CHARGES
(1R)-2-hydrazino-1-phenyl-ethanol
@<TRIPOS>ATOM
      1 C1         -4.4861    2.4564   -4.3540 C.ar      1 <0>        -0.1157
      2 C2         -4.5606    3.0698   -3.1174 C.ar      1 <0>        -0.1208
      3 C3         -3.8229    2.5786   -2.0566 C.ar      1 <0>        -0.1076
      4 C4         -3.0111    1.4736   -2.2321 C.ar      1 <0>        -0.0871
      5 C5         -2.9325    0.8634   -3.4700 C.ar      1 <0>        -0.0920
      6 C6         -3.6735    1.3520   -4.5298 C.ar      1 <0>        -0.1243
      7 C7         -2.2069    0.9381   -1.0756 C.3       1 <0>         0.1640
      8 H1         -2.7101    1.1593   -0.1228 H         1 <0>         0.0725
      9 C8         -0.7955    1.5269   -1.1198 C.3       1 <0>         0.0227
     10 N1         -0.0116    1.0048    0.0076 N.3       1 <0>        -0.4968
     11 N2          1.3386    1.5443   -0.0024 N.3       1 <0>        -0.6552
     12 O1         -2.1320   -0.4861   -1.1665 O.3       1 <0>        -0.5933
     13 H2         -5.0630    2.8398   -5.1826 H         1 <0>         0.1235
     14 H3         -5.1954    3.9327   -2.9801 H         1 <0>         0.1255
     15 H4         -3.8812    3.0579   -1.0905 H         1 <0>         0.1244
     16 H5         -2.2949    0.0027   -3.6083 H         1 <0>         0.1248
     17 H6         -3.6156    0.8725   -5.4958 H         1 <0>         0.1234
     18 H7         -0.3100    1.2449   -2.0657 H         1 <0>         0.0451
     19 H8         -0.8532    2.6232   -1.0498 H         1 <0>         0.0935
     20 H9          1.9022    1.1378    0.8503 H         1 <0>         0.3583
     21 H10         1.8391    1.2625   -0.9405 H         1 <0>         0.3089
     22 H11        -1.5816   -1.0577   -0.4047 H         1 <0>         0.4067
     23 H12         0.0461   -0.0915   -0.0624 H         1 <0>         0.2995
@<TRIPOS>BOND
     1    1    6 ar
     2    1    2 ar
     3    1   13 1
     4    2    3 ar
     5    2   14 1
     6    3    4 ar
     7    3   15 1
     8    4    5 ar
     9    4    7 1
    10    5    6 ar
    11    5   16 1
    12    6   17 1
    13    7    8 1
    14    7    9 1
    15    7   12 1
    16    9   10 1
    17    9   18 1
    18    9   19 1
    19   10   11 1
    20   10   23 1
    21   11   20 1
    22   11   21 1
    23   12   22 1
@<TRIPOS>MOLECULE
ZINC19167960
   24    24     0     0     0
SMALL
USER_CHARGES
(1S)-2-hydrazino-1-phenyl-ethanol
@<TRIPOS>ATOM
      1 C1          1.2084   -0.6789   -0.0136 C.ar      1 <0>        -0.0952
      2 C2          0.0021   -0.0041    0.0020 C.ar      1 <0>        -0.1167
      3 C3         -0.0167    1.3781    0.0096 C.ar      1 <0>        -0.0998
      4 C4          1.1709    2.0855    0.0021 C.ar      1 <0>        -0.1156
      5 C5          2.3773    1.4107   -0.0136 C.ar      1 <0>        -0.0860
      6 C6          2.3961    0.0285   -0.0212 C.ar      1 <0>        -0.1198
      7 C7          1.1505    3.5924    0.0099 C.3       1 <0>         0.1492
      8 H1          0.1955    3.9657   -0.3883 H         1 <0>         0.0900
      9 C8          1.4074    4.0985    1.4307 C.3       1 <0>        -0.0255
     10 N1          1.2692    5.5607    1.4621 N.4       1 <0>        -0.3939
     11 N2          1.5070    6.0779    2.8001 N.3       1 <0>        -0.6446
     12 O1          2.1679    4.0871   -0.8632 O.3       1 <0>        -0.5735
     13 H2          1.2231   -1.7588   -0.0196 H         1 <0>         0.1320
     14 H3         -0.9258   -0.5567    0.0079 H         1 <0>         0.1330
     15 H4         -0.9592    1.9054    0.0170 H         1 <0>         0.1270
     16 H5          3.3052    1.9634   -0.0192 H         1 <0>         0.1273
     17 H6          3.3386   -0.4987   -0.0327 H         1 <0>         0.1312
     18 H7          0.6777    3.6463    2.1185 H         1 <0>         0.1499
     19 H8          2.4253    3.8196    1.7409 H         1 <0>         0.1373
     20 H9          1.9990    6.0128    0.7743 H         1 <0>         0.4205
     21 H10         2.4124    5.7928    3.1423 H         1 <0>         0.3993
     22 H11         1.4121    7.0822    2.8216 H         1 <0>         0.4009
     23 H12         2.3060    5.1712   -0.9882 H         1 <0>         0.4033
     24 H13         0.2514    5.8396    1.1519 H         1 <0>         0.4699
@<TRIPOS>BOND
     1    1    6 ar
     2    1    2 ar
     3    1   13 1
     4    2    3 ar
     5    2   14 1
     6    3    4 ar
     7    3   15 1
     8    4    5 ar
     9    4    7 1
    10    5    6 ar
    11    5   16 1
    12    6   17 1
    13    7    8 1
    14    7    9 1
    15    7   12 1
    16    9   10 1
    17    9   18 1
    18    9   19 1
    19   10   11 1
    20   10   20 1
    21   10   24 1
    22   11   21 1
    23   11   22 1
    24   12   23 1
@<TRIPOS>MOLECULE
ZINC19167960
   24    24     0     0     0
SMALL
USER_CHARGES
(1S)-2-hydrazino-1-phenyl-ethanol
@<TRIPOS>ATOM
      1 C1          1.2084   -0.6789   -0.0136 C.ar      1 <0>        -0.1015
      2 C2          0.0021   -0.0041    0.0020 C.ar      1 <0>        -0.1177
      3 C3         -0.0167    1.3781    0.0096 C.ar      1 <0>        -0.1027
      4 C4          1.1709    2.0855    0.0021 C.ar      1 <0>        -0.1092
      5 C5          2.3773    1.4107   -0.0136 C.ar      1 <0>        -0.0899
      6 C6          2.3961    0.0285   -0.0212 C.ar      1 <0>        -0.1213
      7 C7          1.1505    3.5924    0.0099 C.3       1 <0>         0.1736
      8 H1          0.1955    3.9657   -0.3883 H         1 <0>         0.0858
      9 C8          1.4074    4.0985    1.4307 C.3       1 <0>        -0.0256
     10 N1          1.2692    5.5607    1.4621 N.3       1 <0>        -0.4779
     11 N2          1.5070    6.0779    2.8001 N.4       1 <0>        -0.5525
     12 O1          2.1679    4.0871   -0.8632 O.3       1 <0>        -0.5815
     13 H2          1.2231   -1.7588   -0.0196 H         1 <0>         0.1299
     14 H3         -0.9258   -0.5567    0.0079 H         1 <0>         0.1309
     15 H4         -0.9592    1.9054    0.0170 H         1 <0>         0.1258
     16 H5          3.3052    1.9634   -0.0192 H         1 <0>         0.1249
     17 H6          3.3386   -0.4987   -0.0327 H         1 <0>         0.1288
     18 H7          0.6777    3.6463    2.1185 H         1 <0>         0.1172
     19 H8          2.4253    3.8196    1.7409 H         1 <0>         0.0844
     20 H9          1.3974    7.1724    2.7950 H         1 <0>         0.4744
     21 H10         2.5256    5.8129    3.1200 H         1 <0>         0.4318
     22 H11         2.3060    5.1712   -0.9882 H         1 <0>         0.4056
     23 H12         1.9990    6.0128    0.7743 H         1 <0>         0.3952
     24 H13         0.7780    5.6396    3.4975 H         1 <0>         0.4714
@<TRIPOS>BOND
     1    1    6 ar
     2    1    2 ar
     3    1   13 1
     4    2    3 ar
     5    2   14 1
     6    3    4 ar
     7    3   15 1
     8    4    5 ar
     9    4    7 1
    10    5    6 ar
    11    5   16 1
    12    6   17 1
    13    7    8 1
    14    7    9 1
    15    7   12 1
    16    9   10 1
    17    9   18 1
    18    9   19 1
    19   10   11 1
    20   10   23 1
    21   11   20 1
    22   11   21 1
    23   11   24 1
    24   12   22 1
@<TRIPOS>MOLECULE
ZINC19167960
   23    23     0     0     0
SMALL
USER_CHARGES
(1S)-2-hydrazino-1-phenyl-ethanol
@<TRIPOS>ATOM
      1 C1          1.2084   -0.6789   -0.0136 C.ar      1 <0>        -0.1157
      2 C2          0.0021   -0.0041    0.0020 C.ar      1 <0>        -0.1221
      3 C3         -0.0167    1.3781    0.0096 C.ar      1 <0>        -0.1107
      4 C4          1.1709    2.0855    0.0021 C.ar      1 <0>        -0.0876
      5 C5          2.3773    1.4107   -0.0136 C.ar      1 <0>        -0.0887
      6 C6          2.3961    0.0285   -0.0212 C.ar      1 <0>        -0.1234
      7 C7          1.1505    3.5924    0.0099 C.3       1 <0>         0.1674
      8 H1          0.1955    3.9657   -0.3883 H         1 <0>         0.0588
      9 C8          1.4074    4.0985    1.4307 C.3       1 <0>         0.0213
     10 N1          1.2692    5.5607    1.4621 N.3       1 <0>        -0.4999
     11 N2          1.5070    6.0779    2.8001 N.3       1 <0>        -0.6555
     12 O1          2.1679    4.0871   -0.8632 O.3       1 <0>        -0.5885
     13 H2          1.2231   -1.7588   -0.0196 H         1 <0>         0.1235
     14 H3         -0.9258   -0.5567    0.0079 H         1 <0>         0.1245
     15 H4         -0.9592    1.9054    0.0170 H         1 <0>         0.1210
     16 H5          3.3052    1.9634   -0.0192 H         1 <0>         0.1273
     17 H6          3.3386   -0.4987   -0.0327 H         1 <0>         0.1243
     18 H7          0.6777    3.6463    2.1185 H         1 <0>         0.0431
     19 H8          2.4253    3.8196    1.7409 H         1 <0>         0.0948
     20 H9          1.3974    7.1724    2.7950 H         1 <0>         0.3579
     21 H10         0.7780    5.6396    3.4975 H         1 <0>         0.3081
     22 H11         2.3060    5.1712   -0.9882 H         1 <0>         0.4166
     23 H12         0.2514    5.8396    1.1519 H         1 <0>         0.3034
@<TRIPOS>BOND
     1    1    6 ar
     2    1    2 ar
     3    1   13 1
     4    2    3 ar
     5    2   14 1
     6    3    4 ar
     7    3   15 1
     8    4    5 ar
     9    4    7 1
    10    5    6 ar
    11    5   16 1
    12    6   17 1
    13    7    8 1
    14    7    9 1
    15    7   12 1
    16    9   10 1
    17    9   18 1
    18    9   19 1
    19   10   11 1
    20   10   23 1
    21   11   20 1
    22   11   21 1
    23   12   22 1
@<TRIPOS>MOLECULE
ZINC19172197
   28    28     0     0     0
SMALL
USER_CHARGES
(1R)-2-hydrazino-1-(3-methoxyphenyl)ethanol
@<TRIPOS>ATOM
      1 C1          2.3128   -0.3032   -0.0208 C.3       1 <0>         0.0199
      2 O1          2.3661    1.1248   -0.0141 O.3       1 <0>        -0.3140
      3 C2          1.1791    1.7865    0.0004 C.ar      1 <0>         0.1343
      4 C3         -0.0126    1.0758    0.0080 C.ar      1 <0>        -0.1875
      5 C4         -1.2177    1.7507    0.0173 C.ar      1 <0>        -0.0774
      6 C5         -1.2370    3.1334    0.0303 C.ar      1 <0>        -0.1247
      7 C6         -0.0511    3.8437    0.0233 C.ar      1 <0>        -0.0745
      8 C7          1.1570    3.1734    0.0081 C.ar      1 <0>        -0.1376
      9 C8         -0.0759    5.3505    0.0317 C.3       1 <0>         0.1496
     10 H1          0.8198    5.7521   -0.4647 H         1 <0>         0.0939
     11 C9         -0.1963    5.8506    1.4726 C.3       1 <0>        -0.0250
     12 N1         -0.2205    7.3193    1.4808 N.4       1 <0>        -0.3939
     13 N2         -0.3344    7.8311    2.8370 N.3       1 <0>        -0.6440
     14 O2         -1.1946    5.8127   -0.7279 O.3       1 <0>        -0.5722
     15 H2          3.3355   -0.7082   -0.0325 H         1 <0>         0.1099
     16 H3          1.7725   -0.6457   -0.9156 H         1 <0>         0.0616
     17 H4          1.7894   -0.6548    0.8806 H         1 <0>         0.0611
     18 H5          0.0021   -0.0041    0.0020 H         1 <0>         0.1369
     19 H6         -2.1456    1.1980    0.0187 H         1 <0>         0.1341
     20 H7         -2.1803    3.6592    0.0422 H         1 <0>         0.1307
     21 H8          2.0832    3.7287    0.0019 H         1 <0>         0.1354
     22 H9         -1.1258    5.4661    1.9177 H         1 <0>         0.1380
     23 H10         0.6648    5.4948    2.0574 H         1 <0>         0.1510
     24 H11         0.7090    7.7038    1.0356 H         1 <0>         0.4701
     25 H12        -0.3511    8.8399    2.8426 H         1 <0>         0.4010
     26 H13        -1.1482    7.4534    3.2988 H         1 <0>         0.3994
     27 H14        -1.3781    6.8919   -0.8356 H         1 <0>         0.4034
     28 H15        -1.0816    7.6751    0.8961 H         1 <0>         0.4206
@<TRIPOS>BOND
     1    1    2 1
     2    1   15 1
     3    1   16 1
     4    1   17 1
     5    2    3 1
     6    3    8 ar
     7    3    4 ar
     8    4    5 ar
     9    4   18 1
    10    5    6 ar
    11    5   19 1
    12    6    7 ar
    13    6   20 1
    14    7    8 ar
    15    7    9 1
    16    8   21 1
    17    9   10 1
    18    9   11 1
    19    9   14 1
    20   11   12 1
    21   11   22 1
    22   11   23 1
    23   12   13 1
    24   12   24 1
    25   12   28 1
    26   13   25 1
    27   13   26 1
    28   14   27 1
@<TRIPOS>MOLECULE
ZINC19172197
   28    28     0     0     0
SMALL
USER_CHARGES
(1R)-2-hydrazino-1-(3-methoxyphenyl)ethanol
@<TRIPOS>ATOM
      1 C1          2.3128   -0.3032   -0.0208 C.3       1 <0>         0.0207
      2 O1          2.3661    1.1248   -0.0141 O.3       1 <0>        -0.3159
      3 C2          1.1791    1.7865    0.0004 C.ar      1 <0>         0.1316
      4 C3         -0.0126    1.0758    0.0080 C.ar      1 <0>        -0.1933
      5 C4         -1.2177    1.7507    0.0173 C.ar      1 <0>        -0.0786
      6 C5         -1.2370    3.1334    0.0303 C.ar      1 <0>        -0.1254
      7 C6         -0.0511    3.8437    0.0233 C.ar      1 <0>        -0.0687
      8 C7          1.1570    3.1734    0.0081 C.ar      1 <0>        -0.1429
      9 C8         -0.0759    5.3505    0.0317 C.3       1 <0>         0.1777
     10 H1          0.8198    5.7521   -0.4647 H         1 <0>         0.0767
     11 C9         -0.1963    5.8506    1.4726 C.3       1 <0>        -0.0262
     12 N1         -0.2205    7.3193    1.4808 N.3       1 <0>        -0.4814
     13 N2         -0.3344    7.8311    2.8370 N.4       1 <0>        -0.5521
     14 O2         -1.1946    5.8127   -0.7279 O.3       1 <0>        -0.5774
     15 H2          3.3355   -0.7082   -0.0325 H         1 <0>         0.1083
     16 H3          1.7725   -0.6457   -0.9156 H         1 <0>         0.0611
     17 H4          1.7894   -0.6548    0.8806 H         1 <0>         0.0597
     18 H5          0.0021   -0.0041    0.0020 H         1 <0>         0.1347
     19 H6         -2.1456    1.1980    0.0187 H         1 <0>         0.1323
     20 H7         -2.1803    3.6592    0.0422 H         1 <0>         0.1309
     21 H8          2.0832    3.7287    0.0019 H         1 <0>         0.1314
     22 H9         -1.1258    5.4661    1.9177 H         1 <0>         0.1172
     23 H10         0.6648    5.4948    2.0574 H         1 <0>         0.0843
     24 H11        -0.3502    8.9307    2.8138 H         1 <0>         0.4741
     25 H12         0.5258    7.4892    3.4313 H         1 <0>         0.4316
     26 H13        -1.3781    6.8919   -0.8356 H         1 <0>         0.4174
     27 H14         0.7090    7.7038    1.0356 H         1 <0>         0.4008
     28 H15        -1.2649    7.4605    3.2918 H         1 <0>         0.4713
@<TRIPOS>BOND
     1    1    2 1
     2    1   15 1
     3    1   16 1
     4    1   17 1
     5    2    3 1
     6    3    8 ar
     7    3    4 ar
     8    4    5 ar
     9    4   18 1
    10    5    6 ar
    11    5   19 1
    12    6    7 ar
    13    6   20 1
    14    7    8 ar
    15    7    9 1
    16    8   21 1
    17    9   10 1
    18    9   11 1
    19    9   14 1
    20   11   12 1
    21   11   22 1
    22   11   23 1
    23   12   13 1
    24   12   27 1
    25   13   24 1
    26   13   25 1
    27   13   28 1
    28   14   26 1
@<TRIPOS>MOLECULE
ZINC19172197
   27    27     0     0     0
SMALL
USER_CHARGES
(1R)-2-hydrazino-1-(3-methoxyphenyl)ethanol
@<TRIPOS>ATOM
      1 C1          2.3128   -0.3032   -0.0208 C.3       1 <0>         0.0234
      2 O1          2.3661    1.1248   -0.0141 O.3       1 <0>        -0.3167
      3 C2          1.1791    1.7865    0.0004 C.ar      1 <0>         0.1268
      4 C3         -0.0126    1.0758    0.0080 C.ar      1 <0>        -0.2037
      5 C4         -1.2177    1.7507    0.0173 C.ar      1 <0>        -0.0833
      6 C5         -1.2370    3.1334    0.0303 C.ar      1 <0>        -0.1286
      7 C6         -0.0511    3.8437    0.0233 C.ar      1 <0>        -0.0471
      8 C7          1.1570    3.1734    0.0081 C.ar      1 <0>        -0.1400
      9 C8         -0.0759    5.3505    0.0317 C.3       1 <0>         0.1647
     10 H1          0.8198    5.7521   -0.4647 H         1 <0>         0.0752
     11 C9         -0.1963    5.8506    1.4726 C.3       1 <0>         0.0226
     12 N1         -0.2205    7.3193    1.4808 N.3       1 <0>        -0.4964
     13 N2         -0.3344    7.8311    2.8370 N.3       1 <0>        -0.6549
     14 O2         -1.1946    5.8127   -0.7279 O.3       1 <0>        -0.5921
     15 H2          3.3355   -0.7082   -0.0325 H         1 <0>         0.1034
     16 H3          1.7725   -0.6457   -0.9156 H         1 <0>         0.0571
     17 H4          1.7894   -0.6548    0.8806 H         1 <0>         0.0570
     18 H5          0.0021   -0.0041    0.0020 H         1 <0>         0.1294
     19 H6         -2.1456    1.1980    0.0187 H         1 <0>         0.1270
     20 H7         -2.1803    3.6592    0.0422 H         1 <0>         0.1276
     21 H8          2.0832    3.7287    0.0019 H         1 <0>         0.1331
     22 H9         -1.1258    5.4661    1.9177 H         1 <0>         0.0463
     23 H10         0.6648    5.4948    2.0574 H         1 <0>         0.0946
     24 H11        -0.3502    8.9307    2.8138 H         1 <0>         0.3583
     25 H12        -1.2649    7.4605    3.2918 H         1 <0>         0.3089
     26 H13        -1.3781    6.8919   -0.8356 H         1 <0>         0.4079
     27 H14        -1.0816    7.6751    0.8961 H         1 <0>         0.2995
@<TRIPOS>BOND
     1    1    2 1
     2    1   15 1
     3    1   16 1
     4    1   17 1
     5    2    3 1
     6    3    8 ar
     7    3    4 ar
     8    4    5 ar
     9    4   18 1
    10    5    6 ar
    11    5   19 1
    12    6    7 ar
    13    6   20 1
    14    7    8 ar
    15    7    9 1
    16    8   21 1
    17    9   10 1
    18    9   11 1
    19    9   14 1
    20   11   12 1
    21   11   22 1
    22   11   23 1
    23   12   13 1
    24   12   27 1
    25   13   24 1
    26   13   25 1
    27   14   26 1
@<TRIPOS>MOLECULE
ZINC19172199
   28    28     0     0     0
SMALL
USER_CHARGES
(1S)-2-hydrazino-1-(3-methoxyphenyl)ethanol
@<TRIPOS>ATOM
      1 C1         -3.6103    3.0092    0.0513 C.3       1 <0>         0.0199
      2 O1         -2.4214    3.8020    0.0446 O.3       1 <0>        -0.3146
      3 C2         -1.2364    3.1369    0.0303 C.ar      1 <0>         0.1333
      4 C3         -1.2183    1.7495    0.0173 C.ar      1 <0>        -0.1870
      5 C4         -0.0126    1.0758    0.0080 C.ar      1 <0>        -0.0770
      6 C5          1.1758    1.7829    0.0004 C.ar      1 <0>        -0.1230
      7 C6          1.1605    3.1652    0.0080 C.ar      1 <0>        -0.0748
      8 C7         -0.0430    3.8438    0.0231 C.ar      1 <0>        -0.1383
      9 C8          2.4574    3.9326    0.0002 C.3       1 <0>         0.1507
     10 H1          2.3024    4.9446   -0.4021 H         1 <0>         0.0896
     11 C9          3.0369    3.9691    1.4158 C.3       1 <0>        -0.0263
     12 N1          4.2367    4.8166    1.4320 N.4       1 <0>        -0.3943
     13 N2          4.8156    4.8746    2.7645 N.3       1 <0>        -0.6451
     14 O2          3.3849    3.2916   -0.8778 O.3       1 <0>        -0.5703
     15 H2         -4.4907    3.6686    0.0628 H         1 <0>         0.1097
     16 H3         -3.6195    2.3697    0.9462 H         1 <0>         0.0611
     17 H4         -3.6359    2.3791   -0.8500 H         1 <0>         0.0618
     18 H5         -2.1462    1.1969    0.0187 H         1 <0>         0.1369
     19 H6          0.0021   -0.0041    0.0020 H         1 <0>         0.1348
     20 H7          2.1176    1.2543   -0.0111 H         1 <0>         0.1316
     21 H8         -0.0545    4.9237    0.0290 H         1 <0>         0.1338
     22 H9          2.2878    4.3808    2.1081 H         1 <0>         0.1393
     23 H10         3.3042    2.9491    1.7290 H         1 <0>         0.1502
     24 H11         4.9858    4.4049    0.7396 H         1 <0>         0.4636
     25 H12         5.6397    5.4567    2.7757 H         1 <0>         0.4010
     26 H13         4.1376    5.1948    3.4397 H         1 <0>         0.3995
     27 H14         4.3928    3.7105   -1.0140 H         1 <0>         0.4059
     28 H15         3.9694    5.8366    1.1188 H         1 <0>         0.4281
@<TRIPOS>BOND
     1    1    2 1
     2    1   15 1
     3    1   16 1
     4    1   17 1
     5    2    3 1
     6    3    8 ar
     7    3    4 ar
     8    4    5 ar
     9    4   18 1
    10    5    6 ar
    11    5   19 1
    12    6    7 ar
    13    6   20 1
    14    7    8 ar
    15    7    9 1
    16    8   21 1
    17    9   10 1
    18    9   11 1
    19    9   14 1
    20   11   12 1
    21   11   22 1
    22   11   23 1
    23   12   13 1
    24   12   24 1
    25   12   28 1
    26   13   25 1
    27   13   26 1
    28   14   27 1
@<TRIPOS>MOLECULE
ZINC19172199
   28    28     0     0     0
SMALL
USER_CHARGES
(1S)-2-hydrazino-1-(3-methoxyphenyl)ethanol
@<TRIPOS>ATOM
      1 C1         -3.6103    3.0092    0.0513 C.3       1 <0>         0.0206
      2 O1         -2.4214    3.8020    0.0446 O.3       1 <0>        -0.3148
      3 C2         -1.2364    3.1369    0.0303 C.ar      1 <0>         0.1325
      4 C3         -1.2183    1.7495    0.0173 C.ar      1 <0>        -0.1926
      5 C4         -0.0126    1.0758    0.0080 C.ar      1 <0>        -0.0792
      6 C5          1.1758    1.7829    0.0004 C.ar      1 <0>        -0.1286
      7 C6          1.1605    3.1652    0.0080 C.ar      1 <0>        -0.0679
      8 C7         -0.0430    3.8438    0.0231 C.ar      1 <0>        -0.1384
      9 C8          2.4574    3.9326    0.0002 C.3       1 <0>         0.1743
     10 H1          2.3024    4.9446   -0.4021 H         1 <0>         0.0882
     11 C9          3.0369    3.9691    1.4158 C.3       1 <0>        -0.0258
     12 N1          4.2367    4.8166    1.4320 N.3       1 <0>        -0.4775
     13 N2          4.8156    4.8746    2.7645 N.4       1 <0>        -0.5523
     14 O2          3.3849    3.2916   -0.8778 O.3       1 <0>        -0.5801
     15 H2         -4.4907    3.6686    0.0628 H         1 <0>         0.1087
     16 H3         -3.6195    2.3697    0.9462 H         1 <0>         0.0598
     17 H4         -3.6359    2.3791   -0.8500 H         1 <0>         0.0610
     18 H5         -2.1462    1.1969    0.0187 H         1 <0>         0.1350
     19 H6          0.0021   -0.0041    0.0020 H         1 <0>         0.1319
     20 H7          2.1176    1.2543   -0.0111 H         1 <0>         0.1273
     21 H8         -0.0545    4.9237    0.0290 H         1 <0>         0.1341
     22 H9          2.2878    4.3808    2.1081 H         1 <0>         0.1182
     23 H10         3.3042    2.9491    1.7290 H         1 <0>         0.0857
     24 H11         5.7104    5.5142    2.7480 H         1 <0>         0.4745
     25 H12         5.0954    3.8609    3.0871 H         1 <0>         0.4317
     26 H13         4.3928    3.7105   -1.0140 H         1 <0>         0.4067
     27 H14         4.9858    4.4049    0.7396 H         1 <0>         0.3953
     28 H15         4.0790    5.2926    3.4664 H         1 <0>         0.4716
@<TRIPOS>BOND
     1    1    2 1
     2    1   15 1
     3    1   16 1
     4    1   17 1
     5    2    3 1
     6    3    8 ar
     7    3    4 ar
     8    4    5 ar
     9    4   18 1
    10    5    6 ar
    11    5   19 1
    12    6    7 ar
    13    6   20 1
    14    7    8 ar
    15    7    9 1
    16    8   21 1
    17    9   10 1
    18    9   11 1
    19    9   14 1
    20   11   12 1
    21   11   22 1
    22   11   23 1
    23   12   13 1
    24   12   27 1
    25   13   24 1
    26   13   25 1
    27   13   28 1
    28   14   26 1
@<TRIPOS>MOLECULE
ZINC19172199
   27    27     0     0     0
SMALL
USER_CHARGES
(1S)-2-hydrazino-1-(3-methoxyphenyl)ethanol
@<TRIPOS>ATOM
      1 C1         -3.6103    3.0092    0.0513 C.3       1 <0>         0.0235
      2 O1         -2.4214    3.8020    0.0446 O.3       1 <0>        -0.3179
      3 C2         -1.2364    3.1369    0.0303 C.ar      1 <0>         0.1253
      4 C3         -1.2183    1.7495    0.0173 C.ar      1 <0>        -0.2034
      5 C4         -0.0126    1.0758    0.0080 C.ar      1 <0>        -0.0826
      6 C5          1.1758    1.7829    0.0004 C.ar      1 <0>        -0.1251
      7 C6          1.1605    3.1652    0.0080 C.ar      1 <0>        -0.0476
      8 C7         -0.0430    3.8438    0.0231 C.ar      1 <0>        -0.1430
      9 C8          2.4574    3.9326    0.0002 C.3       1 <0>         0.1680
     10 H1          2.3024    4.9446   -0.4021 H         1 <0>         0.0614
     11 C9          3.0369    3.9691    1.4158 C.3       1 <0>         0.0212
     12 N1          4.2367    4.8166    1.4320 N.3       1 <0>        -0.4999
     13 N2          4.8156    4.8746    2.7645 N.3       1 <0>        -0.6554
     14 O2          3.3849    3.2916   -0.8778 O.3       1 <0>        -0.5872
     15 H2         -4.4907    3.6686    0.0628 H         1 <0>         0.1031
     16 H3         -3.6195    2.3697    0.9462 H         1 <0>         0.0570
     17 H4         -3.6359    2.3791   -0.8500 H         1 <0>         0.0574
     18 H5         -2.1462    1.1969    0.0187 H         1 <0>         0.1293
     19 H6          0.0021   -0.0041    0.0020 H         1 <0>         0.1279
     20 H7          2.1176    1.2543   -0.0111 H         1 <0>         0.1301
     21 H8         -0.0545    4.9237    0.0290 H         1 <0>         0.1298
     22 H9          2.2878    4.3808    2.1081 H         1 <0>         0.0442
     23 H10         3.3042    2.9491    1.7290 H         1 <0>         0.0958
     24 H11         5.7104    5.5142    2.7480 H         1 <0>         0.3579
     25 H12         4.0790    5.2926    3.4664 H         1 <0>         0.3084
     26 H13         4.3928    3.7105   -1.0140 H         1 <0>         0.4177
     27 H14         3.9694    5.8366    1.1188 H         1 <0>         0.3040
@<TRIPOS>BOND
     1    1    2 1
     2    1   15 1
     3    1   16 1
     4    1   17 1
     5    2    3 1
     6    3    8 ar
     7    3    4 ar
     8    4    5 ar
     9    4   18 1
    10    5    6 ar
    11    5   19 1
    12    6    7 ar
    13    6   20 1
    14    7    8 ar
    15    7    9 1
    16    8   21 1
    17    9   10 1
    18    9   11 1
    19    9   14 1
    20   11   12 1
    21   11   22 1
    22   11   23 1
    23   12   13 1
    24   12   27 1
    25   13   24 1
    26   13   25 1
    27   14   26 1
@<TRIPOS>MOLECULE
ZINC19167342
   29    29     0     0     0
SMALL
USER_CHARGES

@<TRIPOS>ATOM
      1 C1         -0.2194    1.4979   -0.0478 C.3       1 <0>        -0.1566
      2 C2          0.0186   -0.0125    0.0082 C.3       1 <0>         0.0498
      3 H1         -0.9400   -0.5312    0.0199 H         1 <0>         0.0491
      4 C3          0.8195   -0.4485   -1.2203 C.3       1 <0>         0.1677
      5 H2          1.0542   -1.5101   -1.1431 H         1 <0>         0.1177
      6 C4          0.0046   -0.2034   -2.4641 C.ar      1 <0>        -0.1183
      7 C5          0.0202    1.0406   -3.0666 C.ar      1 <0>        -0.1113
      8 C6         -0.7273    1.2655   -4.2075 C.ar      1 <0>        -0.1171
      9 C7         -1.4899    0.2461   -4.7462 C.ar      1 <0>        -0.1197
     10 C8         -1.5047   -0.9982   -4.1442 C.ar      1 <0>        -0.1174
     11 C9         -0.7539   -1.2242   -3.0058 C.ar      1 <0>        -0.1114
     12 O1          2.0326    0.3037   -1.2897 O.3       1 <0>        -0.5343
     13 N1          0.7701   -0.3449    1.2259 N.3       1 <0>        -0.3405
     14 C10        -0.0235   -0.0594    2.4287 C.3       1 <0>        -0.0279
     15 N2          1.2065   -1.7317    1.2066 N.3       1 <0>        -0.6628
     16 H3          0.7392    2.0166   -0.0595 H         1 <0>         0.0706
     17 H4         -0.7770    1.7445   -0.9514 H         1 <0>         0.0728
     18 H5         -0.7900    1.8085    0.8274 H         1 <0>         0.0621
     19 H6          0.6160    1.8370   -2.6457 H         1 <0>         0.1214
     20 H7         -0.7157    2.2376   -4.6778 H         1 <0>         0.1239
     21 H8         -2.0745    0.4220   -5.6371 H         1 <0>         0.1228
     22 H9         -2.1008   -1.7945   -4.5649 H         1 <0>         0.1234
     23 H10        -0.7626   -2.1975   -2.5376 H         1 <0>         0.1216
     24 H11         1.8996    1.2589   -1.3601 H         1 <0>         0.3657
     25 H12        -0.9381   -0.6521    2.4097 H         1 <0>         0.0268
     26 H13         0.5565   -0.3146    3.3156 H         1 <0>         0.0743
     27 H14        -0.2777    1.0003    2.4532 H         1 <0>         0.0818
     28 H15         1.6560   -1.9815    2.0747 H         1 <0>         0.3553
     29 H16         0.4350   -2.3508    1.0077 H         1 <0>         0.3106
@<TRIPOS>BOND
     1    1    2 1
     2    1   16 1
     3    1   17 1
     4    1   18 1
     5    2    3 1
     6    2    4 1
     7    2   13 1
     8    4    5 1
     9    4    6 1
    10    4   12 1
    11    6   11 ar
    12    6    7 ar
    13    7    8 ar
    14    7   19 1
    15    8    9 ar
    16    8   20 1
    17    9   10 ar
    18    9   21 1
    19   10   11 ar
    20   10   22 1
    21   11   23 1
    22   12   24 1
    23   13   14 1
    24   13   15 1
    25   14   25 1
    26   14   26 1
    27   14   27 1
    28   15   28 1
    29   15   29 1
@<TRIPOS>MOLECULE
ZINC19167342
   30    30     0     0     0
SMALL
USER_CHARGES

@<TRIPOS>ATOM
      1 C1         -0.0187    1.5258    0.0104 C.3       1 <0>        -0.1966
      2 C2          0.0021   -0.0041    0.0020 C.3       1 <0>         0.0048
      3 H1         -1.0205   -0.3814    0.0098 H         1 <0>         0.1442
      4 C3          0.7182   -0.4975   -1.2568 C.3       1 <0>         0.1495
      5 H2          0.8116   -1.5829   -1.2198 H         1 <0>         0.1413
      6 C4         -0.0771   -0.1029   -2.4745 C.ar      1 <0>        -0.1411
      7 C5          0.0932    1.1491   -3.0353 C.ar      1 <0>        -0.1107
      8 C6         -0.6364    1.5111   -4.1523 C.ar      1 <0>        -0.1115
      9 C7         -1.5358    0.6210   -4.7087 C.ar      1 <0>        -0.1006
     10 C8         -1.7054   -0.6313   -4.1484 C.ar      1 <0>        -0.1119
     11 C9         -0.9728   -0.9949   -3.0340 C.ar      1 <0>        -0.1029
     12 O1          2.0188    0.0904   -1.3262 O.3       1 <0>        -0.5436
     13 N1          0.7126   -0.4907    1.1921 N.4       1 <0>        -0.2353
     14 C10         0.0250   -0.0169    2.4007 C.3       1 <0>        -0.0886
     15 N2          0.7323   -1.9445    1.1841 N.3       1 <0>        -0.6446
     16 H3          1.0039    1.9031    0.0027 H         1 <0>         0.0858
     17 H4         -0.5459    1.8868   -0.8726 H         1 <0>         0.1175
     18 H5         -0.5289    1.8773    0.9072 H         1 <0>         0.0910
     19 H6          0.7959    1.8445   -2.6006 H         1 <0>         0.1223
     20 H7         -0.5039    2.4895   -4.5901 H         1 <0>         0.1314
     21 H8         -2.1063    0.9040   -5.5810 H         1 <0>         0.1315
     22 H9         -2.4084   -1.3266   -4.5829 H         1 <0>         0.1316
     23 H10        -1.1025   -1.9746   -2.5984 H         1 <0>         0.1268
     24 H11         2.0123    1.0567   -1.3619 H         1 <0>         0.3812
     25 H12        -0.9976   -0.3942    2.4085 H         1 <0>         0.1249
     26 H13         0.5522   -0.3780    3.2838 H         1 <0>         0.1282
     27 H14         0.0102    1.0729    2.4067 H         1 <0>         0.1352
     28 H15         1.2707   -2.3031    1.9585 H         1 <0>         0.4005
     29 H16        -0.2047   -2.3189    1.1911 H         1 <0>         0.3969
     30 H17         1.6592   -0.1414    1.1850 H         1 <0>         0.4429
@<TRIPOS>BOND
     1    1    2 1
     2    1   16 1
     3    1   17 1
     4    1   18 1
     5    2    3 1
     6    2    4 1
     7    2   13 1
     8    4    5 1
     9    4    6 1
    10    4   12 1
    11    6   11 ar
    12    6    7 ar
    13    7    8 ar
    14    7   19 1
    15    8    9 ar
    16    8   20 1
    17    9   10 ar
    18    9   21 1
    19   10   11 ar
    20   10   22 1
    21   11   23 1
    22   12   24 1
    23   13   14 1
    24   13   15 1
    25   13   30 1
    26   14   25 1
    27   14   26 1
    28   14   27 1
    29   15   28 1
    30   15   29 1
@<TRIPOS>MOLECULE
ZINC19167342
   30    30     0     0     0
SMALL
USER_CHARGES

@<TRIPOS>ATOM
      1 C1          0.1585    1.5346   -0.3028 C.3       1 <0>        -0.1584
      2 C2          0.0557    0.0300   -0.0448 C.3       1 <0>         0.0075
      3 H1          0.5075   -0.5126   -0.8751 H         1 <0>         0.0943
      4 C3          0.7909   -0.3166    1.2514 C.3       1 <0>         0.1497
      5 H2          0.6671   -1.3779    1.4667 H         1 <0>         0.0997
      6 C4          2.2568   -0.0031    1.0966 C.ar      1 <0>        -0.1393
      7 C5          2.7192    1.2769    1.3388 C.ar      1 <0>        -0.1055
      8 C6          4.0639    1.5644    1.1968 C.ar      1 <0>        -0.1104
      9 C7          4.9462    0.5718    0.8132 C.ar      1 <0>        -0.1017
     10 C8          4.4839   -0.7084    0.5719 C.ar      1 <0>        -0.1122
     11 C9          3.1399   -0.9970    0.7180 C.ar      1 <0>        -0.1093
     12 O1          0.2500    0.4538    2.3265 O.3       1 <0>        -0.5406
     13 N1         -1.3579   -0.3504    0.0773 N.3       1 <0>        -0.3310
     14 C10        -2.0707   -0.1418   -1.1902 C.3       1 <0>        -0.0338
     15 N2         -1.4902   -1.7260    0.5292 N.4       1 <0>        -0.5110
     16 H3          1.2074    1.8169   -0.3934 H         1 <0>         0.0971
     17 H4         -0.3653    1.7816   -1.2262 H         1 <0>         0.0795
     18 H5         -0.2934    2.0773    0.5276 H         1 <0>         0.0826
     19 H6          2.0299    2.0524    1.6385 H         1 <0>         0.1241
     20 H7          4.4250    2.5646    1.3853 H         1 <0>         0.1320
     21 H8          5.9966    0.7966    0.7016 H         1 <0>         0.1314
     22 H9          5.1732   -1.4838    0.2718 H         1 <0>         0.1305
     23 H10         2.7793   -1.9980    0.5331 H         1 <0>         0.1211
     24 H11         0.3258    1.4098    2.2024 H         1 <0>         0.3896
     25 H12        -1.6112   -0.7496   -1.9696 H         1 <0>         0.0712
     26 H13        -3.1148   -0.4313   -1.0718 H         1 <0>         0.1079
     27 H14        -2.0147    0.9103   -1.4696 H         1 <0>         0.1322
     28 H15        -1.1438   -1.8046    1.4736 H         1 <0>         0.4504
     29 H16        -2.4619   -1.9964    0.5038 H         1 <0>         0.4461
     30 H17        -0.9566   -2.3317   -0.0762 H         1 <0>         0.4059
@<TRIPOS>BOND
     1    1    2 1
     2    1   16 1
     3    1   17 1
     4    1   18 1
     5    2    3 1
     6    2    4 1
     7    2   13 1
     8    4    5 1
     9    4    6 1
    10    4   12 1
    11    6   11 ar
    12    6    7 ar
    13    7    8 ar
    14    7   19 1
    15    8    9 ar
    16    8   20 1
    17    9   10 ar
    18    9   21 1
    19   10   11 ar
    20   10   22 1
    21   11   23 1
    22   12   24 1
    23   13   14 1
    24   13   15 1
    25   14   25 1
    26   14   26 1
    27   14   27 1
    28   15   28 1
    29   15   29 1
    30   15   30 1
@<TRIPOS>MOLECULE
ZINC19167200
   23    23     0     0     0
SMALL
USER_CHARGES
1-benzyl-1-methyl-hydrazine
@<TRIPOS>ATOM
      1 C1         -0.2301    7.3061   -1.3828 C.3       1 <0>        -0.0829
      2 N1         -0.0904    5.8442   -1.3511 N.4       1 <0>        -0.2560
      3 C2         -0.0705    5.3471    0.0311 C.3       1 <0>         0.0573
      4 C3         -0.0501    3.8402    0.0228 C.ar      1 <0>        -0.1473
      5 C4          1.1563    3.1654    0.0076 C.ar      1 <0>        -0.0731
      6 C5          1.1750    1.7832    0.0004 C.ar      1 <0>        -0.1175
      7 C6         -0.0126    1.0758    0.0080 C.ar      1 <0>        -0.0849
      8 C7         -1.2190    1.7506    0.0173 C.ar      1 <0>        -0.1169
      9 C8         -1.2377    3.1328    0.0299 C.ar      1 <0>        -0.0979
     10 N2          1.0965    5.4183   -2.0751 N.3       1 <0>        -0.6415
     11 H1         -0.2422    7.6507   -2.4274 H         1 <0>         0.1265
     12 H2          0.6175    7.7670   -0.8544 H         1 <0>         0.1209
     13 H3         -1.1702    7.5953   -0.8904 H         1 <0>         0.1343
     14 H4          0.8275    5.7231    0.5431 H         1 <0>         0.1301
     15 H5         -0.9685    5.6987    0.5602 H         1 <0>         0.1448
     16 H6          2.0842    3.7181    0.0017 H         1 <0>         0.1250
     17 H7          2.1175    1.2560   -0.0115 H         1 <0>         0.1331
     18 H8          0.0021   -0.0041    0.0020 H         1 <0>         0.1335
     19 H9         -2.1469    1.1980    0.0188 H         1 <0>         0.1338
     20 H10        -2.1802    3.6600    0.0414 H         1 <0>         0.1286
     21 H11         1.0828    5.7598   -3.0244 H         1 <0>         0.3956
     22 H12         1.9357    5.7110   -1.5976 H         1 <0>         0.3922
     23 H13        -0.9601    5.4050   -1.8617 H         1 <0>         0.4622
@<TRIPOS>BOND
     1    1    2 1
     2    1   11 1
     3    1   12 1
     4    1   13 1
     5    2    3 1
     6    2   10 1
     7    2   23 1
     8    3    4 1
     9    3   14 1
    10    3   15 1
    11    4    9 ar
    12    4    5 ar
    13    5    6 ar
    14    5   16 1
    15    6    7 ar
    16    6   17 1
    17    7    8 ar
    18    7   18 1
    19    8    9 ar
    20    8   19 1
    21    9   20 1
    22   10   21 1
    23   10   22 1
@<TRIPOS>MOLECULE
ZINC19167200
   22    22     0     0     0
SMALL
USER_CHARGES
1-benzyl-1-methyl-hydrazine
@<TRIPOS>ATOM
      1 C1         -0.2301    7.3061   -1.3828 C.3       1 <0>         0.0221
      2 N1         -0.0904    5.8442   -1.3511 N.3       1 <0>        -0.3986
      3 C2         -0.0705    5.3471    0.0311 C.3       1 <0>         0.0895
      4 C3         -0.0501    3.8402    0.0228 C.ar      1 <0>        -0.0867
      5 C4          1.1563    3.1654    0.0076 C.ar      1 <0>        -0.1126
      6 C5          1.1750    1.7832    0.0004 C.ar      1 <0>        -0.1205
      7 C6         -0.0126    1.0758    0.0080 C.ar      1 <0>        -0.1188
      8 C7         -1.2190    1.7506    0.0173 C.ar      1 <0>        -0.1210
      9 C8         -1.2377    3.1328    0.0299 C.ar      1 <0>        -0.1014
     10 N2          1.0965    5.4183   -2.0751 N.3       1 <0>        -0.6828
     11 H1         -0.2422    7.6507   -2.4274 H         1 <0>         0.0706
     12 H2          0.6175    7.7670   -0.8544 H         1 <0>         0.0341
     13 H3         -1.1702    7.5953   -0.8904 H         1 <0>         0.0754
     14 H4          0.8275    5.7231    0.5431 H         1 <0>         0.0509
     15 H5         -0.9685    5.6987    0.5602 H         1 <0>         0.0890
     16 H6          2.0842    3.7181    0.0017 H         1 <0>         0.1240
     17 H7          2.1175    1.2560   -0.0115 H         1 <0>         0.1230
     18 H8          0.0021   -0.0041    0.0020 H         1 <0>         0.1219
     19 H9         -2.1469    1.1980    0.0188 H         1 <0>         0.1225
     20 H10        -2.1802    3.6600    0.0414 H         1 <0>         0.1219
     21 H11         1.1764    4.3219   -2.0354 H         1 <0>         0.3498
     22 H12         1.0226    5.7429   -3.1235 H         1 <0>         0.3476
@<TRIPOS>BOND
     1    1    2 1
     2    1   11 1
     3    1   12 1
     4    1   13 1
     5    2    3 1
     6    2   10 1
     7    3    4 1
     8    3   14 1
     9    3   15 1
    10    4    9 ar
    11    4    5 ar
    12    5    6 ar
    13    5   16 1
    14    6    7 ar
    15    6   17 1
    16    7    8 ar
    17    7   18 1
    18    8    9 ar
    19    8   19 1
    20    9   20 1
    21   10   21 1
    22   10   22 1
@<TRIPOS>MOLECULE
ZINC19167200
   23    23     0     0     0
SMALL
USER_CHARGES
1-benzyl-1-methyl-hydrazine
@<TRIPOS>ATOM
      1 C1         -0.2301    7.3061   -1.3828 C.3       1 <0>        -0.0307
      2 N1         -0.0904    5.8442   -1.3511 N.3       1 <0>        -0.3377
      3 C2         -0.0705    5.3471    0.0311 C.3       1 <0>         0.0550
      4 C3         -0.0501    3.8402    0.0228 C.ar      1 <0>        -0.1293
      5 C4          1.1563    3.1654    0.0076 C.ar      1 <0>        -0.1418
      6 C5          1.1750    1.7832    0.0004 C.ar      1 <0>        -0.1086
      7 C6         -0.0126    1.0758    0.0080 C.ar      1 <0>        -0.0971
      8 C7         -1.2190    1.7506    0.0173 C.ar      1 <0>        -0.1067
      9 C8         -1.2377    3.1328    0.0299 C.ar      1 <0>        -0.0849
     10 N2          1.0965    5.4183   -2.0751 N.4       1 <0>        -0.5545
     11 H1         -0.2422    7.6507   -2.4274 H         1 <0>         0.1052
     12 H2          0.6175    7.7670   -0.8544 H         1 <0>         0.0695
     13 H3         -1.1702    7.5953   -0.8904 H         1 <0>         0.1283
     14 H4          0.8275    5.7231    0.5431 H         1 <0>         0.0850
     15 H5         -0.9685    5.6987    0.5602 H         1 <0>         0.1383
     16 H6          2.0842    3.7181    0.0017 H         1 <0>         0.1216
     17 H7          2.1175    1.2560   -0.0115 H         1 <0>         0.1334
     18 H8          0.0021   -0.0041    0.0020 H         1 <0>         0.1342
     19 H9         -2.1469    1.1980    0.0188 H         1 <0>         0.1348
     20 H10        -2.1802    3.6600    0.0414 H         1 <0>         0.1318
     21 H11         1.1764    4.3219   -2.0354 H         1 <0>         0.4640
     22 H12         1.9883    5.8679   -1.6140 H         1 <0>         0.4217
     23 H13         1.0226    5.7429   -3.1235 H         1 <0>         0.4686
@<TRIPOS>BOND
     1    1    2 1
     2    1   11 1
     3    1   12 1
     4    1   13 1
     5    2    3 1
     6    2   10 1
     7    3    4 1
     8    3   14 1
     9    3   15 1
    10    4    9 ar
    11    4    5 ar
    12    5    6 ar
    13    5   16 1
    14    6    7 ar
    15    6   17 1
    16    7    8 ar
    17    7   18 1
    18    8    9 ar
    19    8   19 1
    20    9   20 1
    21   10   21 1
    22   10   22 1
    23   10   23 1
@<TRIPOS>MOLECULE
ZINC19168077
   26    26     0     0     0
SMALL
USER_CHARGES
[(2R)-2-phenylpropyl]hydrazine
@<TRIPOS>ATOM
      1 C1         -2.1359   -0.5741   -1.2978 C.3       1 <0>        -0.1674
      2 C2         -2.2069    0.9381   -1.0756 C.3       1 <0>        -0.0637
      3 H1         -2.6708    1.1517   -0.1013 H         1 <0>         0.1017
      4 C3         -0.7955    1.5269   -1.1198 C.3       1 <0>         0.0101
      5 N1         -0.0116    1.0048    0.0076 N.4       1 <0>        -0.3941
      6 N2          1.3386    1.5443   -0.0024 N.3       1 <0>        -0.6490
      7 C4         -3.0472    1.5659   -2.1577 C.ar      1 <0>        -0.1043
      8 C5         -2.6712    1.4450   -3.4824 C.ar      1 <0>        -0.1129
      9 C6         -3.4444    2.0172   -4.4752 C.ar      1 <0>        -0.1131
     10 C7         -4.5886    2.7179   -4.1427 C.ar      1 <0>        -0.1040
     11 C8         -4.9618    2.8432   -2.8176 C.ar      1 <0>        -0.1130
     12 C9         -4.1910    2.2674   -1.8250 C.ar      1 <0>        -0.1071
     13 H2         -3.1507   -0.9974   -1.2660 H         1 <0>         0.0868
     14 H3         -1.5225   -1.0323   -0.5080 H         1 <0>         0.0555
     15 H4         -1.6834   -0.7796   -2.2791 H         1 <0>         0.0774
     16 H5         -0.3100    1.2449   -2.0657 H         1 <0>         0.1398
     17 H6         -0.8532    2.6232   -1.0498 H         1 <0>         0.1295
     18 H7         -0.4971    1.2868    0.9535 H         1 <0>         0.4269
     19 H8          1.3249    2.5532    0.0031 H         1 <0>         0.3978
     20 H9          1.8770    1.1857    0.7719 H         1 <0>         0.3998
     21 H10        -1.7753    0.9007   -3.7419 H         1 <0>         0.1227
     22 H11        -3.1530    1.9190   -5.5106 H         1 <0>         0.1296
     23 H12        -5.1912    3.1672   -4.9182 H         1 <0>         0.1300
     24 H13        -5.8557    3.3907   -2.5578 H         1 <0>         0.1300
     25 H14        -4.4825    2.3653   -0.7898 H         1 <0>         0.1247
     26 H15         0.0461   -0.0915   -0.0624 H         1 <0>         0.4662
@<TRIPOS>BOND
     1    1    2 1
     2    1   13 1
     3    1   14 1
     4    1   15 1
     5    2    3 1
     6    2    4 1
     7    2    7 1
     8    4    5 1
     9    4   16 1
    10    4   17 1
    11    5    6 1
    12    5   18 1
    13    5   26 1
    14    6   19 1
    15    6   20 1
    16    7   12 ar
    17    7    8 ar
    18    8    9 ar
    19    8   21 1
    20    9   10 ar
    21    9   22 1
    22   10   11 ar
    23   10   23 1
    24   11   12 ar
    25   11   24 1
    26   12   25 1
@<TRIPOS>MOLECULE
ZINC19168077
   26    26     0     0     0
SMALL
USER_CHARGES
[(2R)-2-phenylpropyl]hydrazine
@<TRIPOS>ATOM
      1 C1         -2.1359   -0.5741   -1.2978 C.3       1 <0>        -0.1499
      2 C2         -2.2069    0.9381   -1.0756 C.3       1 <0>        -0.0355
      3 H1         -2.6708    1.1517   -0.1013 H         1 <0>         0.0907
      4 C3         -0.7955    1.5269   -1.1198 C.3       1 <0>         0.0102
      5 N1         -0.0116    1.0048    0.0076 N.3       1 <0>        -0.4761
      6 N2          1.3386    1.5443   -0.0024 N.4       1 <0>        -0.5549
      7 C4         -3.0472    1.5659   -2.1577 C.ar      1 <0>        -0.0990
      8 C5         -2.6712    1.4450   -3.4824 C.ar      1 <0>        -0.1158
      9 C6         -3.4444    2.0172   -4.4752 C.ar      1 <0>        -0.1150
     10 C7         -4.5886    2.7179   -4.1427 C.ar      1 <0>        -0.1104
     11 C8         -4.9618    2.8432   -2.8176 C.ar      1 <0>        -0.1133
     12 C9         -4.1910    2.2674   -1.8250 C.ar      1 <0>        -0.1114
     13 H2         -3.1507   -0.9974   -1.2660 H         1 <0>         0.0680
     14 H3         -1.5225   -1.0323   -0.5080 H         1 <0>         0.0690
     15 H4         -1.6834   -0.7796   -2.2791 H         1 <0>         0.0619
     16 H5         -0.3100    1.2449   -2.0657 H         1 <0>         0.1079
     17 H6         -0.8532    2.6232   -1.0498 H         1 <0>         0.0752
     18 H7          1.9022    1.1378    0.8503 H         1 <0>         0.4733
     19 H8          1.2959    2.6407    0.0754 H         1 <0>         0.4291
     20 H9         -1.7753    0.9007   -3.7419 H         1 <0>         0.1196
     21 H10        -3.1530    1.9190   -5.5106 H         1 <0>         0.1269
     22 H11        -5.1912    3.1672   -4.9182 H         1 <0>         0.1279
     23 H12        -5.8557    3.3907   -2.5578 H         1 <0>         0.1281
     24 H13        -4.4825    2.3653   -0.7898 H         1 <0>         0.1234
     25 H14        -0.4971    1.2868    0.9535 H         1 <0>         0.4006
     26 H15         1.8391    1.2625   -0.9405 H         1 <0>         0.4695
@<TRIPOS>BOND
     1    1    2 1
     2    1   13 1
     3    1   14 1
     4    1   15 1
     5    2    3 1
     6    2    4 1
     7    2    7 1
     8    4    5 1
     9    4   16 1
    10    4   17 1
    11    5    6 1
    12    5   25 1
    13    6   18 1
    14    6   19 1
    15    6   26 1
    16    7   12 ar
    17    7    8 ar
    18    8    9 ar
    19    8   20 1
    20    9   10 ar
    21    9   21 1
    22   10   11 ar
    23   10   22 1
    24   11   12 ar
    25   11   23 1
    26   12   24 1
@<TRIPOS>MOLECULE
ZINC19168079
   26    26     0     0     0
SMALL
USER_CHARGES
[(2S)-2-phenylpropyl]hydrazine
@<TRIPOS>ATOM
      1 C1          1.8530    4.1185   -1.2433 C.3       1 <0>        -0.1675
      2 C2          1.1505    3.5924    0.0099 C.3       1 <0>        -0.0636
      3 H1          0.1037    3.9301    0.0214 H         1 <0>         0.1017
      4 C3          1.8764    4.1058    1.2550 C.3       1 <0>         0.0101
      5 N1          1.7535    5.5679    1.3255 N.4       1 <0>        -0.3941
      6 N2          2.4332    6.0920    2.4991 N.3       1 <0>        -0.6490
      7 C4          1.1709    2.0855    0.0021 C.ar      1 <0>        -0.1045
      8 C5         -0.0167    1.3781    0.0096 C.ar      1 <0>        -0.1070
      9 C6          0.0021   -0.0041    0.0020 C.ar      1 <0>        -0.1130
     10 C7          1.2084   -0.6789   -0.0136 C.ar      1 <0>        -0.1039
     11 C8          2.3961    0.0285   -0.0212 C.ar      1 <0>        -0.1132
     12 C9          2.3773    1.4107   -0.0136 C.ar      1 <0>        -0.1128
     13 H2          1.3311    3.7494   -2.1385 H         1 <0>         0.0868
     14 H3          2.8949    3.7660   -1.2548 H         1 <0>         0.0774
     15 H4          1.8381    5.2184   -1.2376 H         1 <0>         0.0555
     16 H5          1.4270    3.6564    2.1528 H         1 <0>         0.1295
     17 H6          2.9397    3.8295    1.1996 H         1 <0>         0.1398
     18 H7          2.2028    6.0173    0.4276 H         1 <0>         0.4662
     19 H8          2.3488    7.0963    2.5475 H         1 <0>         0.3998
     20 H9          2.0858    5.6589    3.3417 H         1 <0>         0.3978
     21 H10        -0.9592    1.9054    0.0170 H         1 <0>         0.1247
     22 H11        -0.9258   -0.5567    0.0079 H         1 <0>         0.1300
     23 H12         1.2231   -1.7588   -0.0196 H         1 <0>         0.1300
     24 H13         3.3386   -0.4987   -0.0327 H         1 <0>         0.1296
     25 H14         3.3052    1.9634   -0.0192 H         1 <0>         0.1227
     26 H15         0.6902    5.8443    1.3809 H         1 <0>         0.4269
@<TRIPOS>BOND
     1    1    2 1
     2    1   13 1
     3    1   14 1
     4    1   15 1
     5    2    3 1
     6    2    4 1
     7    2    7 1
     8    4    5 1
     9    4   16 1
    10    4   17 1
    11    5    6 1
    12    5   18 1
    13    5   26 1
    14    6   19 1
    15    6   20 1
    16    7   12 ar
    17    7    8 ar
    18    8    9 ar
    19    8   21 1
    20    9   10 ar
    21    9   22 1
    22   10   11 ar
    23   10   23 1
    24   11   12 ar
    25   11   24 1
    26   12   25 1
@<TRIPOS>MOLECULE
ZINC19168079
   26    26     0     0     0
SMALL
USER_CHARGES
[(2S)-2-phenylpropyl]hydrazine
@<TRIPOS>ATOM
      1 C1          1.8530    4.1185   -1.2433 C.3       1 <0>        -0.1606
      2 C2          1.1505    3.5924    0.0099 C.3       1 <0>        -0.0378
      3 H1          0.1037    3.9301    0.0214 H         1 <0>         0.1014
      4 C3          1.8764    4.1058    1.2550 C.3       1 <0>         0.0111
      5 N1          1.7535    5.5679    1.3255 N.3       1 <0>        -0.4787
      6 N2          2.4332    6.0920    2.4991 N.4       1 <0>        -0.5547
      7 C4          1.1709    2.0855    0.0021 C.ar      1 <0>        -0.0985
      8 C5         -0.0167    1.3781    0.0096 C.ar      1 <0>        -0.1084
      9 C6          0.0021   -0.0041    0.0020 C.ar      1 <0>        -0.1130
     10 C7          1.2084   -0.6789   -0.0136 C.ar      1 <0>        -0.1098
     11 C8          2.3961    0.0285   -0.0212 C.ar      1 <0>        -0.1157
     12 C9          2.3773    1.4107   -0.0136 C.ar      1 <0>        -0.1173
     13 H2          1.3311    3.7494   -2.1385 H         1 <0>         0.0783
     14 H3          2.8949    3.7660   -1.2548 H         1 <0>         0.0642
     15 H4          1.8381    5.2184   -1.2376 H         1 <0>         0.0593
     16 H5          1.4270    3.6564    2.1528 H         1 <0>         0.1083
     17 H6          2.9397    3.8295    1.1996 H         1 <0>         0.0748
     18 H7          2.3255    7.1864    2.5270 H         1 <0>         0.4733
     19 H8          3.5004    5.8296    2.4524 H         1 <0>         0.4289
     20 H9         -0.9592    1.9054    0.0170 H         1 <0>         0.1250
     21 H10        -0.9258   -0.5567    0.0079 H         1 <0>         0.1286
     22 H11         1.2231   -1.7588   -0.0196 H         1 <0>         0.1280
     23 H12         3.3386   -0.4987   -0.0327 H         1 <0>         0.1264
     24 H13         3.3052    1.9634   -0.0192 H         1 <0>         0.1175
     25 H14         2.2028    6.0173    0.4276 H         1 <0>         0.3993
     26 H15         1.9878    5.6565    3.4057 H         1 <0>         0.4699
@<TRIPOS>BOND
     1    1    2 1
     2    1   13 1
     3    1   14 1
     4    1   15 1
     5    2    3 1
     6    2    4 1
     7    2    7 1
     8    4    5 1
     9    4   16 1
    10    4   17 1
    11    5    6 1
    12    5   25 1
    13    6   18 1
    14    6   19 1
    15    6   26 1
    16    7   12 ar
    17    7    8 ar
    18    8    9 ar
    19    8   20 1
    20    9   10 ar
    21    9   21 1
    22   10   11 ar
    23   10   22 1
    24   11   12 ar
    25   11   23 1
    26   12   24 1
@<TRIPOS>MOLECULE
ZINC44125480
   29    29     0     0     0
SMALL
USER_CHARGES

@<TRIPOS>ATOM
      1 C1         -0.0187    1.5258    0.0104 C.3       1 <0>        -0.1514
      2 C2          0.0021   -0.0041    0.0020 C.3       1 <0>        -0.0469
      3 H1          0.5293   -0.3651    0.8851 H         1 <0>         0.0721
      4 C3         -1.4333   -0.5336    0.0129 C.3       1 <0>         0.0105
      5 N1         -2.0833   -0.1607    1.2764 N.3       1 <0>        -0.3394
      6 C4         -3.5201   -0.4641    1.2388 C.3       1 <0>        -0.0302
      7 N2         -1.4419   -0.8152    2.4053 N.4       1 <0>        -0.5115
      8 C5          0.7074   -0.4901   -1.2379 C.ar      1 <0>        -0.1018
      9 C6          0.2220   -0.1511   -2.4870 C.ar      1 <0>        -0.1125
     10 C7          0.8690   -0.5969   -3.6243 C.ar      1 <0>        -0.1124
     11 C8          2.0018   -1.3813   -3.5125 C.ar      1 <0>        -0.1087
     12 C9          2.4878   -1.7195   -2.2634 C.ar      1 <0>        -0.1134
     13 C10         1.8432   -1.2701   -1.1261 C.ar      1 <0>        -0.1144
     14 H2          1.0039    1.9031    0.0027 H         1 <0>         0.0685
     15 H3         -0.5459    1.8868   -0.8726 H         1 <0>         0.0674
     16 H4         -0.5289    1.8773    0.9072 H         1 <0>         0.0685
     17 H5         -1.9862   -0.1019   -0.8214 H         1 <0>         0.1355
     18 H6         -1.4207   -1.6194   -0.0826 H         1 <0>         0.0827
     19 H7         -3.6618   -1.5323    1.0749 H         1 <0>         0.0718
     20 H8         -3.9767   -0.1782    2.1864 H         1 <0>         0.1065
     21 H9         -3.9880    0.0932    0.4273 H         1 <0>         0.1308
     22 H10        -0.4720   -0.5402    2.4469 H         1 <0>         0.4450
     23 H11        -1.9055   -0.5436    3.2593 H         1 <0>         0.4472
     24 H12        -0.6631    0.4617   -2.5743 H         1 <0>         0.1226
     25 H13         0.4893   -0.3327   -4.6002 H         1 <0>         0.1285
     26 H14         2.5069   -1.7302   -4.4011 H         1 <0>         0.1287
     27 H15         3.3726   -2.3325   -2.1760 H         1 <0>         0.1280
     28 H16         2.2251   -1.5312   -0.1501 H         1 <0>         0.1207
     29 H17        -1.5031   -1.8161    2.2930 H         1 <0>         0.4076
@<TRIPOS>BOND
     1    1    2 1
     2    1   14 1
     3    1   15 1
     4    1   16 1
     5    2    3 1
     6    2    4 1
     7    2    8 1
     8    4    5 1
     9    4   17 1
    10    4   18 1
    11    5    6 1
    12    5    7 1
    13    6   19 1
    14    6   20 1
    15    6   21 1
    16    7   22 1
    17    7   23 1
    18    7   29 1
    19    8   13 ar
    20    8    9 ar
    21    9   10 ar
    22    9   24 1
    23   10   11 ar
    24   10   25 1
    25   11   12 ar
    26   11   26 1
    27   12   13 ar
    28   12   27 1
    29   13   28 1
@<TRIPOS>MOLECULE
ZINC44125480
   28    28     0     0     0
SMALL
USER_CHARGES

@<TRIPOS>ATOM
      1 C1         -0.0187    1.5258    0.0104 C.3       1 <0>        -0.1330
      2 C2          0.0021   -0.0041    0.0020 C.3       1 <0>        -0.0397
      3 H1          0.5123   -0.3556   -0.8948 H         1 <0>         0.0921
      4 C3          0.7421   -0.5109    1.2415 C.3       1 <0>         0.0624
      5 N1          2.1515   -0.1027    1.1714 N.3       1 <0>        -0.3543
      6 C4          2.8675   -0.4692    2.4007 C.3       1 <0>        -0.0242
      7 N2          2.8009   -0.6708    0.0011 N.3       1 <0>        -0.6674
      8 C5         -1.4117   -0.5257    0.0127 C.ar      1 <0>        -0.0781
      9 C6         -2.2591   -0.2043    1.0565 C.ar      1 <0>        -0.1172
     10 C7         -3.5560   -0.6827    1.0663 C.ar      1 <0>        -0.1190
     11 C8         -4.0056   -1.4823    0.0321 C.ar      1 <0>        -0.1259
     12 C9         -3.1585   -1.8029   -1.0121 C.ar      1 <0>        -0.1187
     13 C10        -1.8629   -1.3209   -1.0241 C.ar      1 <0>        -0.1165
     14 H2          1.0039    1.9031    0.0027 H         1 <0>         0.0716
     15 H3         -0.5459    1.8868   -0.8726 H         1 <0>         0.0494
     16 H4         -0.5289    1.8773    0.9072 H         1 <0>         0.0483
     17 H5          0.2852   -0.0874    2.1360 H         1 <0>         0.0823
     18 H6          0.6803   -1.5984    1.2822 H         1 <0>         0.0363
     19 H7          2.8229   -1.5495    2.5387 H         1 <0>         0.0280
     20 H8          3.9084   -0.1556    2.3221 H         1 <0>         0.0731
     21 H9          2.4023    0.0255    3.2533 H         1 <0>         0.0792
     22 H10         3.7690   -0.3905   -0.0470 H         1 <0>         0.3546
     23 H11        -1.9079    0.4204    1.8645 H         1 <0>         0.1200
     24 H12        -4.2179   -0.4322    1.8822 H         1 <0>         0.1207
     25 H13        -5.0186   -1.8567    0.0402 H         1 <0>         0.1203
     26 H14        -3.5096   -2.4278   -1.8199 H         1 <0>         0.1210
     27 H15        -1.2022   -1.5684   -1.8418 H         1 <0>         0.1211
     28 H16         2.7147   -1.6761   -0.0080 H         1 <0>         0.3137
@<TRIPOS>BOND
     1    1    2 1
     2    1   14 1
     3    1   15 1
     4    1   16 1
     5    2    3 1
     6    2    4 1
     7    2    8 1
     8    4    5 1
     9    4   17 1
    10    4   18 1
    11    5    6 1
    12    5    7 1
    13    6   19 1
    14    6   20 1
    15    6   21 1
    16    7   22 1
    17    7   28 1
    18    8   13 ar
    19    8    9 ar
    20    9   10 ar
    21    9   23 1
    22   10   11 ar
    23   10   24 1
    24   11   12 ar
    25   11   25 1
    26   12   13 ar
    27   12   26 1
    28   13   27 1
@<TRIPOS>MOLECULE
ZINC44125480
   29    29     0     0     0
SMALL
USER_CHARGES

@<TRIPOS>ATOM
      1 C1         -0.0187    1.5258    0.0104 C.3       1 <0>        -0.1630
      2 C2          0.0021   -0.0041    0.0020 C.3       1 <0>        -0.0593
      3 H1          0.5293   -0.3651    0.8851 H         1 <0>         0.1131
      4 C3         -1.4333   -0.5336    0.0129 C.3       1 <0>         0.0081
      5 N1         -2.0833   -0.1607    1.2764 N.4       1 <0>        -0.2423
      6 C4         -3.4954   -0.5639    1.2383 C.3       1 <0>        -0.0838
      7 N2         -1.4172   -0.8322    2.3807 N.3       1 <0>        -0.6460
      8 C5          0.7074   -0.4901   -1.2379 C.ar      1 <0>        -0.1021
      9 C6          0.2220   -0.1511   -2.4870 C.ar      1 <0>        -0.1166
     10 C7          0.8690   -0.5969   -3.6243 C.ar      1 <0>        -0.1139
     11 C8          2.0018   -1.3813   -3.5125 C.ar      1 <0>        -0.1064
     12 C9          2.4878   -1.7195   -2.2634 C.ar      1 <0>        -0.1130
     13 C10         1.8432   -1.2701   -1.1261 C.ar      1 <0>        -0.1059
     14 H2          1.0039    1.9031    0.0027 H         1 <0>         0.0844
     15 H3         -0.5459    1.8868   -0.8726 H         1 <0>         0.0707
     16 H4         -0.5289    1.8773    0.9072 H         1 <0>         0.0540
     17 H5         -1.9862   -0.1019   -0.8214 H         1 <0>         0.1372
     18 H6         -1.4207   -1.6194   -0.0826 H         1 <0>         0.1305
     19 H7         -3.5615   -1.6431    1.1003 H         1 <0>         0.1251
     20 H8         -3.9776   -0.2872    2.1758 H         1 <0>         0.1268
     21 H9         -3.9947   -0.0605    0.4104 H         1 <0>         0.1336
     22 H10        -1.8041   -0.5425    3.2664 H         1 <0>         0.3982
     23 H11        -0.6631    0.4617   -2.5743 H         1 <0>         0.1206
     24 H12         0.4893   -0.3327   -4.6002 H         1 <0>         0.1282
     25 H13         2.5069   -1.7302   -4.4011 H         1 <0>         0.1290
     26 H14         3.3726   -2.3325   -2.1760 H         1 <0>         0.1293
     27 H15         2.2251   -1.5312   -0.1501 H         1 <0>         0.1256
     28 H16        -1.4647   -1.8347    2.2760 H         1 <0>         0.3988
     29 H17        -2.0220    0.8383    1.4041 H         1 <0>         0.4394
@<TRIPOS>BOND
     1    1    2 1
     2    1   14 1
     3    1   15 1
     4    1   16 1
     5    2    3 1
     6    2    4 1
     7    2    8 1
     8    4    5 1
     9    4   17 1
    10    4   18 1
    11    5    6 1
    12    5    7 1
    13    5   29 1
    14    6   19 1
    15    6   20 1
    16    6   21 1
    17    7   22 1
    18    7   28 1
    19    8   13 ar
    20    8    9 ar
    21    9   10 ar
    22    9   23 1
    23   10   11 ar
    24   10   24 1
    25   11   12 ar
    26   11   25 1
    27   12   13 ar
    28   12   26 1
    29   13   27 1
@<TRIPOS>MOLECULE
ZINC44125484
   29    29     0     0     0
SMALL
USER_CHARGES

@<TRIPOS>ATOM
      1 C1         -0.0187    1.5258    0.0104 C.3       1 <0>        -0.1513
      2 C2          0.0021   -0.0041    0.0020 C.3       1 <0>        -0.0469
      3 H1          0.5293   -0.3651    0.8851 H         1 <0>         0.0722
      4 C3          0.7182   -0.4975   -1.2568 C.3       1 <0>         0.0105
      5 N1          2.1288   -0.0900   -1.2092 N.3       1 <0>        -0.3395
      6 C4          2.7976   -0.3579   -2.4894 C.3       1 <0>        -0.0302
      7 N2          2.8232   -0.7435   -0.1117 N.4       1 <0>        -0.5115
      8 C5         -1.4117   -0.5257    0.0127 C.ar      1 <0>        -0.1016
      9 C6         -2.2755   -0.2024   -1.0170 C.ar      1 <0>        -0.1127
     10 C7         -3.5724   -0.6809   -1.0072 C.ar      1 <0>        -0.1124
     11 C8         -4.0053   -1.4830    0.0321 C.ar      1 <0>        -0.1087
     12 C9         -3.1413   -1.8070    1.0613 C.ar      1 <0>        -0.1133
     13 C10        -1.8431   -1.3321    1.0493 C.ar      1 <0>        -0.1145
     14 H2          1.0039    1.9031    0.0027 H         1 <0>         0.0685
     15 H3         -0.5459    1.8868   -0.8726 H         1 <0>         0.0673
     16 H4         -0.5289    1.8773    0.9072 H         1 <0>         0.0685
     17 H5          0.6556   -1.5845   -1.3079 H         1 <0>         0.0827
     18 H6          0.2444   -0.0644   -2.1377 H         1 <0>         0.1355
     19 H7          2.2995    0.1989   -3.2831 H         1 <0>         0.1308
     20 H8          3.8404   -0.0468   -2.4266 H         1 <0>         0.1065
     21 H9          2.7492   -1.4246   -2.7084 H         1 <0>         0.0718
     22 H10         2.7795   -1.7441   -0.2343 H         1 <0>         0.4076
     23 H11         3.7879   -0.4479   -0.1004 H         1 <0>         0.4473
     24 H12        -1.9373    0.4243   -1.8289 H         1 <0>         0.1225
     25 H13        -4.2475   -0.4277   -1.8113 H         1 <0>         0.1285
     26 H14        -5.0187   -1.8562    0.0401 H         1 <0>         0.1286
     27 H15        -3.4796   -2.4334    1.8734 H         1 <0>         0.1280
     28 H16        -1.1669   -1.5883    1.8515 H         1 <0>         0.1207
     29 H17         2.3842   -0.4921    0.7614 H         1 <0>         0.4450
@<TRIPOS>BOND
     1    1    2 1
     2    1   14 1
     3    1   15 1
     4    1   16 1
     5    2    3 1
     6    2    4 1
     7    2    8 1
     8    4    5 1
     9    4   17 1
    10    4   18 1
    11    5    6 1
    12    5    7 1
    13    6   19 1
    14    6   20 1
    15    6   21 1
    16    7   22 1
    17    7   23 1
    18    7   29 1
    19    8   13 ar
    20    8    9 ar
    21    9   10 ar
    22    9   24 1
    23   10   11 ar
    24   10   25 1
    25   11   12 ar
    26   11   26 1
    27   12   13 ar
    28   12   27 1
    29   13   28 1
@<TRIPOS>MOLECULE
ZINC44125484
   28    28     0     0     0
SMALL
USER_CHARGES

@<TRIPOS>ATOM
      1 C1         -0.0187    1.5258    0.0104 C.3       1 <0>        -0.1380
      2 C2          0.0021   -0.0041    0.0020 C.3       1 <0>        -0.0491
      3 H1          0.5123   -0.3556   -0.8948 H         1 <0>         0.0779
      4 C3         -1.4333   -0.5336    0.0129 C.3       1 <0>         0.0608
      5 N1         -2.1072   -0.1473   -1.2339 N.3       1 <0>        -0.3867
      6 C4         -3.5236   -0.5361   -1.2091 C.3       1 <0>         0.0210
      7 N2         -1.4312   -0.7151   -2.3892 N.3       1 <0>        -0.7052
      8 C5          0.7309   -0.5033    1.2229 C.ar      1 <0>        -0.0766
      9 C6          0.2630   -0.1872    2.4847 C.ar      1 <0>        -0.1153
     10 C7          0.9315   -0.6452    3.6046 C.ar      1 <0>        -0.1181
     11 C8          2.0678   -1.4195    3.4627 C.ar      1 <0>        -0.1241
     12 C9          2.5353   -1.7363    2.2010 C.ar      1 <0>        -0.1178
     13 C10         1.8643   -1.2820    1.0811 C.ar      1 <0>        -0.1162
     14 H2          1.0039    1.9031    0.0027 H         1 <0>         0.0525
     15 H3         -0.5459    1.8868   -0.8726 H         1 <0>         0.0657
     16 H4         -0.5289    1.8773    0.9072 H         1 <0>         0.0556
     17 H5         -1.4190   -1.6203    0.0965 H         1 <0>         0.0441
     18 H6         -1.9701   -0.1109    0.8621 H         1 <0>         0.0818
     19 H7         -4.0215   -0.0417   -0.3749 H         1 <0>         0.0754
     20 H8         -3.9986   -0.2383   -2.1438 H         1 <0>         0.0689
     21 H9         -3.6017   -1.6167   -1.0900 H         1 <0>         0.0347
     22 H10        -1.8941   -0.4497   -3.2456 H         1 <0>         0.3515
     23 H11        -0.6248    0.4177    2.5955 H         1 <0>         0.1207
     24 H12         0.5663   -0.3977    4.5903 H         1 <0>         0.1218
     25 H13         2.5906   -1.7767    4.3377 H         1 <0>         0.1212
     26 H14         3.4233   -2.3410    2.0902 H         1 <0>         0.1219
     27 H15         2.2274   -1.5326    0.0953 H         1 <0>         0.1206
     28 H16        -0.4584   -0.4480   -2.4063 H         1 <0>         0.3508
@<TRIPOS>BOND
     1    1    2 1
     2    1   14 1
     3    1   15 1
     4    1   16 1
     5    2    3 1
     6    2    4 1
     7    2    8 1
     8    4    5 1
     9    4   17 1
    10    4   18 1
    11    5    6 1
    12    5    7 1
    13    6   19 1
    14    6   20 1
    15    6   21 1
    16    7   22 1
    17    7   28 1
    18    8   13 ar
    19    8    9 ar
    20    9   10 ar
    21    9   23 1
    22   10   11 ar
    23   10   24 1
    24   11   12 ar
    25   11   25 1
    26   12   13 ar
    27   12   26 1
    28   13   27 1
@<TRIPOS>MOLECULE
ZINC44125484
   29    29     0     0     0
SMALL
USER_CHARGES

@<TRIPOS>ATOM
      1 C1         -0.0187    1.5258    0.0104 C.3       1 <0>        -0.1681
      2 C2          0.0021   -0.0041    0.0020 C.3       1 <0>        -0.0672
      3 H1          0.5293   -0.3651    0.8851 H         1 <0>         0.0927
      4 C3          0.7182   -0.4975   -1.2568 C.3       1 <0>        -0.0432
      5 N1          2.1288   -0.0900   -1.2092 N.4       1 <0>        -0.2414
      6 C4          2.7876   -0.4583   -2.4695 C.3       1 <0>        -0.0349
      7 N2          2.7902   -0.7615   -0.1022 N.3       1 <0>        -0.6446
      8 C5         -1.4117   -0.5257    0.0127 C.ar      1 <0>        -0.1042
      9 C6         -2.2755   -0.2024   -1.0170 C.ar      1 <0>        -0.1131
     10 C7         -3.5724   -0.6809   -1.0072 C.ar      1 <0>        -0.1119
     11 C8         -4.0053   -1.4830    0.0321 C.ar      1 <0>        -0.1031
     12 C9         -3.1413   -1.8070    1.0613 C.ar      1 <0>        -0.1113
     13 C10        -1.8431   -1.3321    1.0493 C.ar      1 <0>        -0.1079
     14 H2          1.0039    1.9031    0.0027 H         1 <0>         0.0567
     15 H3         -0.5459    1.8868   -0.8726 H         1 <0>         0.0781
     16 H4         -0.5289    1.8773    0.9072 H         1 <0>         0.0886
     17 H5          0.6556   -1.5845   -1.3079 H         1 <0>         0.1345
     18 H6          0.2444   -0.0644   -2.1377 H         1 <0>         0.1413
     19 H7          2.2918    0.0451   -3.2994 H         1 <0>         0.1317
     20 H8          3.8342   -0.1559   -2.4342 H         1 <0>         0.1343
     21 H9          2.7258   -1.5374   -2.6099 H         1 <0>         0.1209
     22 H10         2.3969   -0.4747    0.7817 H         1 <0>         0.3959
     23 H11        -1.9373    0.4243   -1.8289 H         1 <0>         0.1221
     24 H12        -4.2475   -0.4277   -1.8113 H         1 <0>         0.1304
     25 H13        -5.0187   -1.8562    0.0401 H         1 <0>         0.1310
     26 H14        -3.4796   -2.4334    1.8734 H         1 <0>         0.1310
     27 H15        -1.1669   -1.5883    1.8515 H         1 <0>         0.1241
     28 H16         2.7465   -1.7639   -0.2092 H         1 <0>         0.3984
     29 H17         2.1860    0.9090   -1.0792 H         1 <0>         0.4392
@<TRIPOS>BOND
     1    1    2 1
     2    1   14 1
     3    1   15 1
     4    1   16 1
     5    2    3 1
     6    2    4 1
     7    2    8 1
     8    4    5 1
     9    4   17 1
    10    4   18 1
    11    5    6 1
    12    5    7 1
    13    5   29 1
    14    6   19 1
    15    6   20 1
    16    6   21 1
    17    7   22 1
    18    7   28 1
    19    8   13 ar
    20    8    9 ar
    21    9   10 ar
    22    9   23 1
    23   10   11 ar
    24   10   24 1
    25   11   12 ar
    26   11   25 1
    27   12   13 ar
    28   12   26 1
    29   13   27 1
@<TRIPOS>MOLECULE
ZINC13608478
   22    22     0     0     0
SMALL
USER_CHARGES
4-(aminomethyl)-N-methyl-pyridin-3-amine
@<TRIPOS>ATOM
      1 C1         -0.0127    1.0858    0.0080 C.3       1 <0>         0.0772
      2 N1         -0.6984    1.5583    1.2133 N.pl3     1 <0>        -0.7443
      3 C2         -0.2045    1.2205    2.4758 C.ar      1 <0>         0.1844
      4 C3          0.9329    0.4324    2.6001 C.ar      1 <0>         0.0494
      5 N2          1.4049    0.1166    3.7893 N.ar      1 <0>        -0.4169
      6 C4          0.8186    0.5207    4.8994 C.ar      1 <0>         0.0501
      7 C5         -0.3203    1.3029    4.8573 C.ar      1 <0>        -0.0935
      8 C6         -0.8482    1.6640    3.6284 C.ar      1 <0>        -0.2097
      9 C7         -2.0886    2.5153    3.5410 C.3       1 <0>         0.0578
     10 H1          0.0021   -0.0041    0.0020 H         1 <0>         0.0679
     11 H2          1.0099    1.4631    0.0003 H         1 <0>         0.0675
     12 H3         -0.5399    1.4469   -0.8751 H         1 <0>         0.0872
     13 H4         -1.4954    2.1056    1.1349 H         1 <0>         0.3922
     14 H5          1.4379    0.0789    1.7133 H         1 <0>         0.1654
     15 H6          1.2344    0.2367    5.8549 H         1 <0>         0.1672
     16 H7         -0.7930    1.6291    5.7719 H         1 <0>         0.1471
     17 H8         -2.2343    3.0430    4.4835 H         1 <0>         0.1496
     18 H9         -1.9768    3.2386    2.7332 H         1 <0>         0.1333
     19 H10        -3.3397    0.9391    3.9754 H         1 <0>         0.4406
     20 H11        -4.0972    2.2071    3.2110 H         1 <0>         0.4414
     21 N3         -3.2455    1.6498    3.2517 N.4       1 <0>        -0.6474
     22 H12        -3.1035    1.1883    2.3455 H         1 <0>         0.4332
@<TRIPOS>BOND
     1    1    2 1
     2    1   10 1
     3    1   11 1
     4    1   12 1
     5    2    3 1
     6    2   13 1
     7    3    8 ar
     8    3    4 ar
     9    4    5 ar
    10    4   14 1
    11    5    6 ar
    12    6    7 ar
    13    6   15 1
    14    7    8 ar
    15    7   16 1
    16    8    9 1
    17    9   17 1
    18    9   18 1
    19    9   21 1
    20   19   21 1
    21   20   21 1
    22   21   22 1
@<TRIPOS>MOLECULE
ZINC13608481
   25    25     0     0     0
SMALL
USER_CHARGES
4-(aminomethyl)-N-ethyl-pyridin-3-amine
@<TRIPOS>ATOM
      1 C1          0.9418    3.6428    0.0126 C.3       1 <0>        -0.1693
      2 C2          1.2417    2.1425    0.0017 C.3       1 <0>         0.1077
      3 N1         -0.0169    1.3929    0.0097 N.pl3     1 <0>        -0.7406
      4 C3          0.0021   -0.0041    0.0020 C.ar      1 <0>         0.1866
      5 C4          1.2086   -0.6927   -0.0132 C.ar      1 <0>         0.0488
      6 N2          1.2302   -2.0104   -0.0205 N.ar      1 <0>        -0.4167
      7 C5          0.1210   -2.7237   -0.0133 C.ar      1 <0>         0.0494
      8 C6         -1.1179   -2.1106    0.0023 C.ar      1 <0>        -0.0931
      9 C7         -1.1882   -0.7271    0.0153 C.ar      1 <0>        -0.2102
     10 C8         -2.5198   -0.0218    0.0382 C.3       1 <0>         0.0577
     11 H1          0.3583    3.9031   -0.8704 H         1 <0>         0.0619
     12 H2          0.3752    3.8936    0.9094 H         1 <0>         0.0647
     13 H3          1.8783    4.2006    0.0067 H         1 <0>         0.0857
     14 H4          1.8253    1.8823    0.8848 H         1 <0>         0.0743
     15 H5          1.8083    1.8918   -0.8951 H         1 <0>         0.0745
     16 H6         -0.8634    1.8664    0.0163 H         1 <0>         0.3904
     17 H7          2.1381   -0.1427   -0.0195 H         1 <0>         0.1646
     18 H8          0.1813   -3.8020   -0.0193 H         1 <0>         0.1668
     19 H9         -2.0206   -2.7034    0.0081 H         1 <0>         0.1468
     20 H10        -3.2877   -0.7070    0.3972 H         1 <0>         0.1497
     21 H11        -2.4629    0.8405    0.7026 H         1 <0>         0.1331
     22 H12        -2.8552   -0.3460   -1.9669 H         1 <0>         0.4406
     23 H13        -3.7490    0.9034   -1.3298 H         1 <0>         0.4413
     24 N3         -2.8403    0.4430   -1.3228 N.4       1 <0>        -0.6476
     25 H14        -2.1236    1.1117   -1.6287 H         1 <0>         0.4331
@<TRIPOS>BOND
     1    1    2 1
     2    1   11 1
     3    1   12 1
     4    1   13 1
     5    2    3 1
     6    2   14 1
     7    2   15 1
     8    3    4 1
     9    3   16 1
    10    4    9 ar
    11    4    5 ar
    12    5    6 ar
    13    5   17 1
    14    6    7 ar
    15    7    8 ar
    16    7   18 1
    17    8    9 ar
    18    8   19 1
    19    9   10 1
    20   10   20 1
    21   10   21 1
    22   10   24 1
    23   22   24 1
    24   23   24 1
    25   24   25 1
