@<TRIPOS>MOLECULE
ZINC13819928
   40    42     0     0     0
SMALL
USER_CHARGES
1-[(5R)-3-(2-hydroxyphenyl)-5-(m-tolyl)-4,5-dihydropyrazol-1-yl]ethanone
@<TRIPOS>ATOM
      1 C1          3.7112   -0.7073   -0.0378 C.3       1 <0>        -0.1155
      2 C2          2.3961    0.0283   -0.0212 C.ar      1 <0>        -0.0827
      3 C3          2.3773    1.4107   -0.0141 C.ar      1 <0>        -0.1153
      4 C4          1.1711    2.0854    0.0021 C.ar      1 <0>        -0.1130
      5 C5         -0.0167    1.3779    0.0096 C.ar      1 <0>        -0.1076
      6 C6          0.0021   -0.0041    0.0020 C.ar      1 <0>        -0.0866
      7 C7          1.2086   -0.6790   -0.0136 C.ar      1 <0>        -0.1008
      8 C8         -1.2926   -0.7753    0.0103 C.3       1 <0>         0.1483
      9 H1         -1.1293   -1.8003   -0.3226 H         1 <0>         0.1013
     10 C9         -1.9289   -0.7521    1.4142 C.3       1 <0>        -0.1242
     11 C10        -3.2557   -0.0590    1.2014 C.2       1 <0>         0.1354
     12 N1         -3.3815    0.2577   -0.0411 N.2       1 <0>        -0.2135
     13 N2         -2.2970   -0.1101   -0.8349 N.am      1 <0>        -0.4682
     14 C11        -2.1861    0.1073   -2.1604 C.2       1 <0>         0.5499
     15 O1         -1.1930   -0.2574   -2.7539 O.2       1 <0>        -0.5166
     16 C12        -3.2960    0.8035   -2.9051 C.3       1 <0>        -0.1592
     17 C13        -4.2518    0.2122    2.2532 C.ar      1 <0>        -0.0641
     18 C14        -4.0084   -0.1845    3.5701 C.ar      1 <0>        -0.0741
     19 C15        -4.9424    0.0769    4.5504 C.ar      1 <0>        -0.1305
     20 C16        -6.1259    0.7214    4.2330 C.ar      1 <0>        -0.0848
     21 C17        -6.3811    1.1139    2.9326 C.ar      1 <0>        -0.1495
     22 C18        -5.4513    0.8643    1.9365 C.ar      1 <0>         0.1454
     23 O2         -5.7012    1.2496    0.6584 O.3       1 <0>        -0.4799
     24 H2          4.0184   -0.8792   -1.0694 H         1 <0>         0.0720
     25 H3          4.4677   -0.1107    0.4720 H         1 <0>         0.0675
     26 H4          3.5987   -1.6642    0.4720 H         1 <0>         0.0670
     27 H5          3.3052    1.9634   -0.0204 H         1 <0>         0.1234
     28 H6          1.1565    3.1653    0.0081 H         1 <0>         0.1230
     29 H7         -0.9592    1.9051    0.0170 H         1 <0>         0.1136
     30 H8          1.2233   -1.7589   -0.0196 H         1 <0>         0.1226
     31 H9         -2.0822   -1.7669    1.7813 H         1 <0>         0.1079
     32 H10        -1.3074   -0.1839    2.1063 H         1 <0>         0.1072
     33 H11        -3.4458    1.7988   -2.4866 H         1 <0>         0.0936
     34 H12        -3.0290    0.8888   -3.9585 H         1 <0>         0.0913
     35 H13        -4.2158    0.2267   -2.8089 H         1 <0>         0.0922
     36 H14        -3.0884   -0.6915    3.8210 H         1 <0>         0.1329
     37 H15        -4.7516   -0.2261    5.5694 H         1 <0>         0.1325
     38 H16        -6.8537    0.9190    5.0061 H         1 <0>         0.1315
     39 H17        -7.3066    1.6162    2.6928 H         1 <0>         0.1349
     40 H18        -6.1554    0.5809    0.1277 H         1 <0>         0.3927
@<TRIPOS>BOND
     1    1    2 1
     2    1   24 1
     3    1   25 1
     4    1   26 1
     5    2    7 ar
     6    2    3 ar
     7    3    4 ar
     8    3   27 1
     9    4    5 ar
    10    4   28 1
    11    5    6 ar
    12    5   29 1
    13    6    7 ar
    14    6    8 1
    15    7   30 1
    16    8    9 1
    17    8   13 1
    18    8   10 1
    19   10   11 1
    20   10   31 1
    21   10   32 1
    22   11   12 2
    23   11   17 1
    24   12   13 1
    25   13   14 am
    26   14   15 2
    27   14   16 1
    28   16   33 1
    29   16   34 1
    30   16   35 1
    31   17   22 ar
    32   17   18 ar
    33   18   19 ar
    34   18   36 1
    35   19   20 ar
    36   19   37 1
    37   20   21 ar
    38   20   38 1
    39   21   22 ar
    40   21   39 1
    41   22   23 1
    42   23   40 1
@<TRIPOS>MOLECULE
ZINC13819930
   40    42     0     0     0
SMALL
USER_CHARGES
1-[(5S)-3-(2-hydroxyphenyl)-5-(m-tolyl)-4,5-dihydropyrazol-1-yl]ethanone
@<TRIPOS>ATOM
      1 C1          1.2290   -2.1858   -0.0219 C.3       1 <0>        -0.1158
      2 C2          1.2086   -0.6790   -0.0136 C.ar      1 <0>        -0.0819
      3 C3          0.0021   -0.0041    0.0020 C.ar      1 <0>        -0.1158
      4 C4         -0.0167    1.3779    0.0096 C.ar      1 <0>        -0.1129
      5 C5          1.1711    2.0854    0.0021 C.ar      1 <0>        -0.1079
      6 C6          2.3773    1.4107   -0.0141 C.ar      1 <0>        -0.0851
      7 C7          2.3961    0.0283   -0.0212 C.ar      1 <0>        -0.1018
      8 C8          3.6720    2.1819   -0.0223 C.3       1 <0>         0.1473
      9 H1          4.4857    1.5591   -0.3940 H         1 <0>         0.1009
     10 C9          3.9960    2.7131    1.3880 C.3       1 <0>        -0.1233
     11 C10         4.0109    4.2184    1.2119 C.2       1 <0>         0.1357
     12 N1          3.7578    4.5112   -0.0170 N.2       1 <0>        -0.2142
     13 N2          3.5423    3.4028   -0.8335 N.am      1 <0>        -0.4673
     14 C11         3.2607    3.4425   -2.1509 C.2       1 <0>         0.5503
     15 O1          3.0907    2.4109   -2.7662 O.2       1 <0>        -0.5174
     16 C12         3.1569    4.7684   -2.8596 C.3       1 <0>        -0.1619
     17 C13         4.2760    5.1966    2.2819 C.ar      1 <0>        -0.0640
     18 C14         4.5397    4.7606    3.5824 C.ar      1 <0>        -0.0740
     19 C15         4.7870    5.6811    4.5790 C.ar      1 <0>        -0.1304
     20 C16         4.7745    7.0364    4.2963 C.ar      1 <0>        -0.0846
     21 C17         4.5153    7.4804    3.0135 C.ar      1 <0>        -0.1495
     22 C18         4.2706    6.5692    1.9991 C.ar      1 <0>         0.1454
     23 O2          4.0209    7.0045    0.7371 O.3       1 <0>        -0.4797
     24 H2          1.2237   -2.5436   -1.0515 H         1 <0>         0.0721
     25 H3          2.1290   -2.5397    0.4811 H         1 <0>         0.0671
     26 H4          0.3492   -2.5640    0.4987 H         1 <0>         0.0676
     27 H5         -0.9258   -0.5567    0.0079 H         1 <0>         0.1234
     28 H6         -0.9592    1.9051    0.0170 H         1 <0>         0.1228
     29 H7          1.1565    3.1653    0.0081 H         1 <0>         0.1129
     30 H8          3.3386   -0.4989   -0.0331 H         1 <0>         0.1228
     31 H9          3.2210    2.4177    2.0953 H         1 <0>         0.1076
     32 H10         4.9716    2.3549    1.7167 H         1 <0>         0.1077
     33 H11         4.1359    5.0514   -3.2463 H         1 <0>         0.0966
     34 H12         2.4504    4.6846   -3.6855 H         1 <0>         0.0926
     35 H13         2.8092    5.5283   -2.1598 H         1 <0>         0.0906
     36 H14         4.5497    3.7043    3.8072 H         1 <0>         0.1330
     37 H15         4.9908    5.3433    5.5844 H         1 <0>         0.1325
     38 H16         4.9688    7.7506    5.0827 H         1 <0>         0.1315
     39 H17         4.5076    8.5392    2.8007 H         1 <0>         0.1349
     40 H18         3.0850    7.1647    0.5543 H         1 <0>         0.3922
@<TRIPOS>BOND
     1    1    2 1
     2    1   24 1
     3    1   25 1
     4    1   26 1
     5    2    7 ar
     6    2    3 ar
     7    3    4 ar
     8    3   27 1
     9    4    5 ar
    10    4   28 1
    11    5    6 ar
    12    5   29 1
    13    6    7 ar
    14    6    8 1
    15    7   30 1
    16    8    9 1
    17    8   13 1
    18    8   10 1
    19   10   11 1
    20   10   31 1
    21   10   32 1
    22   11   12 2
    23   11   17 1
    24   12   13 1
    25   13   14 am
    26   14   15 2
    27   14   16 1
    28   16   33 1
    29   16   34 1
    30   16   35 1
    31   17   22 ar
    32   17   18 ar
    33   18   19 ar
    34   18   36 1
    35   19   20 ar
    36   19   37 1
    37   20   21 ar
    38   20   38 1
    39   21   22 ar
    40   21   39 1
    41   22   23 1
    42   23   40 1
@<TRIPOS>MOLECULE
ZINC13493571
   30    31     0     0     0
SMALL
USER_CHARGES

@<TRIPOS>ATOM
      1 C1          0.0699   -3.3052    1.5377 C.3       1 <0>         0.0660
      2 N1          0.0436   -2.1180    0.6797 N.pl3     1 <0>        -0.4104
      3 C2          0.1227   -2.1185   -0.6733 C.2       1 <0>         0.0177
      4 C3          0.0657   -0.8397   -1.1160 C.2       1 <0>        -0.2076
      5 C4         -0.0536   -0.0045   -0.0008 C.2       1 <0>        -0.1389
      6 C5         -0.0716   -0.8166    1.1133 C.2       1 <0>        -0.0581
      7 C6         -0.1886   -0.3742    2.5068 C.2       1 <0>         0.5905
      8 O1         -0.1012   -1.1834    3.4115 O.2       1 <0>        -0.5487
      9 N2         -0.3928    0.9286    2.7854 N.am      1 <0>        -0.7158
     10 C7         -0.3982    1.3882    4.1764 C.3       1 <0>         0.1649
     11 C8         -0.6456    2.8742    4.2135 C.ar      1 <0>        -0.1128
     12 C9          0.4197    3.7538    4.1640 C.ar      1 <0>        -0.0997
     13 C10         0.1927    5.1169    4.1981 C.ar      1 <0>        -0.1215
     14 C11        -1.0996    5.6006    4.2812 C.ar      1 <0>        -0.1101
     15 C12        -2.1649    4.7211    4.3298 C.ar      1 <0>        -0.1215
     16 C13        -1.9382    3.3580    4.2914 C.ar      1 <0>        -0.0996
     17 H1         -0.9510   -3.6108    1.7665 H         1 <0>         0.0765
     18 H2          0.5846   -4.1154    1.0211 H         1 <0>         0.0849
     19 H3          0.5958   -3.0727    2.4637 H         1 <0>         0.1006
     20 H4          0.2159   -2.9955   -1.2967 H         1 <0>         0.1705
     21 H5          0.1053   -0.5215   -2.1473 H         1 <0>         0.1442
     22 H6         -0.1223    1.0732   -0.0105 H         1 <0>         0.1429
     23 H7         -0.5363    1.5619    2.0648 H         1 <0>         0.4049
     24 H8         -1.1872    0.8746    4.7257 H         1 <0>         0.0792
     25 H9          0.5659    1.1688    4.6352 H         1 <0>         0.0782
     26 H10         1.4294    3.3759    4.0991 H         1 <0>         0.1246
     27 H11         1.0251    5.8041    4.1601 H         1 <0>         0.1253
     28 H12        -1.2768    6.6656    4.3085 H         1 <0>         0.1243
     29 H13        -3.1746    5.0989    4.3951 H         1 <0>         0.1252
     30 H14        -2.7708    2.6709    4.3256 H         1 <0>         0.1244
@<TRIPOS>BOND
     1    1    2 1
     2    1   17 1
     3    1   18 1
     4    1   19 1
     5    2    6 1
     6    2    3 1
     7    3    4 2
     8    3   20 1
     9    4    5 1
    10    4   21 1
    11    5    6 2
    12    5   22 1
    13    6    7 1
    14    7    8 2
    15    7    9 am
    16    9   10 1
    17    9   23 1
    18   10   11 1
    19   10   24 1
    20   10   25 1
    21   11   16 ar
    22   11   12 ar
    23   12   13 ar
    24   12   26 1
    25   13   14 ar
    26   13   27 1
    27   14   15 ar
    28   14   28 1
    29   15   16 ar
    30   15   29 1
    31   16   30 1
@<TRIPOS>MOLECULE
ZINC13493584
   33    34     0     0     0
SMALL
USER_CHARGES
N-(2-morpholinoethyl)-1H-pyrrole-2-carboxamide
@<TRIPOS>ATOM
      1 C1         -1.7603   -4.3050   -0.0043 C.2       1 <0>        -0.2154
      2 C2         -2.2368   -2.9904    0.0134 C.2       1 <0>        -0.1076
      3 C3         -1.1359   -2.1604    0.0013 C.2       1 <0>        -0.0697
      4 N1         -0.0147   -2.9588   -0.0137 N.pl3     1 <0>        -0.5514
      5 H1          0.9859   -2.5018   -0.0208 H         1 <0>         0.4374
      6 C4         -0.4067   -4.2562   -0.0169 C.2       1 <0>         0.0365
      7 C5         -1.1558   -0.6938    0.0094 C.2       1 <0>         0.5930
      8 O1         -2.2178   -0.0997    0.0227 O.2       1 <0>        -0.5287
      9 N2          0.0021   -0.0041    0.0020 N.am      1 <0>        -0.7426
     10 C6         -0.0178    1.4608    0.0101 C.3       1 <0>         0.1249
     11 C7          1.4176    1.9904   -0.0008 C.3       1 <0>         0.0446
     12 N3          1.3977    3.4592    0.0073 N.3       1 <0>        -0.5329
     13 C8          0.8284    3.9853   -1.2419 C.3       1 <0>         0.0103
     14 C9          0.7715    5.5133   -1.1667 C.3       1 <0>         0.0607
     15 O2          2.0837    6.0223   -0.9132 O.3       1 <0>        -0.3844
     16 C10         2.6682    5.5310    0.2960 C.3       1 <0>         0.0607
     17 C11         2.7443    4.0031    0.2357 C.3       1 <0>         0.0177
     18 H2         -2.3643   -5.2003   -0.0033 H         1 <0>         0.1448
     19 H3         -3.2720   -2.6831    0.0305 H         1 <0>         0.1454
     20 H4          0.2526   -5.1116   -0.0275 H         1 <0>         0.1704
     21 H5          0.9621   -0.5411   -0.0101 H         1 <0>         0.4084
     22 H6         -0.5499    1.8252   -0.8810 H         1 <0>         0.0697
     23 H7         -0.5327    1.8155    0.9151 H         1 <0>         0.0798
     24 H8          1.9496    1.6260    0.8903 H         1 <0>         0.0843
     25 H9          1.9325    1.6357   -0.9058 H         1 <0>         0.0427
     26 H10         1.4603    3.6812   -2.0894 H         1 <0>         0.0457
     27 H11        -0.1869    3.5850   -1.3794 H         1 <0>         0.0921
     28 H12         0.3988    5.9137   -2.1210 H         1 <0>         0.1019
     29 H13         0.0954    5.8155   -0.3533 H         1 <0>         0.0631
     30 H14         3.6805    5.9463    0.4090 H         1 <0>         0.1015
     31 H15         2.0491    5.8357    1.1527 H         1 <0>         0.0625
     32 H16         3.1397    3.6159    1.1863 H         1 <0>         0.0892
     33 H17         3.4071    3.6993   -0.5880 H         1 <0>         0.0452
@<TRIPOS>BOND
     1    1    6 2
     2    1    2 1
     3    1   18 1
     4    2    3 2
     5    2   19 1
     6    3    4 1
     7    3    7 1
     8    4    5 1
     9    4    6 1
    10    6   20 1
    11    7    8 2
    12    7    9 am
    13    9   10 1
    14    9   21 1
    15   10   11 1
    16   10   22 1
    17   10   23 1
    18   11   12 1
    19   11   24 1
    20   11   25 1
    21   12   17 1
    22   12   13 1
    23   13   14 1
    24   13   26 1
    25   13   27 1
    26   14   15 1
    27   14   28 1
    28   14   29 1
    29   15   16 1
    30   16   17 1
    31   16   30 1
    32   16   31 1
    33   17   32 1
    34   17   33 1
@<TRIPOS>MOLECULE
ZINC13493576
   27    28     0     0     0
SMALL
USER_CHARGES
N-[(3-fluorophenyl)methyl]-1H-pyrrole-2-carboxamide
@<TRIPOS>ATOM
      1 C1         -1.0099    3.2286    2.9527 C.ar      1 <0>        -0.0901
      2 C2         -0.3597    2.7788    1.8184 C.ar      1 <0>        -0.1111
      3 C3         -0.7181    1.5718    1.2479 C.ar      1 <0>        -0.0839
      4 C4         -1.7193    0.8078    1.8174 C.ar      1 <0>        -0.1361
      5 C5         -2.3671    1.2545    2.9564 C.ar      1 <0>         0.0988
      6 C6         -2.0111    2.4666    3.5238 C.ar      1 <0>        -0.1446
      7 F1         -3.3455    0.5084    3.5142 F         1 <0>        -0.1363
      8 C7         -0.0127    1.0858    0.0080 C.3       1 <0>         0.1620
      9 N1         -0.7213    1.5711   -1.1789 N.am      1 <0>        -0.7305
     10 C8         -0.2681    1.2584   -2.4090 C.2       1 <0>         0.5911
     11 O1          0.7296    0.5729   -2.5339 O.2       1 <0>        -0.5242
     12 C9         -0.9776    1.7443   -3.5974 C.2       1 <0>        -0.0638
     13 C10        -0.6260    1.5086   -4.9095 C.2       1 <0>        -0.1005
     14 C11        -1.5745    2.1518   -5.7108 C.2       1 <0>        -0.2115
     15 C12        -2.4637    2.7636   -4.8924 C.2       1 <0>         0.0270
     16 N2         -2.1122    2.5237   -3.6056 N.pl3     1 <0>        -0.5421
     17 H1         -2.5821    2.8470   -2.8211 H         1 <0>         0.4150
     18 H2         -0.7321    4.1739    3.3950 H         1 <0>         0.1375
     19 H3          0.4257    3.3730    1.3752 H         1 <0>         0.1333
     20 H4         -1.9963   -0.1371    1.3739 H         1 <0>         0.1383
     21 H5         -2.5155    2.8159    4.4126 H         1 <0>         0.1387
     22 H6          0.0021   -0.0041    0.0020 H         1 <0>         0.0835
     23 H7          1.0099    1.4631    0.0003 H         1 <0>         0.0855
     24 H8         -1.5165    2.1175   -1.0793 H         1 <0>         0.3958
     25 H9          0.2210    0.9337   -5.2536 H         1 <0>         0.1491
     26 H10        -1.5921    2.1629   -6.7906 H         1 <0>         0.1460
     27 H11        -3.3136    3.3477   -5.2129 H         1 <0>         0.1729
@<TRIPOS>BOND
     1    1    6 ar
     2    1    2 ar
     3    1   18 1
     4    2    3 ar
     5    2   19 1
     6    3    4 ar
     7    3    8 1
     8    4    5 ar
     9    4   20 1
    10    5    6 ar
    11    5    7 1
    12    6   21 1
    13    8    9 1
    14    8   22 1
    15    8   23 1
    16    9   10 am
    17    9   24 1
    18   10   11 2
    19   10   12 1
    20   12   16 1
    21   12   13 2
    22   13   14 1
    23   13   25 1
    24   14   15 2
    25   14   26 1
    26   15   16 1
    27   15   27 1
    28   16   17 1
@<TRIPOS>MOLECULE
ZINC13493579
   30    31     0     0     0
SMALL
USER_CHARGES
N-[(4-fluorophenyl)methyl]-1-methyl-pyrrole-2-carboxamide
@<TRIPOS>ATOM
      1 C1          2.4182    1.2294   -0.0291 C.3       1 <0>         0.0633
      2 N1          1.0550    1.7653   -0.0069 N.pl3     1 <0>        -0.4101
      3 C2         -0.0837    1.0303   -0.0223 C.2       1 <0>         0.0180
      4 C3         -1.1469    1.8691    0.0047 C.2       1 <0>        -0.2071
      5 C4         -0.6591    3.1789    0.0469 C.2       1 <0>        -0.1391
      6 C5          0.7173    3.0990    0.0392 C.2       1 <0>        -0.0584
      7 C6          1.6516    4.2292    0.0738 C.2       1 <0>         0.5915
      8 O1          2.8479    4.0270    0.1676 O.2       1 <0>        -0.5476
      9 N2          1.1851    5.4916    0.0016 N.am      1 <0>        -0.7170
     10 C7          2.1218    6.6152   -0.0771 C.3       1 <0>         0.1661
     11 C8          1.3506    7.9080   -0.1478 C.ar      1 <0>        -0.1241
     12 C9          0.9894    8.4305   -1.3757 C.ar      1 <0>        -0.0689
     13 C10         0.2780    9.6135   -1.4416 C.ar      1 <0>        -0.1553
     14 C11        -0.0637   10.2809   -0.2777 C.ar      1 <0>         0.1093
     15 C12         0.3032    9.7595    0.9513 C.ar      1 <0>        -0.1553
     16 C13         1.0100    8.5736    1.0150 C.ar      1 <0>        -0.0689
     17 F1         -0.7550   11.4399   -0.3411 F         1 <0>        -0.1365
     18 H1          2.7338    0.9966    0.9879 H         1 <0>         0.0773
     19 H2          2.4423    0.3226   -0.6335 H         1 <0>         0.0831
     20 H3          3.0929    1.9701   -0.4583 H         1 <0>         0.1037
     21 H4         -0.1349   -0.0480   -0.0535 H         1 <0>         0.1705
     22 H5         -2.1869    1.5778   -0.0007 H         1 <0>         0.1442
     23 H6         -1.2492    4.0828    0.0795 H         1 <0>         0.1430
     24 H7          0.2292    5.6561    0.0018 H         1 <0>         0.4052
     25 H8          2.7587    6.6200    0.8075 H         1 <0>         0.0819
     26 H9          2.7396    6.5114   -0.9691 H         1 <0>         0.0806
     27 H10         1.2596    7.9118   -2.2837 H         1 <0>         0.1361
     28 H11        -0.0077   10.0193   -2.4009 H         1 <0>         0.1392
     29 H12         0.0369   10.2791    1.8599 H         1 <0>         0.1392
     30 H13         1.2960    8.1665    1.9736 H         1 <0>         0.1362
@<TRIPOS>BOND
     1    1    2 1
     2    1   18 1
     3    1   19 1
     4    1   20 1
     5    2    6 1
     6    2    3 1
     7    3    4 2
     8    3   21 1
     9    4    5 1
    10    4   22 1
    11    5    6 2
    12    5   23 1
    13    6    7 1
    14    7    8 2
    15    7    9 am
    16    9   10 1
    17    9   24 1
    18   10   11 1
    19   10   25 1
    20   10   26 1
    21   11   16 ar
    22   11   12 ar
    23   12   13 ar
    24   12   27 1
    25   13   14 ar
    26   13   28 1
    27   14   15 ar
    28   14   17 1
    29   15   16 ar
    30   15   29 1
    31   16   30 1
@<TRIPOS>MOLECULE
ZINC02011566
   28    29     0     0     0
SMALL
USER_CHARGES
5-(hydroxymethyl)-3-(m-tolyl)oxazolidin-2-one
@<TRIPOS>ATOM
      1 C1         -0.0127    1.0858    0.0080 C.3       1 <0>        -0.1175
      2 C2         -0.7181    1.5718    1.2479 C.ar      1 <0>        -0.0540
      3 C3          0.0018    1.8055    2.4054 C.ar      1 <0>        -0.1426
      4 C4         -0.6417    2.2514    3.5450 C.ar      1 <0>        -0.0864
      5 C5         -2.0063    2.4649    3.5306 C.ar      1 <0>        -0.1624
      6 C6         -2.7319    2.2313    2.3701 C.ar      1 <0>         0.1820
      7 C7         -2.0817    1.7888    1.2254 C.ar      1 <0>        -0.1551
      8 N1         -4.1146    2.4466    2.3523 N.am      1 <0>        -0.5705
      9 C8         -4.9217    2.9176    3.4883 C.3       1 <0>         0.0676
     10 C9         -6.3535    2.9765    2.9218 C.3       1 <0>         0.0709
     11 H1         -6.7385    3.9955    2.9615 H         1 <0>         0.1304
     12 O1         -6.2047    2.5373    1.5405 O.3       1 <0>        -0.3046
     13 C10        -4.9183    2.2630    1.2959 C.2       1 <0>         0.6417
     14 O2         -4.5161    1.8791    0.2154 O.2       1 <0>        -0.4974
     15 C11        -7.2740    2.0265    3.6905 C.3       1 <0>         0.0696
     16 O3         -8.6162    2.1838    3.2258 O.3       1 <0>        -0.5626
     17 H2          0.0021   -0.0041    0.0020 H         1 <0>         0.0742
     18 H3          1.0099    1.4631    0.0003 H         1 <0>         0.0697
     19 H4         -0.5399    1.4469   -0.8751 H         1 <0>         0.0700
     20 H5          1.0689    1.6396    2.4191 H         1 <0>         0.1256
     21 H6         -0.0768    2.4326    4.4475 H         1 <0>         0.1296
     22 H7         -2.5084    2.8136    4.4210 H         1 <0>         0.1252
     23 H8         -2.6426    1.6103    0.3199 H         1 <0>         0.1571
     24 H9         -4.8664    2.2109    4.3163 H         1 <0>         0.1041
     25 H10        -4.5929    3.9065    3.8077 H         1 <0>         0.1090
     26 H11        -6.9516    0.9979    3.5285 H         1 <0>         0.0602
     27 H12        -7.2285    2.2582    4.7546 H         1 <0>         0.0770
     28 H13        -9.2560    1.6109    3.6702 H         1 <0>         0.3895
@<TRIPOS>BOND
     1    1    2 1
     2    1   17 1
     3    1   18 1
     4    1   19 1
     5    2    7 ar
     6    2    3 ar
     7    3    4 ar
     8    3   20 1
     9    4    5 ar
    10    4   21 1
    11    5    6 ar
    12    5   22 1
    13    6    7 ar
    14    6    8 1
    15    7   23 1
    16    8   13 am
    17    8    9 1
    18    9   10 1
    19    9   24 1
    20    9   25 1
    21   10   11 1
    22   10   12 1
    23   10   15 1
    24   12   13 1
    25   13   14 2
    26   15   16 1
    27   15   26 1
    28   15   27 1
    29   16   28 1
@<TRIPOS>MOLECULE
ZINC05782275
   28    29     0     0     0
SMALL
USER_CHARGES
5-(hydroxymethyl)-3-(m-tolyl)oxazolidin-2-one
@<TRIPOS>ATOM
      1 C1          4.7137    7.5082    4.4765 C.3       1 <0>        -0.1176
      2 C2          4.7494    6.7712    3.1625 C.ar      1 <0>        -0.0540
      3 C3          5.8583    6.8746    2.3425 C.ar      1 <0>        -0.1426
      4 C4          5.8948    6.2003    1.1360 C.ar      1 <0>        -0.0864
      5 C5          4.8234    5.4204    0.7464 C.ar      1 <0>        -0.1625
      6 C6          3.7089    5.3142    1.5675 C.ar      1 <0>         0.1821
      7 C7          3.6728    5.9977    2.7761 C.ar      1 <0>        -0.1552
      8 N1          2.6217    4.5247    1.1757 N.am      1 <0>        -0.5712
      9 C8          2.5290    3.7568   -0.0792 C.3       1 <0>         0.0682
     10 C9          1.1449    3.0852    0.0077 C.3       1 <0>         0.0704
     11 H1          0.5084    3.4140   -0.8138 H         1 <0>         0.1300
     12 O1          0.6081    3.5403    1.2835 O.3       1 <0>        -0.3040
     13 C10         1.4957    4.3445    1.8794 C.2       1 <0>         0.6418
     14 O2          1.2991    4.8635    2.9604 O.2       1 <0>        -0.4975
     15 C11         1.2864    1.5618   -0.0018 C.3       1 <0>         0.0695
     16 O3         -0.0110    0.9628    0.0073 O.3       1 <0>        -0.5622
     17 H2          4.2838    8.4985    4.3261 H         1 <0>         0.0743
     18 H3          4.1041    6.9519    5.1887 H         1 <0>         0.0699
     19 H4          5.7272    7.6073    4.8653 H         1 <0>         0.0696
     20 H5          6.6974    7.4835    2.6451 H         1 <0>         0.1255
     21 H6          6.7620    6.2833    0.4977 H         1 <0>         0.1296
     22 H7          4.8528    4.8934   -0.1959 H         1 <0>         0.1251
     23 H8          2.8053    5.9209    3.4148 H         1 <0>         0.1570
     24 H9          3.3169    3.0051   -0.1281 H         1 <0>         0.1046
     25 H10         2.5786    4.4215   -0.9416 H         1 <0>         0.1094
     26 H11         1.8401    1.2428    0.8812 H         1 <0>         0.0598
     27 H12         1.8231    1.2523   -0.8987 H         1 <0>         0.0770
     28 H13         0.0021   -0.0041    0.0020 H         1 <0>         0.3894
@<TRIPOS>BOND
     1    1    2 1
     2    1   17 1
     3    1   18 1
     4    1   19 1
     5    2    7 ar
     6    2    3 ar
     7    3    4 ar
     8    3   20 1
     9    4    5 ar
    10    4   21 1
    11    5    6 ar
    12    5   22 1
    13    6    7 ar
    14    6    8 1
    15    7   23 1
    16    8   13 am
    17    8    9 1
    18    9   10 1
    19    9   24 1
    20    9   25 1
    21   10   11 1
    22   10   12 1
    23   10   15 1
    24   12   13 1
    25   13   14 2
    26   15   16 1
    27   15   26 1
    28   15   27 1
    29   16   28 1
@<TRIPOS>MOLECULE
ZINC13493583
   23    23     0     0     0
SMALL
USER_CHARGES

@<TRIPOS>ATOM
      1 C1         -0.0178    1.4648    0.0101 C.3       1 <0>         0.0197
      2 N1          0.0021   -0.0041    0.0020 N.3       1 <0>        -0.5347
      3 C2          0.7062   -0.5275    1.1802 C.3       1 <0>         0.1626
      4 C3         -0.0553   -0.1943    2.3951 C.1       1 <0>        -0.1866
      5 C4         -0.6627    0.0715    3.3640 C.1       1 <0>        -0.1893
      6 C5          0.5996   -0.5156   -1.2387 C.3       1 <0>         0.1244
      7 C6         -0.2863   -0.1627   -2.4056 C.2       1 <0>         0.0152
      8 C7         -1.2337   -0.9550   -2.9469 C.2       1 <0>        -0.1737
      9 C8         -1.8220   -0.2426   -4.0106 C.2       1 <0>        -0.2019
     10 C9         -1.2116    0.9579   -4.0788 C.2       1 <0>        -0.0111
     11 N2         -0.2721    1.0151   -3.0924 N.pl3     1 <0>        -0.5592
     12 H1          0.3117    1.7681   -2.9109 H         1 <0>         0.4098
     13 H2          1.0047    1.8421    0.0024 H         1 <0>         0.0271
     14 H3         -0.5450    1.8259   -0.8730 H         1 <0>         0.0688
     15 H4         -0.5280    1.8163    0.9069 H         1 <0>         0.0725
     16 H5          0.8004   -1.6101    1.0960 H         1 <0>         0.1011
     17 H6          1.6983   -0.0800    1.2392 H         1 <0>         0.0594
     18 H7         -1.2059    0.3092    4.2306 H         1 <0>         0.2183
     19 H8          1.5829   -0.0671   -1.3803 H         1 <0>         0.0430
     20 H9          0.7003   -1.5990   -1.1736 H         1 <0>         0.1009
     21 H10        -1.4936   -1.9525   -2.6246 H         1 <0>         0.1351
     22 H11        -2.6157   -0.5936   -4.6535 H         1 <0>         0.1354
     23 H12        -1.4319    1.7408   -4.7894 H         1 <0>         0.1632
@<TRIPOS>BOND
     1    1    2 1
     2    1   13 1
     3    1   14 1
     4    1   15 1
     5    2    3 1
     6    2    6 1
     7    3    4 1
     8    3   16 1
     9    3   17 1
    10    4    5 3
    11    5   18 1
    12    6    7 1
    13    6   19 1
    14    6   20 1
    15    7   11 1
    16    7    8 2
    17    8    9 1
    18    8   21 1
    19    9   10 2
    20    9   22 1
    21   10   11 1
    22   10   23 1
    23   11   12 1
@<TRIPOS>MOLECULE
ZINC14959102
   20    20     0     0     0
SMALL
USER_CHARGES

@<TRIPOS>ATOM
      1 C1          0.0180   -1.1779   -0.0044 C.1       1 <0>        -0.1851
      2 C2          0.0021   -0.0041    0.0020 C.1       1 <0>        -0.1947
      3 C3         -0.0179    1.4678    0.0101 C.3       1 <0>         0.1669
      4 N1          1.3603    1.9762   -0.0003 N.3       1 <0>        -0.6870
      5 C4          1.3795    3.4451    0.0074 C.3       1 <0>         0.1260
      6 C5          2.8068    3.9288   -0.0036 C.2       1 <0>         0.0137
      7 C6          3.5372    4.2614    1.0801 C.2       1 <0>        -0.1908
      8 C7          4.8102    4.6581    0.6251 C.2       1 <0>        -0.2027
      9 C8          4.8092    4.5529   -0.7193 C.2       1 <0>        -0.0096
     10 N2          3.5841    4.1001   -1.1106 N.pl3     1 <0>        -0.5473
     11 H1          3.3100    3.9304   -2.0254 H         1 <0>         0.4145
     12 H2          0.0322   -2.2278   -0.0102 H         1 <0>         0.2190
     13 H3         -0.5451    1.8289   -0.8729 H         1 <0>         0.0959
     14 H4         -0.5281    1.8193    0.9069 H         1 <0>         0.0578
     15 H5          1.8890    1.6036    0.7740 H         1 <0>         0.3512
     16 H6          0.8620    3.8199   -0.8757 H         1 <0>         0.0814
     17 H7          0.8790    3.8103    0.9042 H         1 <0>         0.0584
     18 H8          3.2069    4.2297    2.1078 H         1 <0>         0.1329
     19 H9          5.6351    4.9865    1.2400 H         1 <0>         0.1354
     20 H10         5.6374    4.7834   -1.3730 H         1 <0>         0.1642
@<TRIPOS>BOND
     1    1    2 3
     2    1   12 1
     3    2    3 1
     4    3    4 1
     5    3   13 1
     6    3   14 1
     7    4    5 1
     8    4   15 1
     9    5    6 1
    10    5   16 1
    11    5   17 1
    12    6   10 1
    13    6    7 2
    14    7    8 1
    15    7   18 1
    16    8    9 2
    17    8   19 1
    18    9   10 1
    19    9   20 1
    20   10   11 1
@<TRIPOS>MOLECULE
ZINC14959061
   33    34     0     0     0
SMALL
USER_CHARGES
N-methyl-N-[(1R)-1-phenylethyl]-1H-pyrrole-2-carboxamide
@<TRIPOS>ATOM
      1 C1          0.4262    1.7659   -0.5790 C.3       1 <0>        -0.1587
      2 C2          0.2319    0.2715   -0.3146 C.3       1 <0>         0.1774
      3 H1         -0.8183    0.0741   -0.0994 H         1 <0>         0.1128
      4 C3          1.0730   -0.1435    0.8650 C.ar      1 <0>        -0.0984
      5 C4          0.4658   -0.5869    2.0250 C.ar      1 <0>        -0.1041
      6 C5          1.2375   -0.9717    3.1054 C.ar      1 <0>        -0.1169
      7 C6          2.6161   -0.9044    3.0291 C.ar      1 <0>        -0.1173
      8 C7          3.2231   -0.4561    1.8709 C.ar      1 <0>        -0.1206
      9 C8          2.4516   -0.0754    0.7889 C.ar      1 <0>        -0.1169
     10 N1          0.6396   -0.4908   -1.4974 N.am      1 <0>        -0.6095
     11 C9          1.9688   -0.2862   -2.0783 C.3       1 <0>         0.0520
     12 C10        -0.2082   -1.3803   -2.0511 C.2       1 <0>         0.5933
     13 O1         -1.3459   -1.4795   -1.6307 O.2       1 <0>        -0.5246
     14 C11         0.2404   -2.2286   -3.1604 C.2       1 <0>        -0.0602
     15 C12        -0.5459   -3.0862   -3.9001 C.2       1 <0>        -0.1022
     16 C13         0.2845   -3.6882   -4.8505 C.2       1 <0>        -0.2104
     17 C14         1.5377   -3.2058   -4.6726 C.2       1 <0>         0.0197
     18 N2          1.5243   -2.3180   -3.6486 N.pl3     1 <0>        -0.5479
     19 H2          2.2917   -1.8270   -3.3155 H         1 <0>         0.4191
     20 H3          1.4763    1.9632   -0.7943 H         1 <0>         0.0612
     21 H4         -0.1822    2.0660   -1.4322 H         1 <0>         0.0665
     22 H5          0.1228    2.3330    0.3010 H         1 <0>         0.0750
     23 H6         -0.6113   -0.6359    2.0859 H         1 <0>         0.1248
     24 H7          0.7633   -1.3223    4.0102 H         1 <0>         0.1246
     25 H8          3.2189   -1.2025    3.8741 H         1 <0>         0.1228
     26 H9          4.3002   -0.4035    1.8112 H         1 <0>         0.1225
     27 H10         2.9259    0.2749   -0.1160 H         1 <0>         0.1222
     28 H11         2.6561   -1.0358   -1.6860 H         1 <0>         0.0620
     29 H12         1.9097   -0.3796   -3.1627 H         1 <0>         0.0761
     30 H13         2.3297    0.7089   -1.8184 H         1 <0>         0.0911
     31 H14        -1.6042   -3.2588   -3.7711 H         1 <0>         0.1481
     32 H15        -0.0185   -4.4130   -5.5916 H         1 <0>         0.1446
     33 H16         2.4058   -3.4837   -5.2517 H         1 <0>         0.1720
@<TRIPOS>BOND
     1    1    2 1
     2    1   20 1
     3    1   21 1
     4    1   22 1
     5    2    3 1
     6    2    4 1
     7    2   10 1
     8    4    9 ar
     9    4    5 ar
    10    5    6 ar
    11    5   23 1
    12    6    7 ar
    13    6   24 1
    14    7    8 ar
    15    7   25 1
    16    8    9 ar
    17    8   26 1
    18    9   27 1
    19   10   11 1
    20   10   12 am
    21   11   28 1
    22   11   29 1
    23   11   30 1
    24   12   13 2
    25   12   14 1
    26   14   18 1
    27   14   15 2
    28   15   16 1
    29   15   31 1
    30   16   17 2
    31   16   32 1
    32   17   18 1
    33   17   33 1
    34   18   19 1
@<TRIPOS>MOLECULE
ZINC14959065
   33    34     0     0     0
SMALL
USER_CHARGES
N-methyl-N-[(1S)-1-phenylethyl]-1H-pyrrole-2-carboxamide
@<TRIPOS>ATOM
      1 C1         -3.9663   -0.9455    1.9167 C.3       1 <0>        -0.1590
      2 C2         -3.5922   -1.2656    0.4681 C.3       1 <0>         0.1774
      3 H1         -3.2950   -2.3115    0.3922 H         1 <0>         0.1126
      4 C3         -4.7802   -1.0149   -0.4246 C.ar      1 <0>        -0.0984
      5 C4         -5.3059    0.2589   -0.5342 C.ar      1 <0>        -0.1160
      6 C5         -6.3929    0.4897   -1.3564 C.ar      1 <0>        -0.1208
      7 C6         -6.9602   -0.5552   -2.0617 C.ar      1 <0>        -0.1171
      8 C7         -6.4375   -1.8299   -1.9484 C.ar      1 <0>        -0.1172
      9 C8         -5.3478   -2.0598   -1.1295 C.ar      1 <0>        -0.1033
     10 N1         -2.4787   -0.4099    0.0509 N.am      1 <0>        -0.6083
     11 C9         -2.5800    1.0448    0.1917 C.3       1 <0>         0.0505
     12 C10        -1.3610   -0.9610   -0.4626 C.2       1 <0>         0.5926
     13 O1         -1.2811   -2.1686   -0.5896 O.2       1 <0>        -0.5247
     14 C11        -0.2410   -0.1051   -0.8682 C.2       1 <0>        -0.0595
     15 C12         1.0257   -0.5284   -1.2104 C.2       1 <0>        -0.1028
     16 C13         1.7685    0.6130   -1.5280 C.2       1 <0>        -0.2101
     17 C14         0.9605    1.6897   -1.3776 C.2       1 <0>         0.0189
     18 N2         -0.2633    1.2669   -0.9771 N.pl3     1 <0>        -0.5482
     19 H2         -1.0287    1.8360   -0.8005 H         1 <0>         0.4197
     20 H3         -3.1071   -1.1268    2.5624 H         1 <0>         0.0662
     21 H4         -4.2636    0.1004    1.9927 H         1 <0>         0.0613
     22 H5         -4.7948   -1.5822    2.2272 H         1 <0>         0.0752
     23 H6         -4.8652    1.0745    0.0200 H         1 <0>         0.1217
     24 H7         -6.8010    1.4856   -1.4452 H         1 <0>         0.1225
     25 H8         -7.8115   -0.3755   -2.7015 H         1 <0>         0.1228
     26 H9         -6.8807   -2.6462   -2.4994 H         1 <0>         0.1245
     27 H10        -4.9397   -3.0558   -1.0407 H         1 <0>         0.1248
     28 H11        -2.8983    1.4803   -0.7555 H         1 <0>         0.0627
     29 H12        -3.3094    1.2850    0.9654 H         1 <0>         0.0907
     30 H13        -1.6078    1.4515    0.4701 H         1 <0>         0.0769
     31 H14         1.3778   -1.5492   -1.2300 H         1 <0>         0.1480
     32 H15         2.8028    0.6326   -1.8381 H         1 <0>         0.1446
     33 H16         1.2450    2.7174   -1.5490 H         1 <0>         0.1720
@<TRIPOS>BOND
     1    1    2 1
     2    1   20 1
     3    1   21 1
     4    1   22 1
     5    2    3 1
     6    2    4 1
     7    2   10 1
     8    4    9 ar
     9    4    5 ar
    10    5    6 ar
    11    5   23 1
    12    6    7 ar
    13    6   24 1
    14    7    8 ar
    15    7   25 1
    16    8    9 ar
    17    8   26 1
    18    9   27 1
    19   10   11 1
    20   10   12 am
    21   11   28 1
    22   11   29 1
    23   11   30 1
    24   12   13 2
    25   12   14 1
    26   14   18 1
    27   14   15 2
    28   15   16 1
    29   15   31 1
    30   16   17 2
    31   16   32 1
    32   17   18 1
    33   17   33 1
    34   18   19 1
@<TRIPOS>MOLECULE
ZINC14959030
   33    34     0     0     0
SMALL
USER_CHARGES
N-(3-phenylpropyl)-1H-pyrrole-2-carboxamide
@<TRIPOS>ATOM
      1 C1         -0.0559    4.2672    0.0251 C.ar      1 <0>        -0.1238
      2 C2          1.1505    3.5924    0.0100 C.ar      1 <0>        -0.1181
      3 C3          1.1693    2.2102    0.0028 C.ar      1 <0>        -0.1175
      4 C4         -0.0184    1.5028    0.0103 C.ar      1 <0>        -0.0841
      5 C5         -1.2248    2.1776    0.0197 C.ar      1 <0>        -0.1174
      6 C6         -1.2435    3.5598    0.0322 C.ar      1 <0>        -0.1181
      7 C7          0.0021   -0.0041    0.0020 C.3       1 <0>        -0.0780
      8 C8          0.0228   -0.5218    1.4416 C.3       1 <0>        -0.1253
      9 C9          0.0435   -2.0516    1.4332 C.3       1 <0>         0.1187
     10 N1          0.0633   -2.5473    2.8117 N.am      1 <0>        -0.7342
     11 C10         0.0836   -3.8735    3.0506 C.2       1 <0>         0.5894
     12 O1          0.0855   -4.6593    2.1214 O.2       1 <0>        -0.5260
     13 C11         0.1035   -4.3698    4.4308 C.2       1 <0>        -0.0634
     14 C12         0.1192   -5.6920    4.8211 C.2       1 <0>        -0.1022
     15 C13         0.1387   -5.7074    6.2193 C.2       1 <0>        -0.2113
     16 C14         0.1252   -4.4229    6.6491 C.2       1 <0>         0.0256
     17 N2          0.1038   -3.6004    5.5721 N.pl3     1 <0>        -0.5421
     18 H1          0.0912   -2.6309    5.6009 H         1 <0>         0.4149
     19 H2         -0.0705    5.3471    0.0311 H         1 <0>         0.1216
     20 H3          2.0784    4.1450    0.0041 H         1 <0>         0.1221
     21 H4          2.1118    1.6830   -0.0091 H         1 <0>         0.1214
     22 H5         -2.1527    1.6249    0.0211 H         1 <0>         0.1214
     23 H6         -2.1860    4.0870    0.0437 H         1 <0>         0.1221
     24 H7         -0.8878   -0.3767   -0.5053 H         1 <0>         0.0778
     25 H8          0.8920   -0.3525   -0.5222 H         1 <0>         0.0778
     26 H9          0.9126   -0.1491    1.9490 H         1 <0>         0.0712
     27 H10        -0.8671   -0.1733    1.9659 H         1 <0>         0.0712
     28 H11        -0.8463   -2.4242    0.9258 H         1 <0>         0.0723
     29 H12         0.9334   -2.4000    0.9090 H         1 <0>         0.0723
     30 H13         0.0618   -1.9210    3.5524 H         1 <0>         0.3941
     31 H14         0.1192   -6.5535    4.1698 H         1 <0>         0.1488
     32 H15         0.1566   -6.5872    6.8453 H         1 <0>         0.1458
     33 H16         0.1304   -4.1060    7.6816 H         1 <0>         0.1728
@<TRIPOS>BOND
     1    1    6 ar
     2    1    2 ar
     3    1   19 1
     4    2    3 ar
     5    2   20 1
     6    3    4 ar
     7    3   21 1
     8    4    5 ar
     9    4    7 1
    10    5    6 ar
    11    5   22 1
    12    6   23 1
    13    7    8 1
    14    7   24 1
    15    7   25 1
    16    8    9 1
    17    8   26 1
    18    8   27 1
    19    9   10 1
    20    9   28 1
    21    9   29 1
    22   10   11 am
    23   10   30 1
    24   11   12 2
    25   11   13 1
    26   13   17 1
    27   13   14 2
    28   14   15 1
    29   14   31 1
    30   15   16 2
    31   15   32 1
    32   16   17 1
    33   16   33 1
    34   17   18 1
@<TRIPOS>MOLECULE
ZINC14959026
   33    34     0     0     0
SMALL
USER_CHARGES
N-methyl-N-phenethyl-1H-pyrrole-2-carboxamide
@<TRIPOS>ATOM
      1 C1         -1.5753    0.6206   -1.9132 C.3       1 <0>         0.0565
      2 N1         -0.6522    1.5204   -1.2171 N.am      1 <0>        -0.6192
      3 C2          0.0087    1.0820    0.0147 C.3       1 <0>         0.1231
      4 C3         -0.8582    1.4548    1.2190 C.3       1 <0>        -0.0950
      5 C4         -0.1783    1.0038    2.4861 C.ar      1 <0>        -0.0836
      6 C5         -0.4300   -0.2567    2.9946 C.ar      1 <0>        -0.1173
      7 C6          0.1973   -0.6721    4.1542 C.ar      1 <0>        -0.1192
      8 C7          1.0687    0.1767    4.8108 C.ar      1 <0>        -0.1223
      9 C8          1.3160    1.4394    4.3054 C.ar      1 <0>        -0.1172
     10 C9          0.6927    1.8529    3.1429 C.ar      1 <0>        -0.1123
     11 C10        -0.4111    2.7514   -1.7099 C.2       1 <0>         0.5899
     12 O1          0.3557    3.4988   -1.1317 O.2       1 <0>        -0.5224
     13 C11        -1.0728    3.1903   -2.9431 C.2       1 <0>        -0.0612
     14 C12        -0.7871    4.3336   -3.6588 C.2       1 <0>        -0.1027
     15 C13        -1.6502    4.3561   -4.7588 C.2       1 <0>        -0.2104
     16 C14        -2.4370    3.2555   -4.6922 C.2       1 <0>         0.0190
     17 N2         -2.0962    2.5388   -3.5935 N.pl3     1 <0>        -0.5489
     18 H1         -2.5052    1.7054   -3.3125 H         1 <0>         0.4199
     19 H2         -2.5987    0.8479   -1.6146 H         1 <0>         0.0619
     20 H3         -1.4723    0.7563   -2.9898 H         1 <0>         0.0762
     21 H4         -1.3417   -0.4118   -1.6532 H         1 <0>         0.0878
     22 H5          0.1476    0.0012   -0.0124 H         1 <0>         0.0811
     23 H6          0.9790    1.5711    0.1002 H         1 <0>         0.0900
     24 H7         -0.9972    2.5355    1.2461 H         1 <0>         0.0781
     25 H8         -1.8286    0.9657    1.1335 H         1 <0>         0.0726
     26 H9         -1.1139   -0.9184    2.4838 H         1 <0>         0.1201
     27 H10         0.0038   -1.6585    4.5493 H         1 <0>         0.1220
     28 H11         1.5559   -0.1464    5.7189 H         1 <0>         0.1218
     29 H12         1.9965    2.1027    4.8186 H         1 <0>         0.1230
     30 H13         0.8859    2.8393    2.7481 H         1 <0>         0.1239
     31 H14        -0.0364    5.0713   -3.4169 H         1 <0>         0.1480
     32 H15        -1.6862    5.1181   -5.5233 H         1 <0>         0.1447
     33 H16        -3.2100    2.9923   -5.3991 H         1 <0>         0.1722
@<TRIPOS>BOND
     1    1    2 1
     2    1   19 1
     3    1   20 1
     4    1   21 1
     5    2    3 1
     6    2   11 am
     7    3    4 1
     8    3   22 1
     9    3   23 1
    10    4    5 1
    11    4   24 1
    12    4   25 1
    13    5   10 ar
    14    5    6 ar
    15    6    7 ar
    16    6   26 1
    17    7    8 ar
    18    7   27 1
    19    8    9 ar
    20    8   28 1
    21    9   10 ar
    22    9   29 1
    23   10   30 1
    24   11   12 2
    25   11   13 1
    26   13   17 1
    27   13   14 2
    28   14   15 1
    29   14   31 1
    30   15   16 2
    31   15   32 1
    32   16   17 1
    33   16   33 1
    34   17   18 1
@<TRIPOS>MOLECULE
ZINC14959045
   32    33     0     0     0
SMALL
USER_CHARGES
2-phenyl-N-(1H-pyrrol-2-ylmethyl)ethanamine
@<TRIPOS>ATOM
      1 C1         -3.0787    5.0347   -4.3534 C.ar      1 <0>        -0.1037
      2 C2         -3.6964    4.7720   -3.1449 C.ar      1 <0>        -0.1144
      3 C3         -2.9588    4.2804   -2.0842 C.ar      1 <0>        -0.1105
      4 C4         -1.6035    4.0518   -2.2317 C.ar      1 <0>        -0.1102
      5 C5         -0.9847    4.3199   -3.4385 C.ar      1 <0>        -0.1096
      6 C6         -1.7233    4.8066   -4.5008 C.ar      1 <0>        -0.1140
      7 C7         -0.7993    3.5163   -1.0752 C.3       1 <0>        -0.1003
      8 C8         -0.8017    1.9868   -1.1173 C.3       1 <0>        -0.0030
      9 C9          0.0021   -0.0041    0.0020 C.3       1 <0>         0.0840
     10 C10         0.8136   -0.5019    1.1702 C.2       1 <0>        -0.0885
     11 C11         2.1179   -0.8429    1.1387 C.2       1 <0>        -0.1301
     12 C12         2.4791   -1.2491    2.4385 C.2       1 <0>        -0.2019
     13 C13         1.3797   -1.1489    3.2129 C.2       1 <0>         0.0407
     14 N1          0.3542   -0.6908    2.4399 N.pl3     1 <0>        -0.5537
     15 H1         -0.5523   -0.5261    2.7433 H         1 <0>         0.4192
     16 H2         -3.6550    5.4185   -5.1822 H         1 <0>         0.1300
     17 H3         -4.7552    4.9506   -3.0296 H         1 <0>         0.1295
     18 H4         -3.4414    4.0751   -1.1400 H         1 <0>         0.1235
     19 H5          0.0750    4.1455   -3.5524 H         1 <0>         0.1248
     20 H6         -1.2406    5.0122   -5.4448 H         1 <0>         0.1299
     21 H7         -1.2411    3.8547   -0.1379 H         1 <0>         0.0940
     22 H8          0.2257    3.8801   -1.1460 H         1 <0>         0.0960
     23 H9         -0.3600    1.6485   -2.0545 H         1 <0>         0.1345
     24 H10        -1.8268    1.6230   -1.0465 H         1 <0>         0.1316
     25 H11        -1.0174   -0.3817    0.0806 H         1 <0>         0.1329
     26 H12         0.4494   -0.3563   -0.9275 H         1 <0>         0.1496
     27 H13         2.7669   -0.8085    0.2761 H         1 <0>         0.1483
     28 H14         3.4559   -1.5836    2.7554 H         1 <0>         0.1505
     29 H15         1.3214   -1.3905    4.2639 H         1 <0>         0.1795
     30 N2         -0.0129    1.4709    0.0174 N.4       1 <0>        -0.5214
     31 H16        -0.4316    1.7962    0.8967 H         1 <0>         0.4277
     32 H17         0.9501    1.8201   -0.0529 H         1 <0>         0.4350
@<TRIPOS>BOND
     1    1    6 ar
     2    1    2 ar
     3    1   16 1
     4    2    3 ar
     5    2   17 1
     6    3    4 ar
     7    3   18 1
     8    4    5 ar
     9    4    7 1
    10    5    6 ar
    11    5   19 1
    12    6   20 1
    13    7    8 1
    14    7   21 1
    15    7   22 1
    16    8   23 1
    17    8   24 1
    18    8   30 1
    19    9   10 1
    20    9   25 1
    21    9   26 1
    22    9   30 1
    23   10   14 1
    24   10   11 2
    25   11   12 1
    26   11   27 1
    27   12   13 2
    28   12   28 1
    29   13   14 1
    30   13   29 1
    31   14   15 1
    32   30   31 1
    33   30   32 1
@<TRIPOS>MOLECULE
ZINC02868930
   32    33     0     0     0
SMALL
USER_CHARGES
N-benzyl-1-(1-methylpyrrol-2-yl)-methanamine
@<TRIPOS>ATOM
      1 C1         -1.1068   -2.3681   -2.4859 C.3       1 <0>         0.0553
      2 N1         -1.1890   -2.8439   -1.1027 N.pl3     1 <0>        -0.4438
      3 C2         -1.1620   -4.1489   -0.7087 C.2       1 <0>         0.0359
      4 C3         -1.2662   -4.1857    0.6353 C.2       1 <0>        -0.1999
      5 C4         -1.3548   -2.8545    1.0880 C.2       1 <0>        -0.1323
      6 C5         -1.3014   -2.0549    0.0034 C.2       1 <0>        -0.0878
      7 C6         -1.3620   -0.5491    0.0121 C.3       1 <0>         0.0828
      8 C7         -0.0178    1.4648    0.0101 C.3       1 <0>         0.0493
      9 C8          1.3960    1.9864   -0.0006 C.ar      1 <0>        -0.1686
     10 C9          2.0538    2.2246    1.1916 C.ar      1 <0>        -0.0919
     11 C10         3.3526    2.6980    1.1818 C.ar      1 <0>        -0.1142
     12 C11         3.9896    2.9437   -0.0202 C.ar      1 <0>        -0.0823
     13 C12         3.3297    2.7109   -1.2124 C.ar      1 <0>        -0.1150
     14 C13         2.0330    2.2321   -1.2026 C.ar      1 <0>        -0.0943
     15 H1         -0.0623   -2.2092   -2.7540 H         1 <0>         0.0796
     16 H2         -1.5440   -3.1114   -3.1525 H         1 <0>         0.0999
     17 H3         -1.6529   -1.4295   -2.5803 H         1 <0>         0.0843
     18 H4         -1.0770   -5.0056   -1.3608 H         1 <0>         0.1764
     19 H5         -1.2796   -5.0727    1.2513 H         1 <0>         0.1505
     20 H6         -1.4480   -2.5334    2.1150 H         1 <0>         0.1482
     21 H7         -1.8815   -0.2116    0.9089 H         1 <0>         0.1501
     22 H8         -1.8985   -0.2020   -0.8709 H         1 <0>         0.1312
     23 H9         -0.5450    1.8259   -0.8730 H         1 <0>         0.1357
     24 H10        -0.5280    1.8163    0.9069 H         1 <0>         0.1393
     25 H11         1.5546    2.0368    2.1307 H         1 <0>         0.1325
     26 H12         3.8682    2.8796    2.1132 H         1 <0>         0.1368
     27 H13         5.0029    3.3171   -0.0279 H         1 <0>         0.1363
     28 H14         3.8274    2.9029   -2.1515 H         1 <0>         0.1360
     29 H15         1.5174    2.0502   -2.1340 H         1 <0>         0.1300
     30 N2          0.0110   -0.0100    0.0019 N.4       1 <0>        -0.5198
     31 H16         0.4960   -0.3346   -0.8429 H         1 <0>         0.4255
     32 H17         0.5120   -0.3437    0.8337 H         1 <0>         0.4341
@<TRIPOS>BOND
     1    1    2 1
     2    1   15 1
     3    1   16 1
     4    1   17 1
     5    2    6 1
     6    2    3 1
     7    3    4 2
     8    3   18 1
     9    4    5 1
    10    4   19 1
    11    5    6 2
    12    5   20 1
    13    6    7 1
    14    7   21 1
    15    7   22 1
    16    7   30 1
    17    8    9 1
    18    8   23 1
    19    8   24 1
    20    8   30 1
    21    9   14 ar
    22    9   10 ar
    23   10   11 ar
    24   10   25 1
    25   11   12 ar
    26   11   26 1
    27   12   13 ar
    28   12   27 1
    29   13   14 ar
    30   13   28 1
    31   14   29 1
    32   30   31 1
    33   30   32 1
@<TRIPOS>MOLECULE
ZINC01679613
   29    30     0     0     0
SMALL
USER_CHARGES
1-phenyl-N-(1H-pyrrol-2-ylmethyl)methanamine
@<TRIPOS>ATOM
      1 C1         -0.0167    1.3781    0.0096 C.ar      1 <0>        -0.0823
      2 C2          1.1709    2.0855    0.0021 C.ar      1 <0>        -0.1149
      3 C3          2.3773    1.4107   -0.0141 C.ar      1 <0>        -0.0943
      4 C4          2.3960    0.0285   -0.0212 C.ar      1 <0>        -0.1687
      5 C5          1.2084   -0.6789   -0.0136 C.ar      1 <0>        -0.0923
      6 C6          0.0021   -0.0041    0.0020 C.ar      1 <0>        -0.1142
      7 C7          3.7112   -0.7071   -0.0378 C.3       1 <0>         0.0494
      8 C8          5.4064   -1.6554   -1.4834 C.3       1 <0>         0.0826
      9 C9          5.7978   -1.8743   -2.9221 C.2       1 <0>        -0.0876
     10 C10         5.5563   -2.9856   -3.6468 C.2       1 <0>        -0.1305
     11 C11         6.0836   -2.7715   -4.9356 C.2       1 <0>        -0.2019
     12 C12         6.6347   -1.5408   -4.9469 C.2       1 <0>         0.0402
     13 N1          6.4623   -0.9852   -3.7138 N.pl3     1 <0>        -0.5535
     14 H1          6.7626   -0.1031   -3.4444 H         1 <0>         0.4191
     15 H2         -0.9592    1.9054    0.0170 H         1 <0>         0.1363
     16 H3          1.1563    3.1654    0.0081 H         1 <0>         0.1360
     17 H4          3.3051    1.9634   -0.0204 H         1 <0>         0.1302
     18 H5          1.2231   -1.7588   -0.0196 H         1 <0>         0.1324
     19 H6         -0.9258   -0.5567    0.0079 H         1 <0>         0.1368
     20 H7          4.4677   -0.1105    0.4720 H         1 <0>         0.1361
     21 H8          3.5987   -1.6640    0.4720 H         1 <0>         0.1391
     22 H9          6.1746   -1.0653   -0.9836 H         1 <0>         0.1333
     23 H10         5.3056   -2.6188   -0.9836 H         1 <0>         0.1500
     24 H11         5.0496   -3.8753   -3.3031 H         1 <0>         0.1483
     25 H12         6.0555   -3.4670   -5.7614 H         1 <0>         0.1504
     26 H13         7.1280   -1.0757   -5.7876 H         1 <0>         0.1793
     27 N2          4.1196   -0.9356   -1.4367 N.4       1 <0>        -0.5200
     28 H14         4.2200   -0.0311   -1.9122 H         1 <0>         0.4267
     29 H15         3.4015   -1.4944   -1.9122 H         1 <0>         0.4339
@<TRIPOS>BOND
     1    1    6 ar
     2    1    2 ar
     3    1   15 1
     4    2    3 ar
     5    2   16 1
     6    3    4 ar
     7    3   17 1
     8    4    5 ar
     9    4    7 1
    10    5    6 ar
    11    5   18 1
    12    6   19 1
    13    7   20 1
    14    7   21 1
    15    7   27 1
    16    8    9 1
    17    8   22 1
    18    8   23 1
    19    8   27 1
    20    9   13 1
    21    9   10 2
    22   10   11 1
    23   10   24 1
    24   11   12 2
    25   11   25 1
    26   12   13 1
    27   12   26 1
    28   13   14 1
    29   27   28 1
    30   27   29 1
@<TRIPOS>MOLECULE
ZINC01414085
   38    40     0     0     0
SMALL
USER_CHARGES
5-(4-chlorophenyl)-N,N-bis[5-(4-chlorophenyl)-3-(p-tolyl)-4,5-dihydropyrazol-2-yl]-3-(p-tolyl)-4,5-dihydropyrazole-1-carbothioamide
@<TRIPOS>ATOM
      1 C1          2.4893    1.0412   -0.0161 C.3       1 <0>        -0.1229
      2 C2          1.1772    1.7823    0.0004 C.ar      1 <0>        -0.0584
      3 C3         -0.0126    1.0758    0.0080 C.ar      1 <0>        -0.1232
      4 C4         -1.2173    1.7475    0.0173 C.ar      1 <0>        -0.0768
      5 C5         -1.2342    3.1443    0.0303 C.ar      1 <0>        -0.0546
      6 C6         -0.0292    3.8508    0.0221 C.ar      1 <0>        -0.0704
      7 C7          1.1680    3.1659    0.0075 C.ar      1 <0>        -0.1252
      8 C8         -2.5183    3.8695    0.0459 C.2       1 <0>         0.1759
      9 N1         -2.6480    5.1510    0.0527 N.2       1 <0>        -0.2754
     10 N2         -3.9705    5.5894    0.0675 N.pl3     1 <0>        -0.4331
     11 C9         -4.8602    4.4172    0.0711 C.3       1 <0>         0.1672
     12 H1         -5.4714    4.4023    0.9735 H         1 <0>         0.1201
     13 C10        -3.8852    3.2233    0.0499 C.3       1 <0>        -0.1330
     14 C11        -5.7294    4.4073   -1.1600 C.ar      1 <0>        -0.0754
     15 C12        -5.2089    4.8079   -2.3764 C.ar      1 <0>        -0.0901
     16 C13        -6.0040    4.7936   -3.5069 C.ar      1 <0>        -0.1057
     17 C14        -7.3241    4.3890   -3.4188 C.ar      1 <0>        -0.0263
     18 C15        -7.8460    3.9936   -2.2000 C.ar      1 <0>        -0.1043
     19 C16        -7.0483    4.0030   -1.0713 C.ar      1 <0>        -0.0717
     20 Cl1        -8.3251    4.3770   -4.8371 Cl        1 <0>        -0.0688
     21 C17        -4.3697    6.8766    0.0773 C.2       1 <0>         0.6034
     22 S1         -6.0393    7.2550    0.0958 S.2       1 <0>        -0.5974
     23 N3         -3.4546    7.8660    0.0726 N.pl3     1 <0>        -0.7901
     24 H2          2.7958    0.8680   -1.0477 H         1 <0>         0.0766
     25 H3          3.2482    1.6347    0.4937 H         1 <0>         0.0705
     26 H4          2.3728    0.0848    0.4937 H         1 <0>         0.0711
     27 H5          0.0021   -0.0041    0.0020 H         1 <0>         0.1318
     28 H6         -2.1452    1.1949    0.0184 H         1 <0>         0.1318
     29 H7         -0.0350    4.9308    0.0276 H         1 <0>         0.1314
     30 H8          2.1003    3.7109    0.0011 H         1 <0>         0.1299
     31 H9         -4.0284    2.6260   -0.8506 H         1 <0>         0.1174
     32 H10        -4.0156    2.6100    0.9415 H         1 <0>         0.1184
     33 H11        -4.1796    5.1278   -2.4443 H         1 <0>         0.1161
     34 H12        -5.5960    5.1024   -4.4581 H         1 <0>         0.1315
     35 H13        -8.8763    3.6774   -2.1307 H         1 <0>         0.1362
     36 H14        -7.4555    3.6940   -0.1199 H         1 <0>         0.1349
     37 H15        -2.5086    7.6517    0.0621 H         1 <0>         0.4059
     38 H16        -3.7419    8.7925    0.0797 H         1 <0>         0.4329
@<TRIPOS>BOND
     1    1    2 1
     2    1   24 1
     3    1   25 1
     4    1   26 1
     5    2    7 ar
     6    2    3 ar
     7    3    4 ar
     8    3   27 1
     9    4    5 ar
    10    4   28 1
    11    5    6 ar
    12    5    8 1
    13    6    7 ar
    14    6   29 1
    15    7   30 1
    16    8   13 1
    17    8    9 2
    18    9   10 1
    19   10   11 1
    20   10   21 1
    21   11   12 1
    22   11   13 1
    23   11   14 1
    24   13   31 1
    25   13   32 1
    26   14   19 ar
    27   14   15 ar
    28   15   16 ar
    29   15   33 1
    30   16   17 ar
    31   16   34 1
    32   17   18 ar
    33   17   20 1
    34   18   19 ar
    35   18   35 1
    36   19   36 1
    37   21   22 2
    38   21   23 1
    39   23   37 1
    40   23   38 1
@<TRIPOS>MOLECULE
ZINC01414086
   38    40     0     0     0
SMALL
USER_CHARGES
5-(4-chlorophenyl)-N,N-bis[5-(4-chlorophenyl)-3-(p-tolyl)-4,5-dihydropyrazol-2-yl]-3-(p-tolyl)-4,5-dihydropyrazole-1-carbothioamide
@<TRIPOS>ATOM
      1 C1          2.4893    1.0412   -0.0151 C.3       1 <0>        -0.1229
      2 C2          1.1772    1.7823    0.0004 C.ar      1 <0>        -0.0584
      3 C3         -0.0126    1.0758    0.0080 C.ar      1 <0>        -0.1232
      4 C4         -1.2173    1.7475    0.0173 C.ar      1 <0>        -0.0768
      5 C5         -1.2342    3.1443    0.0298 C.ar      1 <0>        -0.0546
      6 C6         -0.0292    3.8508    0.0221 C.ar      1 <0>        -0.0704
      7 C7          1.1680    3.1659    0.0075 C.ar      1 <0>        -0.1252
      8 C8         -2.5183    3.8695    0.0450 C.2       1 <0>         0.1759
      9 N1         -2.6480    5.1510    0.0517 N.2       1 <0>        -0.2754
     10 N2         -3.9705    5.5894    0.0660 N.pl3     1 <0>        -0.4330
     11 C9         -4.8602    4.4172    0.0692 C.3       1 <0>         0.1670
     12 H1         -5.4904    4.4115   -0.8201 H         1 <0>         0.1195
     13 C10        -3.8852    3.2233    0.0484 C.3       1 <0>        -0.1329
     14 C11        -5.7057    4.3966    1.3166 C.ar      1 <0>        -0.0747
     15 C12        -5.1589    4.7760    2.5282 C.ar      1 <0>        -0.0906
     16 C13        -5.9354    4.7627    3.6716 C.ar      1 <0>        -0.1053
     17 C14        -7.2570    4.3588    3.6052 C.ar      1 <0>        -0.0264
     18 C15        -7.8021    3.9738    2.3933 C.ar      1 <0>        -0.1041
     19 C16        -7.0262    3.9930    1.2496 C.ar      1 <0>        -0.0719
     20 Cl1        -8.2307    4.3345    5.0422 Cl        1 <0>        -0.0688
     21 C17        -4.3697    6.8766    0.0757 C.2       1 <0>         0.6034
     22 S1         -6.0393    7.2550    0.0935 S.2       1 <0>        -0.5974
     23 N3         -3.4546    7.8660    0.0713 N.pl3     1 <0>        -0.7901
     24 H2          2.7962    0.8673   -1.0465 H         1 <0>         0.0766
     25 H3          3.2480    1.6350    0.4946 H         1 <0>         0.0705
     26 H4          2.3726    0.0852    0.4953 H         1 <0>         0.0711
     27 H5          0.0021   -0.0041    0.0020 H         1 <0>         0.1318
     28 H6         -2.1452    1.1949    0.0191 H         1 <0>         0.1318
     29 H7         -0.0350    4.9308    0.0272 H         1 <0>         0.1314
     30 H8          2.1003    3.7109    0.0011 H         1 <0>         0.1299
     31 H9         -4.0281    2.6260   -0.8521 H         1 <0>         0.1188
     32 H10        -4.0160    2.6100    0.9399 H         1 <0>         0.1170
     33 H11        -4.1259    5.0870    2.5807 H         1 <0>         0.1162
     34 H12        -5.5093    5.0632    4.6174 H         1 <0>         0.1315
     35 H13        -8.8336    3.6581    2.3409 H         1 <0>         0.1363
     36 H14        -7.4517    3.6928    0.3035 H         1 <0>         0.1349
     37 H15        -2.5086    7.6517    0.0612 H         1 <0>         0.4059
     38 H16        -3.7419    8.7925    0.0783 H         1 <0>         0.4329
@<TRIPOS>BOND
     1    1    2 1
     2    1   24 1
     3    1   25 1
     4    1   26 1
     5    2    7 ar
     6    2    3 ar
     7    3    4 ar
     8    3   27 1
     9    4    5 ar
    10    4   28 1
    11    5    6 ar
    12    5    8 1
    13    6    7 ar
    14    6   29 1
    15    7   30 1
    16    8   13 1
    17    8    9 2
    18    9   10 1
    19   10   11 1
    20   10   21 1
    21   11   12 1
    22   11   13 1
    23   11   14 1
    24   13   31 1
    25   13   32 1
    26   14   19 ar
    27   14   15 ar
    28   15   16 ar
    29   15   33 1
    30   16   17 ar
    31   16   34 1
    32   17   18 ar
    33   17   20 1
    34   18   19 ar
    35   18   35 1
    36   19   36 1
    37   21   22 2
    38   21   23 1
    39   23   37 1
    40   23   38 1
@<TRIPOS>MOLECULE
ZINC13675247
   29    31     0     0     0
SMALL
USER_CHARGES
(5R)-3,5-bis(2-thienyl)-4,5-dihydropyrazole-1-carbothioamide
@<TRIPOS>ATOM
      1 C1          2.2456    4.5468   -2.6300 C.2       1 <0>        -0.1536
      2 C2          1.9352    4.0342   -1.3844 C.2       1 <0>        -0.1198
      3 C3          1.8017    2.6931   -1.2401 C.2       1 <0>        -0.1530
      4 S1          2.1252    2.1095   -2.8960 S.3       1 <0>         0.0466
      5 C4          2.4074    3.6931   -3.6704 C.2       1 <0>        -0.1651
      6 C5          1.4723    1.8999   -0.0018 C.3       1 <0>         0.2169
      7 H1          1.7277    2.4640    0.8953 H         1 <0>         0.1308
      8 C6         -0.0184    1.5078    0.0103 C.3       1 <0>        -0.1323
      9 C7          0.0021   -0.0041    0.0020 C.2       1 <0>         0.2129
     10 N1          1.2249   -0.4180   -0.0119 N.2       1 <0>        -0.2621
     11 N2          2.1709    0.6050   -0.0154 N.pl3     1 <0>        -0.4343
     12 C8          3.5079    0.4360   -0.0295 C.2       1 <0>         0.6040
     13 S2          4.5432    1.7995   -0.0326 S.2       1 <0>        -0.5899
     14 N3          4.0300   -0.8065   -0.0411 N.pl3     1 <0>        -0.7880
     15 C9         -1.1840   -0.8671    0.0087 C.2       1 <0>        -0.1359
     16 C10        -1.2577   -2.2490   -0.0037 C.2       1 <0>        -0.0913
     17 C11        -2.5012   -2.8374    0.0102 C.2       1 <0>        -0.1677
     18 C12        -3.6088   -2.0511    0.0246 C.2       1 <0>        -0.1496
     19 S3         -2.9095   -0.4088    0.0270 S.3       1 <0>         0.1111
     20 H2          2.3572    5.6116   -2.7723 H         1 <0>         0.1358
     21 H3          1.8013    4.6925   -0.5387 H         1 <0>         0.1349
     22 H4          2.6485    3.9135   -4.6998 H         1 <0>         0.1856
     23 H5         -0.5210    1.8882   -0.8789 H         1 <0>         0.1203
     24 H6         -0.5039    1.8785    0.9131 H         1 <0>         0.1231
     25 H7          3.4435   -1.5791   -0.0393 H         1 <0>         0.4064
     26 H8          4.9923   -0.9282   -0.0512 H         1 <0>         0.4335
     27 H9         -0.3610   -2.8507   -0.0208 H         1 <0>         0.1425
     28 H10        -2.5959   -3.9132    0.0049 H         1 <0>         0.1435
     29 H11        -4.6481   -2.3448    0.0321 H         1 <0>         0.1949
@<TRIPOS>BOND
     1    1    5 2
     2    1    2 1
     3    1   20 1
     4    2    3 2
     5    2   21 1
     6    3    4 1
     7    3    6 1
     8    4    5 1
     9    5   22 1
    10    6    7 1
    11    6   11 1
    12    6    8 1
    13    8    9 1
    14    8   23 1
    15    8   24 1
    16    9   10 2
    17    9   15 1
    18   10   11 1
    19   11   12 1
    20   12   13 2
    21   12   14 1
    22   14   25 1
    23   14   26 1
    24   15   19 1
    25   15   16 2
    26   16   17 1
    27   16   27 1
    28   17   18 2
    29   17   28 1
    30   18   19 1
    31   18   29 1
@<TRIPOS>MOLECULE
ZINC13675249
   29    31     0     0     0
SMALL
USER_CHARGES
(5S)-3,5-bis(2-thienyl)-4,5-dihydropyrazole-1-carbothioamide
@<TRIPOS>ATOM
      1 C1          7.5966    2.0153    2.5765 C.2       1 <0>        -0.1538
      2 C2          6.9885    1.9943    1.3354 C.2       1 <0>        -0.1194
      3 C3          5.8050    1.3487    1.1941 C.2       1 <0>        -0.1533
      4 S1          5.5222    0.7307    2.8450 S.3       1 <0>         0.0462
      5 C4          6.9968    1.3807    3.6132 C.2       1 <0>        -0.1648
      6 C5          4.9524    1.1886   -0.0382 C.3       1 <0>         0.2170
      7 H1          5.5524    1.3134   -0.9396 H         1 <0>         0.1310
      8 C6          3.7825    2.1921   -0.0222 C.3       1 <0>        -0.1323
      9 C7          2.5504    1.3157   -0.0152 C.2       1 <0>         0.2128
     10 N1          2.9050    0.0743   -0.0196 N.2       1 <0>        -0.2621
     11 N2          4.2843   -0.1224   -0.0385 N.pl3     1 <0>        -0.4342
     12 C8          4.9052   -1.3185   -0.0503 C.2       1 <0>         0.6041
     13 S2          6.6154   -1.3951   -0.0666 S.2       1 <0>        -0.5900
     14 N3          4.1798   -2.4544   -0.0493 N.pl3     1 <0>        -0.7880
     15 C9          1.1662    1.8009    0.0006 C.2       1 <0>        -0.1359
     16 C10        -0.0126    1.0758    0.0080 C.2       1 <0>        -0.0913
     17 C11        -1.2035    1.7645    0.0172 C.2       1 <0>        -0.1677
     18 C12        -1.1862    3.1227    0.0292 C.2       1 <0>        -0.1496
     19 S3          0.5624    3.4811    0.0147 S.3       1 <0>         0.1110
     20 H2          8.5375    2.5265    2.7172 H         1 <0>         0.1358
     21 H3          7.4480    2.4872    0.4914 H         1 <0>         0.1349
     22 H4          7.3257    1.2913    4.6380 H         1 <0>         0.1856
     23 H5          3.8023    2.8165   -0.9154 H         1 <0>         0.1229
     24 H6          3.8177    2.8093    0.8754 H         1 <0>         0.1204
     25 H7          3.2108   -2.4111   -0.0401 H         1 <0>         0.4064
     26 H8          4.6267   -3.3153   -0.0578 H         1 <0>         0.4335
     27 H9          0.0021   -0.0041    0.0020 H         1 <0>         0.1425
     28 H10        -2.1424    1.2308    0.0190 H         1 <0>         0.1435
     29 H11        -2.0186    3.8107    0.0405 H         1 <0>         0.1949
@<TRIPOS>BOND
     1    1    5 2
     2    1    2 1
     3    1   20 1
     4    2    3 2
     5    2   21 1
     6    3    4 1
     7    3    6 1
     8    4    5 1
     9    5   22 1
    10    6    7 1
    11    6   11 1
    12    6    8 1
    13    8    9 1
    14    8   23 1
    15    8   24 1
    16    9   10 2
    17    9   15 1
    18   10   11 1
    19   11   12 1
    20   12   13 2
    21   12   14 1
    22   14   25 1
    23   14   26 1
    24   15   19 1
    25   15   16 2
    26   16   17 1
    27   16   27 1
    28   17   18 2
    29   17   28 1
    30   18   19 1
    31   18   29 1
@<TRIPOS>MOLECULE
ZINC13675244
   35    37     0     0     0
SMALL
USER_CHARGES
(5S)-5-(p-tolyl)-3-(2-thienyl)-4,5-dihydropyrazole-1-carbothioamide
@<TRIPOS>ATOM
      1 C1          9.4231    0.2797    4.6664 C.3       1 <0>        -0.1166
      2 C2          8.5749    0.0980    3.4341 C.ar      1 <0>        -0.0775
      3 C3          8.9626    0.6711    2.2375 C.ar      1 <0>        -0.1147
      4 C4          8.1846    0.5045    1.1071 C.ar      1 <0>        -0.0835
      5 C5          7.0192   -0.2361    1.1732 C.ar      1 <0>        -0.0851
      6 C6          6.6290   -0.8052    2.3710 C.ar      1 <0>        -0.0963
      7 C7          7.4093   -0.6422    3.5003 C.ar      1 <0>        -0.1153
      8 C8          6.1710   -0.4178   -0.0591 C.3       1 <0>         0.1696
      9 H1          6.7689   -0.2749   -0.9592 H         1 <0>         0.1190
     10 C9          4.9751    0.5545   -0.0425 C.3       1 <0>        -0.1312
     11 C10         3.7664   -0.3539   -0.0358 C.2       1 <0>         0.2112
     12 N1          4.1536   -1.5856   -0.0405 N.2       1 <0>        -0.2655
     13 N2          5.5375   -1.7459   -0.0602 N.pl3     1 <0>        -0.4302
     14 C11         6.1897   -2.9253   -0.0724 C.2       1 <0>         0.6031
     15 S1          7.9014   -2.9568   -0.0883 S.2       1 <0>        -0.5922
     16 N3          5.4945   -4.0799   -0.0720 N.pl3     1 <0>        -0.7908
     17 C12         2.3700    0.0947   -0.0201 C.2       1 <0>        -0.1348
     18 C13         1.2107   -0.6612   -0.0131 C.2       1 <0>        -0.0931
     19 C14         0.0021   -0.0041    0.0020 C.2       1 <0>        -0.1675
     20 C15        -0.0163    1.3542    0.0095 C.2       1 <0>        -0.1507
     21 S2          1.7222    1.7584   -0.0049 S.3       1 <0>         0.1106
     22 H2          9.1014    1.1739    5.2003 H         1 <0>         0.0706
     23 H3          9.3132   -0.5897    5.3146 H         1 <0>         0.0658
     24 H4         10.4682    0.3864    4.3757 H         1 <0>         0.0677
     25 H5          9.8733    1.2494    2.1857 H         1 <0>         0.1240
     26 H6          8.4874    0.9525    0.1722 H         1 <0>         0.1242
     27 H7          5.7162   -1.3801    2.4236 H         1 <0>         0.1052
     28 H8          7.1065   -1.0902    4.4352 H         1 <0>         0.1191
     29 H9          4.9783    1.1798   -0.9352 H         1 <0>         0.1183
     30 H10         4.9955    1.1702    0.8568 H         1 <0>         0.1181
     31 H11         4.5247   -4.0621   -0.0630 H         1 <0>         0.4057
     32 H12         5.9639   -4.9287   -0.0808 H         1 <0>         0.4328
     33 H13         1.2537   -1.7403   -0.0196 H         1 <0>         0.1421
     34 H14        -0.9224   -0.5623    0.0082 H         1 <0>         0.1432
     35 H15        -0.8666    2.0201    0.0174 H         1 <0>         0.1947
@<TRIPOS>BOND
     1    1    2 1
     2    1   22 1
     3    1   23 1
     4    1   24 1
     5    2    7 ar
     6    2    3 ar
     7    3    4 ar
     8    3   25 1
     9    4    5 ar
    10    4   26 1
    11    5    6 ar
    12    5    8 1
    13    6    7 ar
    14    6   27 1
    15    7   28 1
    16    8    9 1
    17    8   13 1
    18    8   10 1
    19   10   11 1
    20   10   29 1
    21   10   30 1
    22   11   12 2
    23   11   17 1
    24   12   13 1
    25   13   14 1
    26   14   15 2
    27   14   16 1
    28   16   31 1
    29   16   32 1
    30   17   21 1
    31   17   18 2
    32   18   19 1
    33   18   33 1
    34   19   20 2
    35   19   34 1
    36   20   21 1
    37   20   35 1
@<TRIPOS>MOLECULE
ZINC13675246
   35    37     0     0     0
SMALL
USER_CHARGES
(5R)-5-(p-tolyl)-3-(2-thienyl)-4,5-dihydropyrazole-1-carbothioamide
@<TRIPOS>ATOM
      1 C1          4.4141    9.3493   -4.7423 C.3       1 <0>        -0.1168
      2 C2          4.1655    8.5256   -3.5051 C.ar      1 <0>        -0.0771
      3 C3          3.8879    9.1499   -2.3034 C.ar      1 <0>        -0.1151
      4 C4          3.6603    8.3943   -1.1684 C.ar      1 <0>        -0.0832
      5 C5          3.7095    7.0145   -1.2353 C.ar      1 <0>        -0.0855
      6 C6          3.9919    6.3903   -2.4360 C.ar      1 <0>        -0.0954
      7 C7          4.2156    7.1458   -3.5718 C.ar      1 <0>        -0.1159
      8 C8          3.4614    6.1908    0.0020 C.3       1 <0>         0.1699
      9 H1          3.6571    6.7791    0.8985 H         1 <0>         0.1188
     10 C9          2.0180    5.6498    0.0129 C.3       1 <0>        -0.1313
     11 C10         2.1913    4.1478    0.0031 C.2       1 <0>         0.2113
     12 N1          3.4497    3.8597   -0.0054 N.2       1 <0>        -0.2656
     13 N2          4.2874    4.9731   -0.0125 N.pl3     1 <0>        -0.4303
     14 C11         5.6347    4.9402   -0.0251 C.2       1 <0>         0.6031
     15 S1          6.5267    6.4015   -0.0251 S.2       1 <0>        -0.5923
     16 N3          6.2798    3.7569   -0.0377 N.pl3     1 <0>        -0.7908
     17 C12         1.0986    3.1693    0.0086 C.2       1 <0>        -0.1348
     18 C13         1.1651    1.7870    0.0005 C.2       1 <0>        -0.0931
     19 C14        -0.0126    1.0758    0.0080 C.2       1 <0>        -0.1675
     20 C15        -1.1940    1.7461    0.0172 C.2       1 <0>        -0.1506
     21 S2         -0.6644    3.4507    0.0270 S.3       1 <0>         0.1105
     22 H2          5.4779    9.5734   -4.8220 H         1 <0>         0.0720
     23 H3          4.0938    8.7902   -5.6215 H         1 <0>         0.0653
     24 H4          3.8505   10.2801   -4.6784 H         1 <0>         0.0671
     25 H5          3.8492   10.2279   -2.2512 H         1 <0>         0.1240
     26 H6          3.4438    8.8821   -0.2294 H         1 <0>         0.1242
     27 H7          4.0346    5.3124   -2.4873 H         1 <0>         0.1053
     28 H8          4.4329    6.6581   -4.5106 H         1 <0>         0.1191
     29 H9          1.4799    5.9784   -0.8763 H         1 <0>         0.1180
     30 H10         1.4948    5.9684    0.9145 H         1 <0>         0.1184
     31 H11         5.7744    2.9290   -0.0377 H         1 <0>         0.4057
     32 H12         7.2495    3.7332   -0.0468 H         1 <0>         0.4328
     33 H13         2.1181    1.2790   -0.0110 H         1 <0>         0.1421
     34 H14         0.0021   -0.0041    0.0020 H         1 <0>         0.1432
     35 H15        -2.1983    1.3487    0.0197 H         1 <0>         0.1947
@<TRIPOS>BOND
     1    1    2 1
     2    1   22 1
     3    1   23 1
     4    1   24 1
     5    2    7 ar
     6    2    3 ar
     7    3    4 ar
     8    3   25 1
     9    4    5 ar
    10    4   26 1
    11    5    6 ar
    12    5    8 1
    13    6    7 ar
    14    6   27 1
    15    7   28 1
    16    8    9 1
    17    8   13 1
    18    8   10 1
    19   10   11 1
    20   10   29 1
    21   10   30 1
    22   11   12 2
    23   11   17 1
    24   12   13 1
    25   13   14 1
    26   14   15 2
    27   14   16 1
    28   16   31 1
    29   16   32 1
    30   17   21 1
    31   17   18 2
    32   18   19 1
    33   18   33 1
    34   19   20 2
    35   19   34 1
    36   20   21 1
    37   20   35 1
@<TRIPOS>MOLECULE
ZINC14959093
   19    19     0     0     0
SMALL
USER_CHARGES
N-prop-2-ynyl-1H-pyrrole-2-carboxamide
@<TRIPOS>ATOM
      1 C1         -1.2563    2.3141    2.1871 C.1       1 <0>        -0.1608
      2 C2         -0.7068    1.9355    1.2212 C.1       1 <0>        -0.2179
      3 C3         -0.0178    1.4608    0.0101 C.3       1 <0>         0.2325
      4 N1          0.0021   -0.0041    0.0020 N.am      1 <0>        -0.7327
      5 C4          0.5851   -0.6645   -1.0180 C.2       1 <0>         0.5928
      6 O1          1.0950   -0.0440   -1.9323 O.2       1 <0>        -0.5233
      7 C5          0.6050   -2.1311   -1.0260 C.2       1 <0>        -0.0642
      8 C6          1.1576   -2.9333   -2.0018 C.2       1 <0>        -0.0992
      9 C7          0.9552   -4.2593   -1.6067 C.2       1 <0>        -0.2116
     10 C8          0.2890   -4.2445   -0.4275 C.2       1 <0>         0.0277
     11 N2          0.0701   -2.9574   -0.0638 N.pl3     1 <0>        -0.5422
     12 H1         -0.3871   -2.6668    0.7409 H         1 <0>         0.4152
     13 H2         -1.7478    2.6527    3.0509 H         1 <0>         0.2238
     14 H3          1.0048    1.8381    0.0023 H         1 <0>         0.0963
     15 H4         -0.5450    1.8219   -0.8730 H         1 <0>         0.0963
     16 H5         -0.4044   -0.4986    0.7308 H         1 <0>         0.3976
     17 H6          1.6553   -2.6002   -2.9005 H         1 <0>         0.1498
     18 H7          1.2702   -5.1392   -2.1481 H         1 <0>         0.1464
     19 H8         -0.0180   -5.1161    0.1315 H         1 <0>         0.1734
@<TRIPOS>BOND
     1    1    2 3
     2    1   13 1
     3    2    3 1
     4    3    4 1
     5    3   14 1
     6    3   15 1
     7    4    5 am
     8    4   16 1
     9    5    6 2
    10    5    7 1
    11    7   11 1
    12    7    8 2
    13    8    9 1
    14    8   17 1
    15    9   10 2
    16    9   18 1
    17   10   11 1
    18   10   19 1
    19   11   12 1
@<TRIPOS>MOLECULE
ZINC05187204
   36    38     0     0     0
SMALL
USER_CHARGES
1-[5-(4-chlorophenyl)-3-phenyl-4,5-dihydropyrazol-1-yl]ethanone
@<TRIPOS>ATOM
      1 C1         -2.4871    1.5163    0.0231 C.3       1 <0>        -0.1668
      2 C2         -1.1236    2.1582    0.0193 C.2       1 <0>         0.5506
      3 O1         -1.0223    3.3670    0.0249 O.2       1 <0>        -0.5164
      4 N1         -0.0168    1.3892    0.0097 N.am      1 <0>        -0.4657
      5 C3          1.3691    1.8838   -0.0009 C.3       1 <0>         0.1477
      6 H1          1.5752    2.4667    0.8968 H         1 <0>         0.1054
      7 C4          2.2131    0.5939   -0.0159 C.3       1 <0>        -0.1264
      8 C5          1.1846   -0.5144   -0.0120 C.2       1 <0>         0.1443
      9 N2          0.0021   -0.0041    0.0020 N.2       1 <0>        -0.2365
     10 C6          1.4886   -1.9575   -0.0222 C.ar      1 <0>        -0.0385
     11 C7          2.8150   -2.3951   -0.0426 C.ar      1 <0>        -0.0879
     12 C8          3.0919   -3.7464   -0.0468 C.ar      1 <0>        -0.1213
     13 C9          2.0594   -4.6675   -0.0419 C.ar      1 <0>        -0.1000
     14 C10         0.7431   -4.2413   -0.0275 C.ar      1 <0>        -0.1224
     15 C11         0.4514   -2.8932   -0.0174 C.ar      1 <0>        -0.0794
     16 C12         1.6304    2.7030   -1.2385 C.ar      1 <0>        -0.0869
     17 C13         1.0906    2.3150   -2.4506 C.ar      1 <0>        -0.0898
     18 C14         1.3253    3.0691   -3.5849 C.ar      1 <0>        -0.1071
     19 C15         2.1099    4.2061   -3.5093 C.ar      1 <0>        -0.0290
     20 C16         2.6545    4.5907   -2.2970 C.ar      1 <0>        -0.1065
     21 C17         2.4145    3.8390   -1.1623 C.ar      1 <0>        -0.0861
     22 Cl1         2.4104    5.1501   -4.9349 Cl        1 <0>        -0.0658
     23 H2         -2.3781    0.4318    0.0170 H         1 <0>         0.0910
     24 H3         -3.0301    1.8219    0.9175 H         1 <0>         0.0973
     25 H4         -3.0393    1.8309   -0.8624 H         1 <0>         0.0968
     26 H5          2.8400    0.5368    0.8740 H         1 <0>         0.1109
     27 H6          2.8245    0.5449   -0.9169 H         1 <0>         0.1094
     28 H7          3.6218   -1.6772   -0.0509 H         1 <0>         0.1290
     29 H8          4.1170   -4.0862   -0.0580 H         1 <0>         0.1297
     30 H9          2.2820   -5.7243   -0.0490 H         1 <0>         0.1270
     31 H10        -0.0578   -4.9658   -0.0238 H         1 <0>         0.1291
     32 H11        -0.5765   -2.5618   -0.0062 H         1 <0>         0.1330
     33 H12         0.4818    1.4250   -2.5103 H         1 <0>         0.1243
     34 H13         0.8999    2.7683   -4.5310 H         1 <0>         0.1349
     35 H14         3.2668    5.4784   -2.2373 H         1 <0>         0.1375
     36 H15         2.8393    4.1393   -0.2159 H         1 <0>         0.1346
@<TRIPOS>BOND
     1    1    2 1
     2    1   23 1
     3    1   24 1
     4    1   25 1
     5    2    3 2
     6    2    4 am
     7    4    9 1
     8    4    5 1
     9    5    6 1
    10    5    7 1
    11    5   16 1
    12    7    8 1
    13    7   26 1
    14    7   27 1
    15    8    9 2
    16    8   10 1
    17   10   15 ar
    18   10   11 ar
    19   11   12 ar
    20   11   28 1
    21   12   13 ar
    22   12   29 1
    23   13   14 ar
    24   13   30 1
    25   14   15 ar
    26   14   31 1
    27   15   32 1
    28   16   21 ar
    29   16   17 ar
    30   17   18 ar
    31   17   33 1
    32   18   19 ar
    33   18   34 1
    34   19   20 ar
    35   19   22 1
    36   20   21 ar
    37   20   35 1
    38   21   36 1
@<TRIPOS>MOLECULE
ZINC05187207
   36    38     0     0     0
SMALL
USER_CHARGES
1-[5-(4-chlorophenyl)-3-phenyl-4,5-dihydropyrazol-1-yl]ethanone
@<TRIPOS>ATOM
      1 C1         -3.2511   -3.1184    0.0005 C.3       1 <0>        -0.1635
      2 C2         -4.2952   -2.0317    0.0115 C.2       1 <0>         0.5502
      3 O1         -5.4730   -2.3222    0.0154 O.2       1 <0>        -0.5157
      4 N1         -3.9204   -0.7371    0.0171 N.am      1 <0>        -0.4665
      5 C3         -4.8322    0.4179    0.0275 C.3       1 <0>         0.1477
      6 H1         -5.4584    0.4204   -0.8646 H         1 <0>         0.1057
      7 C4         -3.8798    1.6301    0.0352 C.3       1 <0>        -0.1261
      8 C5         -2.5009    1.0099    0.0193 C.2       1 <0>         0.1441
      9 N2         -2.6064   -0.2737    0.0131 N.2       1 <0>        -0.2360
     10 C6         -1.2307    1.7594    0.0174 C.ar      1 <0>        -0.0384
     11 C7         -0.0126    1.0758    0.0080 C.ar      1 <0>        -0.0793
     12 C8          1.1715    1.7833    0.0005 C.ar      1 <0>        -0.1224
     13 C9          1.1546    3.1669    0.0076 C.ar      1 <0>        -0.1000
     14 C10        -0.0483    3.8506    0.0233 C.ar      1 <0>        -0.1213
     15 C11        -1.2400    3.1562    0.0314 C.ar      1 <0>        -0.0880
     16 C12        -5.6834    0.4105    1.2711 C.ar      1 <0>        -0.0874
     17 C13        -5.1378    0.0191    2.4795 C.ar      1 <0>        -0.0896
     18 C14        -5.9165    0.0175    3.6214 C.ar      1 <0>        -0.1073
     19 C15        -7.2452    0.3969    3.5528 C.ar      1 <0>        -0.0290
     20 C16        -7.7921    0.7832    2.3421 C.ar      1 <0>        -0.1066
     21 C17        -7.0109    0.7898    1.2019 C.ar      1 <0>        -0.0861
     22 Cl1        -8.2259    0.3879    4.9852 Cl        1 <0>        -0.0658
     23 H2         -2.9946   -3.3862    1.0255 H         1 <0>         0.0965
     24 H3         -3.6436   -3.9941   -0.5164 H         1 <0>         0.0947
     25 H4         -2.3600   -2.7609   -0.5154 H         1 <0>         0.0909
     26 H5         -4.0213    2.2243    0.9380 H         1 <0>         0.1096
     27 H6         -4.0345    2.2411   -0.8541 H         1 <0>         0.1109
     28 H7          0.0021   -0.0041    0.0020 H         1 <0>         0.1330
     29 H8          2.1140    1.2561   -0.0114 H         1 <0>         0.1291
     30 H9          2.0847    3.7158    0.0013 H         1 <0>         0.1270
     31 H10        -0.0541    4.9306    0.0295 H         1 <0>         0.1297
     32 H11        -2.1782    3.6911    0.0436 H         1 <0>         0.1290
     33 H12        -4.1018   -0.2813    2.5320 H         1 <0>         0.1242
     34 H13        -5.4890   -0.2842    4.5662 H         1 <0>         0.1349
     35 H14        -8.8294    1.0792    2.2879 H         1 <0>         0.1375
     36 H15        -7.4377    1.0916    0.2568 H         1 <0>         0.1346
@<TRIPOS>BOND
     1    1    2 1
     2    1   23 1
     3    1   24 1
     4    1   25 1
     5    2    3 2
     6    2    4 am
     7    4    9 1
     8    4    5 1
     9    5    6 1
    10    5    7 1
    11    5   16 1
    12    7    8 1
    13    7   26 1
    14    7   27 1
    15    8    9 2
    16    8   10 1
    17   10   15 ar
    18   10   11 ar
    19   11   12 ar
    20   11   28 1
    21   12   13 ar
    22   12   29 1
    23   13   14 ar
    24   13   30 1
    25   14   15 ar
    26   14   31 1
    27   15   32 1
    28   16   21 ar
    29   16   17 ar
    30   17   18 ar
    31   17   33 1
    32   18   19 ar
    33   18   34 1
    34   19   20 ar
    35   19   22 1
    36   20   21 ar
    37   20   35 1
    38   21   36 1
@<TRIPOS>MOLECULE
ZINC13493582
   22    22     0     0     0
SMALL
USER_CHARGES
N-methyl-N-prop-2-ynyl-1H-pyrrole-2-carboxamide
@<TRIPOS>ATOM
      1 C1         -0.6244    2.8779   -1.8459 C.3       1 <0>         0.0598
      2 N1         -0.8818    1.5677   -1.2431 N.am      1 <0>        -0.6190
      3 C2         -0.2783    1.2236    0.0467 C.3       1 <0>         0.2279
      4 C3         -1.1831    1.6278    1.1352 C.1       1 <0>        -0.2147
      5 C4         -1.9048    1.9501    2.0033 C.1       1 <0>        -0.1757
      6 C5         -1.6737    0.6790   -1.8752 C.2       1 <0>         0.5918
      7 O1         -1.9788   -0.3629   -1.3253 O.2       1 <0>        -0.5182
      8 C6         -2.1677    0.9675   -3.2258 C.2       1 <0>        -0.0618
      9 C7         -3.0945    0.2284   -3.9297 C.2       1 <0>        -0.1008
     10 C8         -3.2730    0.8612   -5.1638 C.2       1 <0>        -0.2108
     11 C9         -2.4630    1.9464   -5.1953 C.2       1 <0>         0.0215
     12 N2         -1.7860    2.0223   -4.0237 N.pl3     1 <0>        -0.5478
     13 H1         -1.1402    2.7061   -3.7867 H         1 <0>         0.4192
     14 H2          0.1952    2.7948   -2.5597 H         1 <0>         0.0643
     15 H3         -1.5209    3.2234   -2.3607 H         1 <0>         0.0755
     16 H4         -0.3560    3.5904   -1.0658 H         1 <0>         0.0883
     17 H5         -0.1110    0.1475    0.0940 H         1 <0>         0.1100
     18 H6          0.6733    1.7443    0.1531 H         1 <0>         0.1048
     19 H7         -2.5502    2.2384    2.7797 H         1 <0>         0.2190
     20 H8         -3.5912   -0.6687   -3.5907 H         1 <0>         0.1485
     21 H9         -3.9356    0.5392   -5.9535 H         1 <0>         0.1453
     22 H10        -2.3714    2.6381   -6.0197 H         1 <0>         0.1729
@<TRIPOS>BOND
     1    1    2 1
     2    1   14 1
     3    1   15 1
     4    1   16 1
     5    2    3 1
     6    2    6 am
     7    3    4 1
     8    3   17 1
     9    3   18 1
    10    4    5 3
    11    5   19 1
    12    6    7 2
    13    6    8 1
    14    8   12 1
    15    8    9 2
    16    9   10 1
    17    9   20 1
    18   10   11 2
    19   10   21 1
    20   11   12 1
    21   11   22 1
    22   12   13 1
@<TRIPOS>MOLECULE
ZINC13493574
   30    31     0     0     0
SMALL
USER_CHARGES
N-[(2-fluorophenyl)methyl]-1-methyl-pyrrole-2-carboxamide
@<TRIPOS>ATOM
      1 C1          2.4182    1.2294   -0.0291 C.3       1 <0>         0.0634
      2 N1          1.0550    1.7653   -0.0069 N.pl3     1 <0>        -0.4100
      3 C2         -0.0837    1.0303   -0.0223 C.2       1 <0>         0.0178
      4 C3         -1.1469    1.8691    0.0047 C.2       1 <0>        -0.2069
      5 C4         -0.6591    3.1789    0.0469 C.2       1 <0>        -0.1390
      6 C5          0.7173    3.0990    0.0392 C.2       1 <0>        -0.0574
      7 C6          1.6516    4.2292    0.0738 C.2       1 <0>         0.5923
      8 O1          2.8479    4.0270    0.1676 O.2       1 <0>        -0.5473
      9 N2          1.1851    5.4916    0.0016 N.am      1 <0>        -0.7154
     10 C7          2.1218    6.6152   -0.0771 C.3       1 <0>         0.1670
     11 C8          1.3506    7.9080   -0.1478 C.ar      1 <0>        -0.1480
     12 C9          1.1676    8.5382   -1.3643 C.ar      1 <0>        -0.0703
     13 C10         0.4555    9.7210   -1.4303 C.ar      1 <0>        -0.1312
     14 C11        -0.0649   10.2811   -0.2782 C.ar      1 <0>        -0.0802
     15 C12         0.1216    9.6559    0.9398 C.ar      1 <0>        -0.1559
     16 C13         0.8301    8.4679    1.0063 C.ar      1 <0>         0.1164
     17 F1          1.0135    7.8559    2.1967 F         1 <0>        -0.1325
     18 H1          2.7338    0.9966    0.9879 H         1 <0>         0.0773
     19 H2          2.4423    0.3226   -0.6335 H         1 <0>         0.0831
     20 H3          3.0929    1.9701   -0.4583 H         1 <0>         0.1037
     21 H4         -0.1349   -0.0480   -0.0535 H         1 <0>         0.1706
     22 H5         -2.1869    1.5778   -0.0007 H         1 <0>         0.1443
     23 H6         -1.2492    4.0828    0.0795 H         1 <0>         0.1424
     24 H7          0.2292    5.6561    0.0018 H         1 <0>         0.4044
     25 H8          2.7587    6.6200    0.8075 H         1 <0>         0.0826
     26 H9          2.7396    6.5114   -0.9691 H         1 <0>         0.0843
     27 H10         1.5775    8.1040   -2.2643 H         1 <0>         0.1360
     28 H11         0.3092   10.2104   -2.3819 H         1 <0>         0.1337
     29 H12        -0.6171   11.2078   -0.3303 H         1 <0>         0.1359
     30 H13        -0.2846   10.0937    1.8396 H         1 <0>         0.1387
@<TRIPOS>BOND
     1    1    2 1
     2    1   18 1
     3    1   19 1
     4    1   20 1
     5    2    6 1
     6    2    3 1
     7    3    4 2
     8    3   21 1
     9    4    5 1
    10    4   22 1
    11    5    6 2
    12    5   23 1
    13    6    7 1
    14    7    8 2
    15    7    9 am
    16    9   10 1
    17    9   24 1
    18   10   11 1
    19   10   25 1
    20   10   26 1
    21   11   16 ar
    22   11   12 ar
    23   12   13 ar
    24   12   27 1
    25   13   14 ar
    26   13   28 1
    27   14   15 ar
    28   14   29 1
    29   15   16 ar
    30   15   30 1
    31   16   17 1
@<TRIPOS>MOLECULE
ZINC12985643
   33    34     0     0     0
SMALL
USER_CHARGES
N-[(4-fluorophenyl)methyl]-N,1-dimethyl-pyrrole-2-carboxamide
@<TRIPOS>ATOM
      1 C1          2.5652    1.9665    0.4640 C.3       1 <0>         0.0712
      2 N1          1.1599    2.3322    0.6576 N.pl3     1 <0>        -0.4112
      3 C2          0.1559    1.4762    0.9680 C.2       1 <0>         0.0172
      4 C3         -1.0010    2.1741    1.0637 C.2       1 <0>        -0.2095
      5 C4         -0.7126    3.5191    0.8123 C.2       1 <0>        -0.1582
      6 C5          0.6403    3.6031    0.5603 C.2       1 <0>        -0.0547
      7 C6          1.3894    4.8243    0.2458 C.2       1 <0>         0.5903
      8 O1          2.6061    4.8151    0.2706 O.2       1 <0>        -0.5464
      9 N2          0.7303    5.9565   -0.0705 N.am      1 <0>        -0.5999
     10 C7         -0.7345    5.9709   -0.0882 C.3       1 <0>         0.0564
     11 C8          1.4788    7.1730   -0.3968 C.3       1 <0>         0.1588
     12 C9          1.7482    7.2147   -1.8789 C.ar      1 <0>        -0.1218
     13 C10         2.9039    6.6512   -2.3869 C.ar      1 <0>        -0.0658
     14 C11         3.1498    6.6846   -3.7464 C.ar      1 <0>        -0.1568
     15 C12         2.2432    7.2920   -4.5986 C.ar      1 <0>         0.1032
     16 C13         1.0886    7.8606   -4.0881 C.ar      1 <0>        -0.1572
     17 C14         0.8423    7.8214   -2.7288 C.ar      1 <0>        -0.0760
     18 F1          2.4848    7.3293   -5.9273 F         1 <0>        -0.1389
     19 H1          3.1109    2.1149    1.3958 H         1 <0>         0.0788
     20 H2          2.6308    0.9197    0.1673 H         1 <0>         0.0843
     21 H3          2.9996    2.5929   -0.3151 H         1 <0>         0.0930
     22 H4          0.2608    0.4111    1.1130 H         1 <0>         0.1695
     23 H5         -1.9729    1.7651    1.2972 H         1 <0>         0.1440
     24 H6         -1.4169    4.3379    0.8151 H         1 <0>         0.1630
     25 H7         -1.1085    6.1340    0.9225 H         1 <0>         0.0659
     26 H8         -1.0822    6.7738   -0.7383 H         1 <0>         0.0732
     27 H9         -1.1027    5.0155   -0.4620 H         1 <0>         0.0944
     28 H10         0.8947    8.0471   -0.1090 H         1 <0>         0.0926
     29 H11         2.4248    7.1737    0.1447 H         1 <0>         0.0975
     30 H12         3.6129    6.1811   -1.7215 H         1 <0>         0.1383
     31 H13         4.0507    6.2407   -4.1435 H         1 <0>         0.1358
     32 H14         0.3805    8.3343   -4.7520 H         1 <0>         0.1367
     33 H15        -0.0584    8.2645   -2.3304 H         1 <0>         0.1324
@<TRIPOS>BOND
     1    1    2 1
     2    1   19 1
     3    1   20 1
     4    1   21 1
     5    2    6 1
     6    2    3 1
     7    3    4 2
     8    3   22 1
     9    4    5 1
    10    4   23 1
    11    5    6 2
    12    5   24 1
    13    6    7 1
    14    7    8 2
    15    7    9 am
    16    9   10 1
    17    9   11 1
    18   10   25 1
    19   10   26 1
    20   10   27 1
    21   11   12 1
    22   11   28 1
    23   11   29 1
    24   12   17 ar
    25   12   13 ar
    26   13   14 ar
    27   13   30 1
    28   14   15 ar
    29   14   31 1
    30   15   16 ar
    31   15   18 1
    32   16   17 ar
    33   16   32 1
    34   17   33 1
@<TRIPOS>MOLECULE
ZINC13493575
   33    34     0     0     0
SMALL
USER_CHARGES
N-[(2-fluorophenyl)methyl]-N,1-dimethyl-pyrrole-2-carboxamide
@<TRIPOS>ATOM
      1 C1          2.5607    1.9448    0.4671 C.3       1 <0>         0.0716
      2 N1          1.1567    2.3153    0.6616 N.pl3     1 <0>        -0.4115
      3 C2          0.1502    1.4631    0.9741 C.2       1 <0>         0.0169
      4 C3         -1.0043    2.1649    1.0701 C.2       1 <0>        -0.2095
      5 C4         -0.7117    3.5087    0.8167 C.2       1 <0>        -0.1575
      6 C5          0.6412    3.5878    0.5633 C.2       1 <0>        -0.0543
      7 C6          1.3941    4.8061    0.2465 C.2       1 <0>         0.5901
      8 O1          2.6107    4.7929    0.2696 O.2       1 <0>        -0.5468
      9 N2          0.7384    5.9403   -0.0702 N.am      1 <0>        -0.5981
     10 C7         -0.7263    5.9595   -0.0864 C.3       1 <0>         0.0475
     11 C8          1.4905    7.1539   -0.3983 C.3       1 <0>         0.1595
     12 C9          1.7586    7.1934   -1.8808 C.ar      1 <0>        -0.1434
     13 C10         2.9950    6.8160   -2.3701 C.ar      1 <0>        -0.0673
     14 C11         3.2392    6.8467   -3.7302 C.ar      1 <0>        -0.1322
     15 C12         2.2511    7.2656   -4.6019 C.ar      1 <0>        -0.0861
     16 C13         1.0162    7.6487   -4.1146 C.ar      1 <0>        -0.1570
     17 C14         0.7685    7.6130   -2.7526 C.ar      1 <0>         0.1100
     18 F1         -0.4384    7.9878   -2.2749 F         1 <0>        -0.1360
     19 H1          3.1078    2.0924    1.3982 H         1 <0>         0.0786
     20 H2          2.6224    0.8974    0.1716 H         1 <0>         0.0841
     21 H3          2.9964    2.5687   -0.3132 H         1 <0>         0.0929
     22 H4          0.2517    0.3978    1.1204 H         1 <0>         0.1696
     23 H5         -1.9773    1.7594    1.3051 H         1 <0>         0.1440
     24 H6         -1.4133    4.3297    0.8192 H         1 <0>         0.1629
     25 H7         -1.0987    6.1244    0.9247 H         1 <0>         0.0653
     26 H8         -1.0721    6.7632   -0.7365 H         1 <0>         0.0825
     27 H9         -1.0981    5.0051   -0.4593 H         1 <0>         0.0932
     28 H10         0.9097    8.0303   -0.1107 H         1 <0>         0.0928
     29 H11         2.4371    7.1520    0.1421 H         1 <0>         0.1008
     30 H12         3.7690    6.4929   -1.6898 H         1 <0>         0.1366
     31 H13         4.2042    6.5474   -4.1120 H         1 <0>         0.1308
     32 H14         2.4446    7.2937   -5.6640 H         1 <0>         0.1336
     33 H15         0.2446    7.9763   -4.7956 H         1 <0>         0.1364
@<TRIPOS>BOND
     1    1    2 1
     2    1   19 1
     3    1   20 1
     4    1   21 1
     5    2    6 1
     6    2    3 1
     7    3    4 2
     8    3   22 1
     9    4    5 1
    10    4   23 1
    11    5    6 2
    12    5   24 1
    13    6    7 1
    14    7    8 2
    15    7    9 am
    16    9   10 1
    17    9   11 1
    18   10   25 1
    19   10   26 1
    20   10   27 1
    21   11   12 1
    22   11   28 1
    23   11   29 1
    24   12   17 ar
    25   12   13 ar
    26   13   14 ar
    27   13   30 1
    28   14   15 ar
    29   14   31 1
    30   15   16 ar
    31   15   32 1
    32   16   17 ar
    33   16   33 1
    34   17   18 1
@<TRIPOS>MOLECULE
ZINC01404025
   27    28     0     0     0
SMALL
USER_CHARGES

@<TRIPOS>ATOM
      1 C1         -0.0163    1.3503    0.0095 C.2       1 <0>        -0.2114
      2 C2          1.3086    1.7974   -0.0008 C.2       1 <0>        -0.1010
      3 C3          2.1137    0.6782   -0.0145 C.2       1 <0>        -0.0637
      4 N1          1.2903   -0.4250   -0.0125 N.pl3     1 <0>        -0.5420
      5 H1          1.5833   -1.3496   -0.0203 H         1 <0>         0.4149
      6 C4          0.0021   -0.0041    0.0020 C.2       1 <0>         0.0267
      7 C5          3.5803    0.6653   -0.0293 C.2       1 <0>         0.5907
      8 O1          4.1980    1.7138   -0.0302 O.2       1 <0>        -0.5247
      9 N2          4.2438   -0.5078   -0.0418 N.am      1 <0>        -0.7308
     10 C6          5.7087   -0.5206   -0.0566 C.3       1 <0>         0.1637
     11 C7          6.1984   -1.9458   -0.0687 C.ar      1 <0>        -0.1247
     12 C8          6.4295   -2.6068    1.1233 C.ar      1 <0>        -0.0702
     13 C9          6.8782   -3.9139    1.1135 C.ar      1 <0>        -0.1552
     14 C10         7.0963   -4.5614   -0.0908 C.ar      1 <0>         0.1092
     15 C11         6.8646   -3.8983   -1.2840 C.ar      1 <0>        -0.1551
     16 C12         6.4109   -2.5929   -1.2717 C.ar      1 <0>        -0.0702
     17 F1          7.5354   -5.8390   -0.1016 F         1 <0>        -0.1360
     18 H2         -0.8977    1.9742    0.0252 H         1 <0>         0.1458
     19 H3          1.6390    2.8256    0.0013 H         1 <0>         0.1490
     20 H4         -0.8678   -0.6441    0.0069 H         1 <0>         0.1728
     21 H5          3.7515   -1.3435   -0.0411 H         1 <0>         0.3954
     22 H6          6.0676   -0.0055   -0.9477 H         1 <0>         0.0827
     23 H7          6.0855   -0.0145    0.8322 H         1 <0>         0.0827
     24 H8          6.2596   -2.1015    2.0625 H         1 <0>         0.1362
     25 H9          7.0589   -4.4300    2.0448 H         1 <0>         0.1394
     26 H10         7.0347   -4.4022   -2.2239 H         1 <0>         0.1394
     27 H11         6.2258   -2.0770   -2.2022 H         1 <0>         0.1362
@<TRIPOS>BOND
     1    1    6 2
     2    1    2 1
     3    1   18 1
     4    2    3 2
     5    2   19 1
     6    3    4 1
     7    3    7 1
     8    4    5 1
     9    4    6 1
    10    6   20 1
    11    7    8 2
    12    7    9 am
    13    9   10 1
    14    9   21 1
    15   10   11 1
    16   10   22 1
    17   10   23 1
    18   11   16 ar
    19   11   12 ar
    20   12   13 ar
    21   12   24 1
    22   13   14 ar
    23   13   25 1
    24   14   15 ar
    25   14   17 1
    26   15   16 ar
    27   15   26 1
    28   16   27 1
@<TRIPOS>MOLECULE
ZINC05515702
   30    31     0     0     0
SMALL
USER_CHARGES
N-(1-phenylethyl)-1H-pyrrole-2-carboxamide
@<TRIPOS>ATOM
      1 C1         -0.0187    1.5258    0.0104 C.3       1 <0>        -0.1591
      2 C2          0.0021   -0.0041    0.0020 C.3       1 <0>         0.1850
      3 H1          0.5123   -0.3556   -0.8948 H         1 <0>         0.1005
      4 C3          0.7309   -0.5033    1.2229 C.ar      1 <0>        -0.0938
      5 C4          0.0843   -0.5479    2.4439 C.ar      1 <0>        -0.1178
      6 C5          0.7515   -1.0099    3.5629 C.ar      1 <0>        -0.1152
      7 C6          2.0682   -1.4188    3.4628 C.ar      1 <0>        -0.1177
      8 C7          2.7165   -1.3693    2.2429 C.ar      1 <0>        -0.1134
      9 C8          2.0479   -0.9113    1.1230 C.ar      1 <0>        -0.1064
     10 N1         -1.3723   -0.5112    0.0124 N.am      1 <0>        -0.7279
     11 C9         -2.0508   -0.6427   -1.1446 C.2       1 <0>         0.5921
     12 O1         -1.5218   -0.3403   -2.1980 O.2       1 <0>        -0.5248
     13 C10        -3.4269   -1.1504   -1.1342 C.2       1 <0>        -0.0632
     14 C11        -4.2376   -1.3300   -2.2348 C.2       1 <0>        -0.1012
     15 C12        -5.4567   -1.8328   -1.7695 C.2       1 <0>        -0.2113
     16 C13        -5.3745   -1.9403   -0.4217 C.2       1 <0>         0.0262
     17 N2         -4.1462   -1.5288   -0.0232 N.pl3     1 <0>        -0.5422
     18 H2         -3.8269   -1.5051    0.8924 H         1 <0>         0.4143
     19 H3          1.0039    1.9031    0.0027 H         1 <0>         0.0706
     20 H4         -0.5459    1.8868   -0.8726 H         1 <0>         0.0677
     21 H5         -0.5289    1.8773    0.9072 H         1 <0>         0.0586
     22 H6         -0.9433   -0.2249    2.5228 H         1 <0>         0.1172
     23 H7          0.2449   -1.0489    4.5159 H         1 <0>         0.1244
     24 H8          2.5903   -1.7773    4.3376 H         1 <0>         0.1244
     25 H9          3.7452   -1.6887    2.1647 H         1 <0>         0.1263
     26 H10         2.5544   -0.8726    0.1699 H         1 <0>         0.1265
     27 H11        -1.7940   -0.7522    0.8520 H         1 <0>         0.3929
     28 H12        -3.9792   -1.1232   -3.2629 H         1 <0>         0.1489
     29 H13        -6.3134   -2.0859   -2.3765 H         1 <0>         0.1458
     30 H14        -6.1598   -2.2954    0.2291 H         1 <0>         0.1728
@<TRIPOS>BOND
     1    1    2 1
     2    1   19 1
     3    1   20 1
     4    1   21 1
     5    2    3 1
     6    2    4 1
     7    2   10 1
     8    4    9 ar
     9    4    5 ar
    10    5    6 ar
    11    5   22 1
    12    6    7 ar
    13    6   23 1
    14    7    8 ar
    15    7   24 1
    16    8    9 ar
    17    8   25 1
    18    9   26 1
    19   10   11 am
    20   10   27 1
    21   11   12 2
    22   11   13 1
    23   13   17 1
    24   13   14 2
    25   14   15 1
    26   14   28 1
    27   15   16 2
    28   15   29 1
    29   16   17 1
    30   16   30 1
    31   17   18 1
@<TRIPOS>MOLECULE
ZINC05532944
   30    31     0     0     0
SMALL
USER_CHARGES
N-(1-phenylethyl)-1H-pyrrole-2-carboxamide
@<TRIPOS>ATOM
      1 C1         -3.9243   -1.6423   -1.4078 C.3       1 <0>        -0.1591
      2 C2         -3.5796   -1.2426    0.0282 C.3       1 <0>         0.1849
      3 H1         -3.3576   -2.1367    0.6109 H         1 <0>         0.1005
      4 C3         -4.7503   -0.5201    0.6434 C.ar      1 <0>        -0.0937
      5 C4         -4.9613    0.8172    0.3641 C.ar      1 <0>        -0.1179
      6 C5         -6.0377    1.4789    0.9249 C.ar      1 <0>        -0.1152
      7 C6         -6.8976    0.8058    1.7725 C.ar      1 <0>        -0.1177
      8 C7         -6.6838   -0.5303    2.0555 C.ar      1 <0>        -0.1133
      9 C8         -5.6099   -1.1931    1.4913 C.ar      1 <0>        -0.1064
     10 N1         -2.4098   -0.3607    0.0222 N.am      1 <0>        -0.7281
     11 C9         -1.1691   -0.8871    0.0080 C.2       1 <0>         0.5921
     12 O1         -1.0206   -2.0949    0.0002 O.2       1 <0>        -0.5248
     13 C10         0.0021   -0.0041    0.0020 C.2       1 <0>        -0.0631
     14 C11         1.3222   -0.4015   -0.0127 C.2       1 <0>        -0.1012
     15 C12         2.1009    0.7600   -0.0139 C.2       1 <0>        -0.2113
     16 C13         1.2616    1.8230   -0.0002 C.2       1 <0>         0.0262
     17 N2         -0.0166    1.3723    0.0096 N.pl3     1 <0>        -0.5423
     18 H2         -0.8121    1.9273    0.0165 H         1 <0>         0.4143
     19 H3         -4.1464   -0.7483   -1.9905 H         1 <0>         0.0586
     20 H4         -3.0776   -2.1650   -1.8527 H         1 <0>         0.0677
     21 H5         -4.7947   -2.2985   -1.4034 H         1 <0>         0.0706
     22 H6         -4.2872    1.3442   -0.2948 H         1 <0>         0.1170
     23 H7         -6.2049    2.5227    0.7036 H         1 <0>         0.1244
     24 H8         -7.7366    1.3236    2.2133 H         1 <0>         0.1244
     25 H9         -7.3556   -1.0562    2.7177 H         1 <0>         0.1263
     26 H10        -5.4427   -2.2369    1.7127 H         1 <0>         0.1265
     27 H11        -2.5282    0.6020    0.0285 H         1 <0>         0.3929
     28 H12         1.6862   -1.4182   -0.0222 H         1 <0>         0.1489
     29 H13         3.1800    0.8020   -0.0240 H         1 <0>         0.1458
     30 H14         1.5618    2.8604    0.0025 H         1 <0>         0.1728
@<TRIPOS>BOND
     1    1    2 1
     2    1   19 1
     3    1   20 1
     4    1   21 1
     5    2    3 1
     6    2    4 1
     7    2   10 1
     8    4    9 ar
     9    4    5 ar
    10    5    6 ar
    11    5   22 1
    12    6    7 ar
    13    6   23 1
    14    7    8 ar
    15    7   24 1
    16    8    9 ar
    17    8   25 1
    18    9   26 1
    19   10   11 am
    20   10   27 1
    21   11   12 2
    22   11   13 1
    23   13   17 1
    24   13   14 2
    25   14   15 1
    26   14   28 1
    27   15   16 2
    28   15   29 1
    29   16   17 1
    30   16   30 1
    31   17   18 1
@<TRIPOS>MOLECULE
ZINC14959097
   25    25     0     0     0
SMALL
USER_CHARGES
N,1-dimethyl-N-prop-2-ynyl-pyrrole-2-carboxamide
@<TRIPOS>ATOM
      1 C1          1.2203    4.4988    1.4680 C.3       1 <0>         0.0605
      2 N1          0.4541    3.2654    1.2735 N.pl3     1 <0>        -0.4106
      3 C2          0.9538    2.0069    1.3321 C.2       1 <0>         0.0181
      4 C3         -0.0501    1.1260    1.1069 C.2       1 <0>        -0.2102
      5 C4         -1.2228    1.8572    0.8939 C.2       1 <0>        -0.1617
      6 C5         -0.8925    3.1918    0.9978 C.2       1 <0>        -0.0565
      7 C6         -1.8098    4.3263    0.8465 C.2       1 <0>         0.5923
      8 O1         -1.3994    5.4634    0.9863 O.2       1 <0>        -0.5452
      9 N2         -3.1071    4.1094    0.5527 N.am      1 <0>        -0.6040
     10 C7         -3.6288    2.7412    0.5061 C.3       1 <0>         0.0615
     11 C8         -3.9957    5.2418    0.2800 C.3       1 <0>         0.2270
     12 C9         -3.9752    5.5458   -1.1601 C.1       1 <0>        -0.2137
     13 C10        -3.9590    5.7882   -2.3087 C.1       1 <0>        -0.1777
     14 H1          1.6875    4.7885    0.5268 H         1 <0>         0.0757
     15 H2          0.5521    5.2929    1.8014 H         1 <0>         0.1068
     16 H3          1.9912    4.3329    2.2204 H         1 <0>         0.0833
     17 H4          1.9835    1.7485    1.5306 H         1 <0>         0.1697
     18 H5          0.0393    0.0497    1.0940 H         1 <0>         0.1442
     19 H6         -2.2028    1.4529    0.6874 H         1 <0>         0.1687
     20 H7         -3.5963    2.3057    1.5048 H         1 <0>         0.0726
     21 H8         -4.6589    2.7571    0.1501 H         1 <0>         0.0785
     22 H9         -3.0195    2.1429   -0.1712 H         1 <0>         0.0851
     23 H10        -5.0114    4.9880    0.5834 H         1 <0>         0.1064
     24 H11        -3.6562    6.1131    0.8401 H         1 <0>         0.1104
     25 H12        -3.9444    6.0051   -3.3360 H         1 <0>         0.2187
@<TRIPOS>BOND
     1    1    2 1
     2    1   14 1
     3    1   15 1
     4    1   16 1
     5    2    6 1
     6    2    3 1
     7    3    4 2
     8    3   17 1
     9    4    5 1
    10    4   18 1
    11    5    6 2
    12    5   19 1
    13    6    7 1
    14    7    8 2
    15    7    9 am
    16    9   10 1
    17    9   11 1
    18   10   20 1
    19   10   21 1
    20   10   22 1
    21   11   12 1
    22   11   23 1
    23   11   24 1
    24   12   13 3
    25   13   25 1
@<TRIPOS>MOLECULE
ZINC13675228
   35    37     0     0     0
SMALL
USER_CHARGES
(5R)-5-(4-chlorophenyl)-3-(4-fluorophenyl)-4,5-dihydropyrazole-1-carbothioamide
@<TRIPOS>ATOM
      1 C1          1.1281    2.2950    2.4562 C.ar      1 <0>        -0.0900
      2 C2          1.3938    3.0306    3.5958 C.ar      1 <0>        -0.1057
      3 C3          2.1769    4.1684    3.5175 C.ar      1 <0>        -0.0259
      4 C4          2.6983    4.5661    2.2992 C.ar      1 <0>        -0.1043
      5 C5          2.4366    3.8266    1.1613 C.ar      1 <0>        -0.0713
      6 C6          1.6540    2.6897    1.2402 C.ar      1 <0>        -0.0764
      7 C7          1.3691    1.8838   -0.0009 C.3       1 <0>         0.1678
      8 H1          1.5581    2.4763   -0.8960 H         1 <0>         0.1205
      9 C8          2.2132    0.5940   -0.0159 C.3       1 <0>        -0.1333
     10 C9          1.1847   -0.5144   -0.0120 C.2       1 <0>         0.1727
     11 N1          0.0021   -0.0041    0.0020 N.2       1 <0>        -0.2711
     12 N2         -0.0168    1.3892    0.0097 N.pl3     1 <0>        -0.4329
     13 C10        -1.1236    2.1581    0.0193 C.2       1 <0>         0.6026
     14 S1         -0.9806    3.8641    0.0273 S.2       1 <0>        -0.5934
     15 N3         -2.3430    1.5841    0.0228 N.pl3     1 <0>        -0.7896
     16 C11         1.4888   -1.9573   -0.0222 C.ar      1 <0>        -0.0572
     17 C12         2.8156   -2.3943   -0.0425 C.ar      1 <0>        -0.0523
     18 C13         3.0937   -3.7448   -0.0462 C.ar      1 <0>        -0.1547
     19 C14         2.0600   -4.6680   -0.0409 C.ar      1 <0>         0.1253
     20 C15         0.7416   -4.2405   -0.0269 C.ar      1 <0>        -0.1567
     21 C16         0.4511   -2.8927   -0.0174 C.ar      1 <0>        -0.0465
     22 F1          2.3386   -5.9900   -0.0497 F         1 <0>        -0.1315
     23 Cl1         2.5056    5.0965    4.9473 Cl        1 <0>        -0.0683
     24 H2          0.5132    1.4092    2.5165 H         1 <0>         0.1163
     25 H3          0.9865    2.7196    4.5465 H         1 <0>         0.1317
     26 H4          3.3099    5.4541    2.2375 H         1 <0>         0.1364
     27 H5          2.8438    4.1367    0.2103 H         1 <0>         0.1351
     28 H6          2.8401    0.5370    0.8740 H         1 <0>         0.1182
     29 H7          2.8246    0.5451   -0.9169 H         1 <0>         0.1199
     30 H8         -2.4240    0.6175    0.0183 H         1 <0>         0.4059
     31 H9         -3.1396    2.1375    0.0297 H         1 <0>         0.4333
     32 H10         3.6218   -1.6757   -0.0508 H         1 <0>         0.1430
     33 H11         4.1191   -4.0838   -0.0577 H         1 <0>         0.1461
     34 H12        -0.0597   -4.9646   -0.0232 H         1 <0>         0.1442
     35 H13        -0.5765   -2.5607   -0.0066 H         1 <0>         0.1422
@<TRIPOS>BOND
     1    1    6 ar
     2    1    2 ar
     3    1   24 1
     4    2    3 ar
     5    2   25 1
     6    3    4 ar
     7    3   23 1
     8    4    5 ar
     9    4   26 1
    10    5    6 ar
    11    5   27 1
    12    6    7 1
    13    7    8 1
    14    7   12 1
    15    7    9 1
    16    9   10 1
    17    9   28 1
    18    9   29 1
    19   10   11 2
    20   10   16 1
    21   11   12 1
    22   12   13 1
    23   13   14 2
    24   13   15 1
    25   15   30 1
    26   15   31 1
    27   16   21 ar
    28   16   17 ar
    29   17   18 ar
    30   17   32 1
    31   18   19 ar
    32   18   33 1
    33   19   20 ar
    34   19   22 1
    35   20   21 ar
    36   20   34 1
    37   21   35 1
@<TRIPOS>MOLECULE
ZINC00478140
   24    25     0     0     0
SMALL
USER_CHARGES

@<TRIPOS>ATOM
      1 C1         -0.0154    1.3804    0.0286 C.ar      1 <0>        -0.1334
      2 C2          0.1395    0.2190    0.7632 C.ar      1 <0>        -0.0991
      3 C3          1.3439   -0.4567    0.7437 C.ar      1 <0>        -0.1202
      4 C4          2.4000    0.0314   -0.0149 C.ar      1 <0>         0.1443
      5 C5          2.2411    1.1981   -0.7516 C.ar      1 <0>        -0.1466
      6 C6          1.0341    1.8690   -0.7277 C.ar      1 <0>        -0.1001
      7 N1          3.6209   -0.6500   -0.0365 N.am      1 <0>        -0.6766
      8 C7          3.6441   -1.9943    0.0577 C.2       1 <0>         0.5906
      9 O1          2.6013   -2.6219    0.0649 O.2       1 <0>        -0.5061
     10 C8          4.9257   -2.7007    0.1517 C.2       1 <0>        -0.0669
     11 C9          5.0991   -4.0654    0.2466 C.2       1 <0>        -0.0953
     12 C10         6.4758   -4.3010    0.3131 C.2       1 <0>        -0.2114
     13 C11         7.1055   -3.1029    0.2589 C.2       1 <0>         0.0316
     14 N2          6.1750   -2.1228    0.1552 N.pl3     1 <0>        -0.5423
     15 H1          6.3588   -1.1722    0.0955 H         1 <0>         0.4156
     16 H2         -0.9596    1.9045    0.0421 H         1 <0>         0.1250
     17 H3         -0.6820   -0.1598    1.3531 H         1 <0>         0.1276
     18 H4          1.4644   -1.3634    1.3179 H         1 <0>         0.1350
     19 H5          3.0605    1.5805   -1.3421 H         1 <0>         0.1244
     20 H6          0.9098    2.7762   -1.3003 H         1 <0>         0.1274
     21 H7          4.4511   -0.1553   -0.1194 H         1 <0>         0.4041
     22 H8          4.3186   -4.8117    0.2664 H         1 <0>         0.1505
     23 H9          6.9525   -5.2667    0.3937 H         1 <0>         0.1475
     24 H10         8.1747   -2.9533    0.2890 H         1 <0>         0.1747
@<TRIPOS>BOND
     1    1    6 ar
     2    1    2 ar
     3    1   16 1
     4    2    3 ar
     5    2   17 1
     6    3    4 ar
     7    3   18 1
     8    4    5 ar
     9    4    7 1
    10    5    6 ar
    11    5   19 1
    12    6   20 1
    13    7    8 am
    14    7   21 1
    15    8    9 2
    16    8   10 1
    17   10   14 1
    18   10   11 2
    19   11   12 1
    20   11   22 1
    21   12   13 2
    22   12   23 1
    23   13   14 1
    24   13   24 1
    25   14   15 1
@<TRIPOS>MOLECULE
ZINC13675240
   32    34     0     0     0
SMALL
USER_CHARGES
(5R)-5-(4-chlorophenyl)-3-(2-thienyl)-4,5-dihydropyrazole-1-carbothioamide
@<TRIPOS>ATOM
      1 C1         -0.0126    1.0758    0.0080 C.2       1 <0>        -0.1681
      2 C2          1.1651    1.7870    0.0005 C.2       1 <0>        -0.0914
      3 C3          1.0986    3.1693    0.0086 C.2       1 <0>        -0.1371
      4 S1         -0.6644    3.4507    0.0270 S.3       1 <0>         0.1112
      5 C4         -1.1940    1.7461    0.0172 C.2       1 <0>        -0.1492
      6 C5          2.1913    4.1478    0.0031 C.2       1 <0>         0.2131
      7 N1          3.4497    3.8597   -0.0054 N.2       1 <0>        -0.2654
      8 N2          4.2874    4.9731   -0.0125 N.pl3     1 <0>        -0.4320
      9 C6          3.4614    6.1908    0.0020 C.3       1 <0>         0.1689
     10 H1          3.6580    6.7768    0.8998 H         1 <0>         0.1223
     11 C7          2.0180    5.6498    0.0129 C.3       1 <0>        -0.1319
     12 C8          3.7095    7.0145   -1.2353 C.ar      1 <0>        -0.0755
     13 C9          3.9918    6.3900   -2.4359 C.ar      1 <0>        -0.0882
     14 C10         4.2139    7.1448   -3.5723 C.ar      1 <0>        -0.1045
     15 C11         4.1648    8.5258   -3.5056 C.ar      1 <0>        -0.0263
     16 C12         3.8878    9.1504   -2.3026 C.ar      1 <0>        -0.1038
     17 C13         3.6603    8.3944   -1.1681 C.ar      1 <0>        -0.0750
     18 Cl1         4.4512    9.4747   -4.9308 Cl        1 <0>        -0.0685
     19 C14         5.6347    4.9402   -0.0251 C.2       1 <0>         0.6025
     20 S2          6.5267    6.4015   -0.0251 S.2       1 <0>        -0.5914
     21 N3          6.2798    3.7569   -0.0377 N.pl3     1 <0>        -0.7893
     22 H2          0.0021   -0.0041    0.0020 H         1 <0>         0.1435
     23 H3          2.1181    1.2790   -0.0110 H         1 <0>         0.1423
     24 H4         -2.1983    1.3487    0.0197 H         1 <0>         0.1949
     25 H5          1.4799    5.9784   -0.8763 H         1 <0>         0.1189
     26 H6          1.4948    5.9684    0.9145 H         1 <0>         0.1206
     27 H7          4.0345    5.3121   -2.4868 H         1 <0>         0.1159
     28 H8          4.4302    6.6567   -4.5111 H         1 <0>         0.1318
     29 H9          3.8496   10.2284   -2.2498 H         1 <0>         0.1367
     30 H10         3.4444    8.8818   -0.2288 H         1 <0>         0.1354
     31 H11         5.7744    2.9290   -0.0377 H         1 <0>         0.4062
     32 H12         7.2495    3.7332   -0.0468 H         1 <0>         0.4334
@<TRIPOS>BOND
     1    1    5 2
     2    1    2 1
     3    1   22 1
     4    2    3 2
     5    2   23 1
     6    3    4 1
     7    3    6 1
     8    4    5 1
     9    5   24 1
    10    6   11 1
    11    6    7 2
    12    7    8 1
    13    8    9 1
    14    8   19 1
    15    9   10 1
    16    9   11 1
    17    9   12 1
    18   11   25 1
    19   11   26 1
    20   12   17 ar
    21   12   13 ar
    22   13   14 ar
    23   13   27 1
    24   14   15 ar
    25   14   28 1
    26   15   16 ar
    27   15   18 1
    28   16   17 ar
    29   16   29 1
    30   17   30 1
    31   19   20 2
    32   19   21 1
    33   21   31 1
    34   21   32 1
@<TRIPOS>MOLECULE
ZINC13675242
   32    34     0     0     0
SMALL
USER_CHARGES
(5S)-5-(4-chlorophenyl)-3-(2-thienyl)-4,5-dihydropyrazole-1-carbothioamide
@<TRIPOS>ATOM
      1 C1          0.0021   -0.0041    0.0020 C.2       1 <0>        -0.1681
      2 C2          1.2107   -0.6612   -0.0131 C.2       1 <0>        -0.0914
      3 C3          2.3700    0.0947   -0.0201 C.2       1 <0>        -0.1371
      4 S1          1.7222    1.7584   -0.0049 S.3       1 <0>         0.1114
      5 C4         -0.0163    1.3542    0.0095 C.2       1 <0>        -0.1493
      6 C5          3.7664   -0.3539   -0.0358 C.2       1 <0>         0.2130
      7 N1          4.1536   -1.5856   -0.0405 N.2       1 <0>        -0.2654
      8 N2          5.5375   -1.7459   -0.0602 N.pl3     1 <0>        -0.4318
      9 C6          6.1710   -0.4178   -0.0591 C.3       1 <0>         0.1686
     10 H1          6.7689   -0.2749   -0.9592 H         1 <0>         0.1225
     11 C7          4.9751    0.5545   -0.0425 C.3       1 <0>        -0.1318
     12 C8          7.0192   -0.2361    1.1732 C.ar      1 <0>        -0.0752
     13 C9          6.6287   -0.8054    2.3709 C.ar      1 <0>        -0.0891
     14 C10         7.4091   -0.6438    3.5001 C.ar      1 <0>        -0.1039
     15 C11         8.5755    0.0974    3.4343 C.ar      1 <0>        -0.0266
     16 C12         8.9629    0.6716    2.2367 C.ar      1 <0>        -0.1035
     17 C13         8.1846    0.5046    1.1068 C.ar      1 <0>        -0.0753
     18 Cl1         9.5529    0.3063    4.8537 Cl        1 <0>        -0.0684
     19 C14         6.1897   -2.9253   -0.0724 C.2       1 <0>         0.6025
     20 S2          7.9014   -2.9568   -0.0883 S.2       1 <0>        -0.5915
     21 N3          5.4945   -4.0799   -0.0720 N.pl3     1 <0>        -0.7893
     22 H2         -0.9224   -0.5623    0.0082 H         1 <0>         0.1435
     23 H3          1.2537   -1.7403   -0.0196 H         1 <0>         0.1423
     24 H4         -0.8666    2.0201    0.0174 H         1 <0>         0.1949
     25 H5          4.9783    1.1798   -0.9352 H         1 <0>         0.1205
     26 H6          4.9955    1.1702    0.8568 H         1 <0>         0.1191
     27 H7          5.7159   -1.3802    2.4232 H         1 <0>         0.1159
     28 H8          7.1062   -1.0922    4.4347 H         1 <0>         0.1318
     29 H9          9.8735    1.2499    2.1846 H         1 <0>         0.1367
     30 H10         8.4871    0.9525    0.1717 H         1 <0>         0.1354
     31 H11         4.5247   -4.0621   -0.0630 H         1 <0>         0.4062
     32 H12         5.9639   -4.9287   -0.0808 H         1 <0>         0.4334
@<TRIPOS>BOND
     1    1    5 2
     2    1    2 1
     3    1   22 1
     4    2    3 2
     5    2   23 1
     6    3    4 1
     7    3    6 1
     8    4    5 1
     9    5   24 1
    10    6   11 1
    11    6    7 2
    12    7    8 1
    13    8    9 1
    14    8   19 1
    15    9   10 1
    16    9   11 1
    17    9   12 1
    18   11   25 1
    19   11   26 1
    20   12   17 ar
    21   12   13 ar
    22   13   14 ar
    23   13   27 1
    24   14   15 ar
    25   14   28 1
    26   15   16 ar
    27   15   18 1
    28   16   17 ar
    29   16   29 1
    30   17   30 1
    31   19   20 2
    32   19   21 1
    33   21   31 1
    34   21   32 1
@<TRIPOS>MOLECULE
ZINC03887001
   29    31     0     0     0
SMALL
USER_CHARGES
5-(2-furyl)-N,N-bis[5-(2-furyl)-3-(2-thienyl)-4,5-dihydropyrazol-5-yl]-3-(2-thienyl)-4,5-dihydropyrazole-1-carbothioamide
@<TRIPOS>ATOM
      1 C1          2.2311   -4.3998    2.6043 C.2       1 <0>        -0.2084
      2 C2          2.1351   -3.9725    1.2600 C.2       1 <0>        -0.1642
      3 C3          1.1639   -3.0430    1.2150 C.2       1 <0>        -0.0233
      4 O1          0.6733   -2.8814    2.4548 O.3       1 <0>        -0.1722
      5 C4          1.3128   -3.7059    3.3004 C.2       1 <0>        -0.0305
      6 C5          0.7080   -2.3036   -0.0165 C.3       1 <0>         0.2144
      7 H1          1.0219   -2.8311   -0.9172 H         1 <0>         0.1390
      8 C6          1.2483   -0.8600   -0.0200 C.3       1 <0>        -0.1339
      9 C7          0.0021   -0.0041    0.0020 C.2       1 <0>         0.2132
     10 N1         -1.0419   -0.7636    0.0070 N.2       1 <0>        -0.2618
     11 N2         -0.7527   -2.1266   -0.0028 N.pl3     1 <0>        -0.4329
     12 C8         -1.6627   -3.1209    0.0004 C.2       1 <0>         0.6056
     13 S1         -1.1470   -4.7533   -0.0123 S.2       1 <0>        -0.5925
     14 N3         -2.9786   -2.8299    0.0137 N.pl3     1 <0>        -0.7876
     15 C9         -0.0178    1.4626    0.0101 C.2       1 <0>        -0.1360
     16 C10        -1.1038    2.3205    0.0189 C.2       1 <0>        -0.0914
     17 C11        -0.8662    3.6756    0.0287 C.2       1 <0>        -0.1677
     18 C12         0.4153    4.1261    0.0191 C.2       1 <0>        -0.1494
     19 S2          1.3526    2.6070    0.0031 S.3       1 <0>         0.1110
     20 H2          2.9115   -5.1409    2.9971 H         1 <0>         0.1500
     21 H3          2.7275   -4.3252    0.4287 H         1 <0>         0.1502
     22 H4          1.1245   -3.7938    4.3602 H         1 <0>         0.2016
     23 H5          1.8276   -0.6686   -0.9232 H         1 <0>         0.1248
     24 H6          1.8527   -0.6781    0.8687 H         1 <0>         0.1203
     25 H7         -3.2708   -1.9050    0.0209 H         1 <0>         0.4066
     26 H8         -3.6335   -3.5455    0.0160 H         1 <0>         0.4336
     27 H9         -2.1129    1.9357    0.0212 H         1 <0>         0.1426
     28 H10        -1.6900    4.3739    0.0392 H         1 <0>         0.1437
     29 H11         0.7754    5.1443    0.0203 H         1 <0>         0.1951
@<TRIPOS>BOND
     1    1    5 2
     2    1    2 1
     3    1   20 1
     4    2    3 2
     5    2   21 1
     6    3    4 1
     7    3    6 1
     8    4    5 1
     9    5   22 1
    10    6    7 1
    11    6   11 1
    12    6    8 1
    13    8    9 1
    14    8   23 1
    15    8   24 1
    16    9   10 2
    17    9   15 1
    18   10   11 1
    19   11   12 1
    20   12   13 2
    21   12   14 1
    22   14   25 1
    23   14   26 1
    24   15   19 1
    25   15   16 2
    26   16   17 1
    27   16   27 1
    28   17   18 2
    29   17   28 1
    30   18   19 1
    31   18   29 1
@<TRIPOS>MOLECULE
ZINC03887002
   29    31     0     0     0
SMALL
USER_CHARGES
5-(2-furyl)-N,N-bis[5-(2-furyl)-3-(2-thienyl)-4,5-dihydropyrazol-5-yl]-3-(2-thienyl)-4,5-dihydropyrazole-1-carbothioamide
@<TRIPOS>ATOM
      1 C1          7.4052    1.8934   -2.6965 C.2       1 <0>        -0.2083
      2 C2          6.9909    1.9528   -1.3460 C.2       1 <0>        -0.1643
      3 C3          5.7851    1.3602   -1.2819 C.2       1 <0>        -0.0236
      4 O1          5.4516    0.9422   -2.5139 O.3       1 <0>        -0.1718
      5 C4          6.4277    1.2680   -3.3768 C.2       1 <0>        -0.0307
      6 C5          4.9525    1.1886   -0.0375 C.3       1 <0>         0.2146
      7 H1          5.5690    1.3040    0.8539 H         1 <0>         0.1393
      8 C6          3.7824    2.1921   -0.0279 C.3       1 <0>        -0.1337
      9 C7          2.5504    1.3157   -0.0148 C.2       1 <0>         0.2133
     10 N1          2.9049    0.0744   -0.0248 N.2       1 <0>        -0.2618
     11 N2          4.2843   -0.1224   -0.0385 N.pl3     1 <0>        -0.4329
     12 C8          4.9052   -1.3185   -0.0511 C.2       1 <0>         0.6057
     13 S1          6.6154   -1.3950   -0.0678 S.2       1 <0>        -0.5926
     14 N3          4.1798   -2.4544   -0.0506 N.pl3     1 <0>        -0.7876
     15 C9          1.1662    1.8009    0.0006 C.2       1 <0>        -0.1360
     16 C10        -0.0126    1.0758    0.0080 C.2       1 <0>        -0.0913
     17 C11        -1.2035    1.7645    0.0172 C.2       1 <0>        -0.1677
     18 C12        -1.1862    3.1227    0.0292 C.2       1 <0>        -0.1494
     19 S2          0.5624    3.4811    0.0147 S.3       1 <0>         0.1110
     20 H2          8.3293    2.2764   -3.1037 H         1 <0>         0.1500
     21 H3          7.5374    2.3906   -0.5238 H         1 <0>         0.1501
     22 H4          6.4295    1.0596   -4.4365 H         1 <0>         0.2016
     23 H5          3.8007    2.8125   -0.9239 H         1 <0>         0.1206
     24 H6          3.8203    2.8117    0.8681 H         1 <0>         0.1244
     25 H7          3.2108   -2.4111   -0.0411 H         1 <0>         0.4066
     26 H8          4.6267   -3.3153   -0.0597 H         1 <0>         0.4336
     27 H9          0.0021   -0.0041    0.0020 H         1 <0>         0.1426
     28 H10        -2.1424    1.2308    0.0187 H         1 <0>         0.1437
     29 H11        -2.0186    3.8107    0.0407 H         1 <0>         0.1951
@<TRIPOS>BOND
     1    1    5 2
     2    1    2 1
     3    1   20 1
     4    2    3 2
     5    2   21 1
     6    3    4 1
     7    3    6 1
     8    4    5 1
     9    5   22 1
    10    6    7 1
    11    6   11 1
    12    6    8 1
    13    8    9 1
    14    8   23 1
    15    8   24 1
    16    9   10 2
    17    9   15 1
    18   10   11 1
    19   11   12 1
    20   12   13 2
    21   12   14 1
    22   14   25 1
    23   14   26 1
    24   15   19 1
    25   15   16 2
    26   16   17 1
    27   16   27 1
    28   17   18 2
    29   17   28 1
    30   18   19 1
    31   18   29 1
@<TRIPOS>MOLECULE
ZINC13675232
   38    40     0     0     0
SMALL
USER_CHARGES
(5S)-3-(4-fluorophenyl)-5-(p-tolyl)-4,5-dihydropyrazole-1-carbothioamide
@<TRIPOS>ATOM
      1 C1          3.7112   -0.7071   -0.0382 C.3       1 <0>        -0.1169
      2 C2          2.3960    0.0285   -0.0217 C.ar      1 <0>        -0.0769
      3 C3          1.2084   -0.6789   -0.0132 C.ar      1 <0>        -0.1153
      4 C4          0.0021   -0.0041    0.0020 C.ar      1 <0>        -0.0796
      5 C5         -0.0167    1.3781    0.0096 C.ar      1 <0>        -0.0860
      6 C6          1.1709    2.0855    0.0021 C.ar      1 <0>        -0.0979
      7 C7          2.3773    1.4107   -0.0145 C.ar      1 <0>        -0.1169
      8 C8         -1.3319    2.1138    0.0199 C.3       1 <0>         0.1685
      9 H1         -2.1363    1.4545    0.3458 H         1 <0>         0.1172
     10 C9         -1.6367    2.6995   -1.3731 C.3       1 <0>        -0.1325
     11 C10        -1.6987    4.1914   -1.1353 C.2       1 <0>         0.1710
     12 N1         -1.4813    4.4381    0.1101 N.2       1 <0>        -0.2714
     13 N2         -1.2538    3.3021    0.8843 N.pl3     1 <0>        -0.4314
     14 C11        -1.0028    3.2932    2.2085 C.2       1 <0>         0.6031
     15 S1         -0.7427    1.8086    3.0204 S.2       1 <0>        -0.5942
     16 N3         -0.9567    4.4530    2.8934 N.pl3     1 <0>        -0.7911
     17 C12        -1.9671    5.2075   -2.1698 C.ar      1 <0>        -0.0558
     18 C13        -2.1839    4.8196   -3.4942 C.ar      1 <0>        -0.0527
     19 C14        -2.4402    5.7738   -4.4560 C.ar      1 <0>        -0.1546
     20 C15        -2.4720    7.1163   -4.1130 C.ar      1 <0>         0.1244
     21 C16        -2.2516    7.5077   -2.8018 C.ar      1 <0>        -0.1567
     22 C17        -2.0000    6.5622   -1.8302 C.ar      1 <0>        -0.0471
     23 F1         -2.7184    8.0472   -5.0607 F         1 <0>        -0.1319
     24 H2          4.0180   -0.8797   -1.0698 H         1 <0>         0.0707
     25 H3          4.4678   -0.1102    0.4709 H         1 <0>         0.0658
     26 H4          3.5989   -1.6636    0.4722 H         1 <0>         0.0678
     27 H5          1.2231   -1.7588   -0.0188 H         1 <0>         0.1238
     28 H6         -0.9258   -0.5567    0.0083 H         1 <0>         0.1239
     29 H7          1.1563    3.1654    0.0077 H         1 <0>         0.1056
     30 H8          3.3051    1.9634   -0.0208 H         1 <0>         0.1190
     31 H9         -0.8373    2.4568   -2.0732 H         1 <0>         0.1174
     32 H10        -2.5940    2.3310   -1.7417 H         1 <0>         0.1178
     33 H11        -1.1041    5.2942    2.4334 H         1 <0>         0.4053
     34 H12        -0.7761    4.4466    3.8464 H         1 <0>         0.4326
     35 H13        -2.1553    3.7740   -3.7634 H         1 <0>         0.1429
     36 H14        -2.6120    5.4748   -5.4795 H         1 <0>         0.1459
     37 H15        -2.2772    8.5553   -2.5406 H         1 <0>         0.1440
     38 H16        -1.8284    6.8684   -0.8089 H         1 <0>         0.1421
@<TRIPOS>BOND
     1    1    2 1
     2    1   24 1
     3    1   25 1
     4    1   26 1
     5    2    7 ar
     6    2    3 ar
     7    3    4 ar
     8    3   27 1
     9    4    5 ar
    10    4   28 1
    11    5    6 ar
    12    5    8 1
    13    6    7 ar
    14    6   29 1
    15    7   30 1
    16    8    9 1
    17    8   13 1
    18    8   10 1
    19   10   11 1
    20   10   31 1
    21   10   32 1
    22   11   12 2
    23   11   17 1
    24   12   13 1
    25   13   14 1
    26   14   15 2
    27   14   16 1
    28   16   33 1
    29   16   34 1
    30   17   22 ar
    31   17   18 ar
    32   18   19 ar
    33   18   35 1
    34   19   20 ar
    35   19   36 1
    36   20   21 ar
    37   20   23 1
    38   21   22 ar
    39   21   37 1
    40   22   38 1
@<TRIPOS>MOLECULE
ZINC13675234
   38    40     0     0     0
SMALL
USER_CHARGES
(5R)-3-(4-fluorophenyl)-5-(p-tolyl)-4,5-dihydropyrazole-1-carbothioamide
@<TRIPOS>ATOM
      1 C1         -0.0184    1.5028    0.0103 C.3       1 <0>        -0.1171
      2 C2          0.0021   -0.0041    0.0020 C.ar      1 <0>        -0.0765
      3 C3         -0.0057   -0.6888   -1.1988 C.ar      1 <0>        -0.1171
      4 C4          0.0179   -2.0709   -1.2065 C.ar      1 <0>        -0.0976
      5 C5          0.0392   -2.7685   -0.0132 C.ar      1 <0>        -0.0864
      6 C6          0.0412   -2.0838    1.1877 C.ar      1 <0>        -0.0794
      7 C7          0.0229   -0.7016    1.1953 C.ar      1 <0>        -0.1155
      8 C8          0.0597   -4.2753   -0.0215 C.3       1 <0>         0.1686
      9 H1          0.3998   -4.6585    0.9406 H         1 <0>         0.1172
     10 C9         -1.3337   -4.8349   -0.3702 C.3       1 <0>        -0.1326
     11 C10        -1.1059   -5.6089   -1.6489 C.2       1 <0>         0.1710
     12 N1          0.1352   -5.5293   -1.9848 N.2       1 <0>        -0.2715
     13 N2          0.9147   -4.7756   -1.1097 N.pl3     1 <0>        -0.4313
     14 C11         2.2359   -4.5429   -1.2387 C.2       1 <0>         0.6031
     15 S1          3.0554   -3.5923   -0.0744 S.2       1 <0>        -0.5943
     16 N3          2.9120   -5.0585   -2.2844 N.pl3     1 <0>        -0.7911
     17 C12        -2.1444   -6.3419   -2.3964 C.ar      1 <0>        -0.0558
     18 C13        -3.4613   -6.3619   -1.9306 C.ar      1 <0>        -0.0526
     19 C14        -4.4289   -7.0454   -2.6362 C.ar      1 <0>        -0.1546
     20 C15        -4.0951   -7.7201   -3.8000 C.ar      1 <0>         0.1244
     21 C16        -2.7892   -7.7078   -4.2645 C.ar      1 <0>        -0.1567
     22 C17        -1.8140   -7.0238   -3.5701 C.ar      1 <0>        -0.0471
     23 F1         -5.0464   -8.3920   -4.4846 F         1 <0>        -0.1318
     24 H2          1.0042    1.8801    0.0026 H         1 <0>         0.0719
     25 H3         -0.5455    1.8639   -0.8728 H         1 <0>         0.0654
     26 H4         -0.5286    1.8543    0.9071 H         1 <0>         0.0672
     27 H5         -0.0264   -0.1439   -2.1310 H         1 <0>         0.1190
     28 H6          0.0160   -2.6059   -2.1447 H         1 <0>         0.1056
     29 H7          0.0575   -2.6288    2.1200 H         1 <0>         0.1239
     30 H8          0.0244   -0.1667    2.1335 H         1 <0>         0.1238
     31 H9         -1.6884   -5.4972    0.4196 H         1 <0>         0.1178
     32 H10        -2.0415   -4.0226   -0.5358 H         1 <0>         0.1174
     33 H11         2.4477   -5.5971   -2.9441 H         1 <0>         0.4053
     34 H12         3.8629   -4.8910   -2.3773 H         1 <0>         0.4326
     35 H13        -3.7217   -5.8399   -1.0217 H         1 <0>         0.1429
     36 H14        -5.4480   -7.0585   -2.2791 H         1 <0>         0.1459
     37 H15        -2.5351   -8.2354   -5.1719 H         1 <0>         0.1440
     38 H16        -0.7967   -7.0155   -3.9326 H         1 <0>         0.1421
@<TRIPOS>BOND
     1    1    2 1
     2    1   24 1
     3    1   25 1
     4    1   26 1
     5    2    7 ar
     6    2    3 ar
     7    3    4 ar
     8    3   27 1
     9    4    5 ar
    10    4   28 1
    11    5    6 ar
    12    5    8 1
    13    6    7 ar
    14    6   29 1
    15    7   30 1
    16    8    9 1
    17    8   13 1
    18    8   10 1
    19   10   11 1
    20   10   31 1
    21   10   32 1
    22   11   12 2
    23   11   17 1
    24   12   13 1
    25   13   14 1
    26   14   15 2
    27   14   16 1
    28   16   33 1
    29   16   34 1
    30   17   22 ar
    31   17   18 ar
    32   18   19 ar
    33   18   35 1
    34   19   20 ar
    35   19   36 1
    36   20   21 ar
    37   20   23 1
    38   21   22 ar
    39   21   37 1
    40   22   38 1
@<TRIPOS>MOLECULE
ZINC13675230
   35    37     0     0     0
SMALL
USER_CHARGES
(5S)-5-(4-chlorophenyl)-3-(4-fluorophenyl)-4,5-dihydropyrazole-1-carbothioamide
@<TRIPOS>ATOM
      1 C1          1.1476    3.8220    0.0117 C.ar      1 <0>        -0.0737
      2 C2          1.1670    2.4400    0.0040 C.ar      1 <0>        -0.1038
      3 C3         -0.0215    1.7317    0.0116 C.ar      1 <0>        -0.0266
      4 C4         -1.2287    2.4074    0.0210 C.ar      1 <0>        -0.1046
      5 C5         -1.2468    3.7894    0.0353 C.ar      1 <0>        -0.0899
      6 C6         -0.0590    4.4966    0.0273 C.ar      1 <0>        -0.0754
      7 C7         -0.0794    6.0034    0.0362 C.3       1 <0>         0.1670
      8 H1          0.8666    6.4008   -0.3316 H         1 <0>         0.1206
      9 C8         -0.3765    6.5336    1.4528 C.3       1 <0>        -0.1322
     10 C9         -1.6727    7.3011    1.2862 C.2       1 <0>         0.1726
     11 N1         -2.0536    7.2423    0.0570 N.2       1 <0>        -0.2711
     12 N2         -1.2022    6.5108   -0.7685 N.pl3     1 <0>        -0.4329
     13 C10        -1.3781    6.3021   -2.0883 C.2       1 <0>         0.6023
     14 S1         -0.2377    5.3768   -2.9682 S.2       1 <0>        -0.5929
     15 N3         -2.4520    6.8218   -2.7154 N.pl3     1 <0>        -0.7896
     16 C11        -2.3870    8.0081    2.3654 C.ar      1 <0>        -0.0572
     17 C12        -1.8791    7.9972    3.6668 C.ar      1 <0>        -0.0522
     18 C13        -2.5491    8.6637    4.6709 C.ar      1 <0>        -0.1547
     19 C14        -3.7295    9.3350    4.3931 C.ar      1 <0>         0.1253
     20 C15        -4.2408    9.3452    3.1049 C.ar      1 <0>        -0.1568
     21 C16        -3.5772    8.6864    2.0916 C.ar      1 <0>        -0.0465
     22 F1         -4.3840    9.9823    5.3819 F         1 <0>        -0.1315
     23 Cl1         0.0021   -0.0041    0.0020 Cl        1 <0>        -0.0684
     24 H2          2.0753    4.3750    0.0058 H         1 <0>         0.1350
     25 H3          2.1097    1.9131   -0.0075 H         1 <0>         0.1364
     26 H4         -2.1568    1.8551    0.0223 H         1 <0>         0.1316
     27 H5         -2.1891    4.3169    0.0479 H         1 <0>         0.1160
     28 H6         -0.5077    5.7068    2.1508 H         1 <0>         0.1183
     29 H7          0.4218    7.1956    1.7885 H         1 <0>         0.1200
     30 H8         -3.0981    7.3460   -2.2169 H         1 <0>         0.4059
     31 H9         -2.5786    6.6716   -3.6653 H         1 <0>         0.4333
     32 H10        -0.9616    7.4711    3.8852 H         1 <0>         0.1430
     33 H11        -2.1555    8.6592    5.6766 H         1 <0>         0.1461
     34 H12        -5.1609    9.8699    2.8945 H         1 <0>         0.1442
     35 H13        -3.9769    8.6944    1.0883 H         1 <0>         0.1422
@<TRIPOS>BOND
     1    1    6 ar
     2    1    2 ar
     3    1   24 1
     4    2    3 ar
     5    2   25 1
     6    3    4 ar
     7    3   23 1
     8    4    5 ar
     9    4   26 1
    10    5    6 ar
    11    5   27 1
    12    6    7 1
    13    7    8 1
    14    7   12 1
    15    7    9 1
    16    9   10 1
    17    9   28 1
    18    9   29 1
    19   10   11 2
    20   10   16 1
    21   11   12 1
    22   12   13 1
    23   13   14 2
    24   13   15 1
    25   15   30 1
    26   15   31 1
    27   16   21 ar
    28   16   17 ar
    29   17   18 ar
    30   17   32 1
    31   18   19 ar
    32   18   33 1
    33   19   20 ar
    34   19   22 1
    35   20   21 ar
    36   20   34 1
    37   21   35 1
@<TRIPOS>MOLECULE
ZINC06755699
   43    45     0     0     0
SMALL
USER_CHARGES
1-[3-(4-chlorophenyl)-5-(4-methoxyphenyl)-4,5-dihydropyrazol-1-yl]propan-1-one
@<TRIPOS>ATOM
      1 C1          0.0021   -0.0041    0.0020 C.3       1 <0>        -0.1411
      2 C2         -0.0187    1.5258    0.0104 C.3       1 <0>        -0.1301
      3 C3         -0.7240    2.0118    1.2503 C.2       1 <0>         0.5501
      4 O1         -1.1667    1.2130    2.0488 O.2       1 <0>        -0.5068
      5 N1         -0.8631    3.3339    1.4720 N.am      1 <0>        -0.4661
      6 C4         -1.5322    3.9413    2.6334 C.3       1 <0>         0.1545
      7 H1         -1.0244    3.6638    3.5571 H         1 <0>         0.1026
      8 C5         -1.3977    5.4554    2.3770 C.3       1 <0>        -0.1267
      9 C6         -0.6559    5.5376    1.0620 C.2       1 <0>         0.1370
     10 N2         -0.4021    4.3488    0.6360 N.2       1 <0>        -0.2312
     11 C7         -0.2810    6.7865    0.3731 C.ar      1 <0>        -0.0298
     12 C8         -0.6165    8.0228    0.9302 C.ar      1 <0>        -0.0759
     13 C9         -0.2580    9.1870    0.2837 C.ar      1 <0>        -0.1111
     14 C10         0.4235    9.1322   -0.9207 C.ar      1 <0>        -0.0196
     15 C11         0.7537    7.9096   -1.4814 C.ar      1 <0>        -0.1120
     16 C12         0.4061    6.7381   -0.8423 C.ar      1 <0>        -0.0680
     17 Cl1         0.8653   10.6023   -1.7314 Cl        1 <0>        -0.0615
     18 C13        -2.9829    3.5360    2.6816 C.ar      1 <0>        -0.1301
     19 C14        -3.7125    3.4423    1.5109 C.ar      1 <0>        -0.0602
     20 C15        -5.0410    3.0655    1.5519 C.ar      1 <0>        -0.2053
     21 C16        -5.6459    2.7920    2.7701 C.ar      1 <0>         0.1344
     22 C17        -4.9131    2.8923    3.9438 C.ar      1 <0>        -0.1483
     23 C18        -3.5834    3.2641    3.8970 C.ar      1 <0>        -0.0579
     24 O2         -6.9540    2.4261    2.8136 O.3       1 <0>        -0.3160
     25 C19        -7.6463    2.3435    1.5662 C.3       1 <0>         0.0262
     26 H2         -1.0205   -0.3814    0.0098 H         1 <0>         0.0611
     27 H3          0.5123   -0.3556   -0.8948 H         1 <0>         0.0654
     28 H4          0.5293   -0.3651    0.8851 H         1 <0>         0.0619
     29 H5          1.0039    1.9031    0.0027 H         1 <0>         0.0981
     30 H6         -0.5459    1.8868   -0.8726 H         1 <0>         0.0968
     31 H7         -0.8223    5.9314    3.1710 H         1 <0>         0.1100
     32 H8         -2.3817    5.9164    2.2903 H         1 <0>         0.1091
     33 H9         -1.1516    8.0669    1.8673 H         1 <0>         0.1397
     34 H10        -0.5132   10.1436    0.7154 H         1 <0>         0.1412
     35 H11         1.2849    7.8737   -2.4210 H         1 <0>         0.1404
     36 H12         0.6642    5.7854   -1.2806 H         1 <0>         0.1431
     37 H13        -3.2423    3.6595    0.5632 H         1 <0>         0.1165
     38 H14        -5.6093    2.9881    0.6369 H         1 <0>         0.1288
     39 H15        -5.3817    2.6796    4.8934 H         1 <0>         0.1345
     40 H16        -3.0125    3.3419    4.8104 H         1 <0>         0.1317
     41 H17        -8.6788    2.0422    1.7430 H         1 <0>         0.1025
     42 H18        -7.6307    3.3173    1.0768 H         1 <0>         0.0562
     43 H19        -7.1575    1.6079    0.9274 H         1 <0>         0.0561
@<TRIPOS>BOND
     1    1    2 1
     2    1   26 1
     3    1   27 1
     4    1   28 1
     5    2    3 1
     6    2   29 1
     7    2   30 1
     8    3    4 2
     9    3    5 am
    10    5   10 1
    11    5    6 1
    12    6    7 1
    13    6    8 1
    14    6   18 1
    15    8    9 1
    16    8   31 1
    17    8   32 1
    18    9   10 2
    19    9   11 1
    20   11   16 ar
    21   11   12 ar
    22   12   13 ar
    23   12   33 1
    24   13   14 ar
    25   13   34 1
    26   14   15 ar
    27   14   17 1
    28   15   16 ar
    29   15   35 1
    30   16   36 1
    31   18   23 ar
    32   18   19 ar
    33   19   20 ar
    34   19   37 1
    35   20   21 ar
    36   20   38 1
    37   21   22 ar
    38   21   24 1
    39   22   23 ar
    40   22   39 1
    41   23   40 1
    42   24   25 1
    43   25   41 1
    44   25   42 1
    45   25   43 1
@<TRIPOS>MOLECULE
ZINC06755708
   43    45     0     0     0
SMALL
USER_CHARGES
1-[3-(4-chlorophenyl)-5-(4-methoxyphenyl)-4,5-dihydropyrazol-1-yl]propan-1-one
@<TRIPOS>ATOM
      1 C1         -0.0127    1.0858    0.0080 C.3       1 <0>        -0.1411
      2 C2         -0.7288    1.5792    1.2668 C.3       1 <0>        -0.1301
      3 C3         -0.7493    3.0861    1.2751 C.2       1 <0>         0.5501
      4 O1         -0.2410    3.7046    0.3637 O.2       1 <0>        -0.5067
      5 N1         -1.3323    3.7465    2.2951 N.am      1 <0>        -0.4662
      6 C4         -1.4224    5.2093    2.4275 C.3       1 <0>         0.1544
      7 H1         -0.4276    5.6516    2.4810 H         1 <0>         0.1027
      8 C5         -2.1758    5.4062    3.7579 C.3       1 <0>        -0.1265
      9 C6         -2.4344    3.9972    4.2419 C.2       1 <0>         0.1370
     10 N2         -1.9535    3.1557    3.3935 N.2       1 <0>        -0.2312
     11 C7         -3.1361    3.6413    5.4892 C.ar      1 <0>        -0.0298
     12 C8         -3.6178    4.6443    6.3338 C.ar      1 <0>        -0.0758
     13 C9         -4.2777    4.3047    7.4961 C.ar      1 <0>        -0.1111
     14 C10        -4.4531    2.9727    7.8325 C.ar      1 <0>        -0.0196
     15 C11        -3.9733    1.9736    7.0021 C.ar      1 <0>        -0.1121
     16 C12        -3.3167    2.2997    5.8341 C.ar      1 <0>        -0.0680
     17 Cl1        -5.2785    2.5538    9.3011 Cl        1 <0>        -0.0615
     18 C13        -2.2053    5.7983    1.2824 C.ar      1 <0>        -0.1304
     19 C14        -3.3128    5.1334    0.7894 C.ar      1 <0>        -0.0599
     20 C15        -4.0355    5.6740   -0.2565 C.ar      1 <0>        -0.2055
     21 C16        -3.6423    6.8792   -0.8199 C.ar      1 <0>         0.1345
     22 C17        -2.5274    7.5416   -0.3271 C.ar      1 <0>        -0.1484
     23 C18        -1.8116    6.9998    0.7229 C.ar      1 <0>        -0.0578
     24 O2         -4.3479    7.4099   -1.8531 O.3       1 <0>        -0.3161
     25 C19        -5.4844    6.6731   -2.3087 C.3       1 <0>         0.0262
     26 H2          0.0021   -0.0041    0.0020 H         1 <0>         0.0654
     27 H3          1.0099    1.4631    0.0003 H         1 <0>         0.0619
     28 H4         -0.5399    1.4469   -0.8751 H         1 <0>         0.0611
     29 H5         -1.7514    1.2020    1.2746 H         1 <0>         0.0968
     30 H6         -0.2017    1.2182    2.1499 H         1 <0>         0.0981
     31 H7         -1.5556    5.9479    4.4720 H         1 <0>         0.1098
     32 H8         -3.1160    5.9316    3.5907 H         1 <0>         0.1094
     33 H9         -3.4774    5.6834    6.0750 H         1 <0>         0.1398
     34 H10        -4.6545    5.0792    8.1478 H         1 <0>         0.1412
     35 H11        -4.1133    0.9368    7.2701 H         1 <0>         0.1404
     36 H12        -2.9427    1.5196    5.1876 H         1 <0>         0.1431
     37 H13        -3.6155    4.1926    1.2250 H         1 <0>         0.1164
     38 H14        -4.9029    5.1562   -0.6386 H         1 <0>         0.1288
     39 H15        -2.2191    8.4798   -0.7643 H         1 <0>         0.1345
     40 H16        -0.9436    7.5151    1.1069 H         1 <0>         0.1316
     41 H17        -6.1981    6.5643   -1.4920 H         1 <0>         0.0562
     42 H18        -5.9557    7.2061   -3.1345 H         1 <0>         0.1025
     43 H19        -5.1663    5.6870   -2.6471 H         1 <0>         0.0560
@<TRIPOS>BOND
     1    1    2 1
     2    1   26 1
     3    1   27 1
     4    1   28 1
     5    2    3 1
     6    2   29 1
     7    2   30 1
     8    3    4 2
     9    3    5 am
    10    5   10 1
    11    5    6 1
    12    6    7 1
    13    6    8 1
    14    6   18 1
    15    8    9 1
    16    8   31 1
    17    8   32 1
    18    9   10 2
    19    9   11 1
    20   11   16 ar
    21   11   12 ar
    22   12   13 ar
    23   12   33 1
    24   13   14 ar
    25   13   34 1
    26   14   15 ar
    27   14   17 1
    28   15   16 ar
    29   15   35 1
    30   16   36 1
    31   18   23 ar
    32   18   19 ar
    33   19   20 ar
    34   19   37 1
    35   20   21 ar
    36   20   38 1
    37   21   22 ar
    38   21   24 1
    39   22   23 ar
    40   22   39 1
    41   23   40 1
    42   24   25 1
    43   25   41 1
    44   25   42 1
    45   25   43 1
@<TRIPOS>MOLECULE
ZINC40829296
   31    33     0     0     0
SMALL
USER_CHARGES

@<TRIPOS>ATOM
      1 C1         -0.0167    1.3786    0.0096 C.ar      1 <0>        -0.1778
      2 C2          1.1695    2.0894    0.0021 C.ar      1 <0>        -0.0723
      3 C3          2.3774    1.4200   -0.0130 C.ar      1 <0>        -0.1939
      4 C4          2.3998    0.0311   -0.0206 C.ar      1 <0>         0.2129
      5 C5          1.2064   -0.6798   -0.0130 C.ar      1 <0>        -0.1989
      6 C6          0.0021   -0.0041    0.0020 C.ar      1 <0>        -0.0724
      7 N1          3.6196   -0.6492   -0.0363 N.pl3     1 <0>        -0.7480
      8 C7          3.6414   -2.1140   -0.0443 C.3       1 <0>         0.1900
      9 C8          5.0695   -2.5950   -0.0611 C.2       1 <0>         0.0558
     10 C9          5.7601   -2.9205   -1.1652 C.2       1 <0>        -0.1713
     11 C10         7.0967   -3.3315   -0.7286 C.ar      1 <0>        -0.1141
     12 C11         8.2422   -3.7721   -1.3943 C.ar      1 <0>        -0.0677
     13 C12         9.3631   -4.0872   -0.6794 C.ar      1 <0>        -0.1465
     14 C13         9.3725   -3.9728    0.7041 C.ar      1 <0>        -0.0936
     15 C14         8.2535   -3.5400    1.3809 C.ar      1 <0>        -0.1323
     16 C15         7.1010   -3.2138    0.6732 C.ar      1 <0>         0.1027
     17 N2          5.8561   -2.7592    1.0465 N.pl3     1 <0>        -0.5883
     18 H1          5.5775   -2.5833    1.9588 H         1 <0>         0.4152
     19 H2         -0.9598    1.9046    0.0260 H         1 <0>         0.1184
     20 H3          1.1513    3.1692    0.0077 H         1 <0>         0.1211
     21 H4          3.3034    1.9757   -0.0192 H         1 <0>         0.1185
     22 H5          1.2204   -1.7597   -0.0193 H         1 <0>         0.1195
     23 H6         -0.9261   -0.5561    0.0079 H         1 <0>         0.1208
     24 H7          4.4523   -0.1517   -0.0419 H         1 <0>         0.4018
     25 H8          3.1419   -2.4897    0.8486 H         1 <0>         0.0699
     26 H9          3.1243   -2.4802   -0.9312 H         1 <0>         0.0870
     27 H10         5.3990   -2.8858   -2.1824 H         1 <0>         0.1489
     28 H11         8.2421   -3.8639   -2.4704 H         1 <0>         0.1234
     29 H12        10.2488   -4.4283   -1.1947 H         1 <0>         0.1241
     30 H13        10.2660   -4.2259    1.2554 H         1 <0>         0.1267
     31 H14         8.2706   -3.4547    2.4574 H         1 <0>         0.1205
@<TRIPOS>BOND
     1    1    6 ar
     2    1    2 ar
     3    1   19 1
     4    2    3 ar
     5    2   20 1
     6    3    4 ar
     7    3   21 1
     8    4    5 ar
     9    4    7 1
    10    5    6 ar
    11    5   22 1
    12    6   23 1
    13    7    8 1
    14    7   24 1
    15    8    9 1
    16    8   25 1
    17    8   26 1
    18    9   17 1
    19    9   10 2
    20   10   11 1
    21   10   27 1
    22   11   16 ar
    23   11   12 ar
    24   12   13 ar
    25   12   28 1
    26   13   14 ar
    27   13   29 1
    28   14   15 ar
    29   14   30 1
    30   15   16 ar
    31   15   31 1
    32   16   17 1
    33   17   18 1
@<TRIPOS>MOLECULE
ZINC00384465
   30    32     0     0     0
SMALL
USER_CHARGES

@<TRIPOS>ATOM
      1 C1         -0.0154    1.3804    0.0286 C.ar      1 <0>        -0.1318
      2 C2          0.1395    0.2190    0.7632 C.ar      1 <0>        -0.0990
      3 C3          1.3439   -0.4567    0.7437 C.ar      1 <0>        -0.1195
      4 C4          2.4001    0.0314   -0.0149 C.ar      1 <0>         0.1419
      5 C5          2.2411    1.1982   -0.7516 C.ar      1 <0>        -0.1445
      6 C6          1.0341    1.8690   -0.7277 C.ar      1 <0>        -0.0999
      7 N1          3.6208   -0.6500   -0.0365 N.am      1 <0>        -0.6725
      8 C7          3.6440   -1.9942    0.0577 C.2       1 <0>         0.5860
      9 O1          2.6017   -2.6216    0.0649 O.2       1 <0>        -0.4980
     10 C8          4.9289   -2.7025    0.1519 C.2       1 <0>         0.0051
     11 C9          5.0809   -4.0497    0.2450 C.2       1 <0>        -0.0914
     12 C10         6.4684   -4.3231    0.3148 C.ar      1 <0>        -0.1236
     13 C11         7.2119   -5.5059    0.4199 C.ar      1 <0>        -0.0570
     14 C12         8.5742   -5.4492    0.4678 C.ar      1 <0>        -0.1479
     15 C13         9.2339   -4.2276    0.4134 C.ar      1 <0>        -0.0811
     16 C14         8.5257   -3.0515    0.3101 C.ar      1 <0>        -0.1360
     17 C15         7.1347   -3.0833    0.2595 C.ar      1 <0>         0.1182
     18 N2          6.1745   -2.1050    0.1539 N.pl3     1 <0>        -0.5808
     19 H1          6.3437   -1.1518    0.0935 H         1 <0>         0.4166
     20 H2         -0.9596    1.9045    0.0421 H         1 <0>         0.1255
     21 H3         -0.6820   -0.1598    1.3531 H         1 <0>         0.1282
     22 H4          1.4644   -1.3634    1.3179 H         1 <0>         0.1351
     23 H5          3.0605    1.5805   -1.3421 H         1 <0>         0.1251
     24 H6          0.9098    2.7763   -1.3003 H         1 <0>         0.1280
     25 H7          4.4511   -0.1552   -0.1194 H         1 <0>         0.4061
     26 H8          4.2861   -4.7806    0.2628 H         1 <0>         0.1588
     27 H9          6.7079   -6.4601    0.4631 H         1 <0>         0.1279
     28 H10         9.1452   -6.3623    0.5491 H         1 <0>         0.1270
     29 H11        10.3128   -4.2003    0.4528 H         1 <0>         0.1297
     30 H12         9.0476   -2.1069    0.2685 H         1 <0>         0.1240
@<TRIPOS>BOND
     1    1    6 ar
     2    1    2 ar
     3    1   20 1
     4    2    3 ar
     5    2   21 1
     6    3    4 ar
     7    3   22 1
     8    4    5 ar
     9    4    7 1
    10    5    6 ar
    11    5   23 1
    12    6   24 1
    13    7    8 am
    14    7   25 1
    15    8    9 2
    16    8   10 1
    17   10   18 1
    18   10   11 2
    19   11   12 1
    20   11   26 1
    21   12   17 ar
    22   12   13 ar
    23   13   14 ar
    24   13   27 1
    25   14   15 ar
    26   14   28 1
    27   15   16 ar
    28   15   29 1
    29   16   17 ar
    30   16   30 1
    31   17   18 1
    32   18   19 1
@<TRIPOS>MOLECULE
ZINC13807947
   35    37     0     0     0
SMALL
USER_CHARGES
N-(1H-indol-2-ylmethyl)-1-phenyl-methanamine
@<TRIPOS>ATOM
      1 C1          0.5769   -3.3010    5.4463 C.ar      1 <0>        -0.0817
      2 C2         -0.6810   -3.1022    4.9086 C.ar      1 <0>        -0.1144
      3 C3         -0.8138   -2.6705    3.6021 C.ar      1 <0>        -0.0919
      4 C4          0.3112   -2.4381    2.8332 C.ar      1 <0>        -0.1696
      5 C5          1.5689   -2.6424    3.3691 C.ar      1 <0>        -0.0935
      6 C6          1.7019   -3.0686    4.6773 C.ar      1 <0>        -0.1150
      7 C7          0.1663   -1.9679    1.4087 C.3       1 <0>         0.0500
      8 C8          0.0021   -0.0041    0.0020 C.3       1 <0>         0.0745
      9 C9         -0.0184    1.5028    0.0103 C.2       1 <0>        -0.0192
     10 C10        -1.1279    2.2584    0.0191 C.2       1 <0>        -0.1226
     11 C11        -0.6932    3.6573    0.0283 C.ar      1 <0>        -0.1256
     12 C12        -1.3638    4.8819    0.0420 C.ar      1 <0>        -0.0609
     13 C13        -0.6495    6.0465    0.0421 C.ar      1 <0>        -0.1369
     14 C14         0.7386    6.0223    0.0287 C.ar      1 <0>        -0.0725
     15 C15         1.4203    4.8255    0.0149 C.ar      1 <0>        -0.1367
     16 C16         0.7131    3.6273    0.0148 C.ar      1 <0>         0.1191
     17 N1          1.0912    2.3034    0.0040 N.pl3     1 <0>        -0.5911
     18 H1          2.0076    1.9857   -0.0068 H         1 <0>         0.4175
     19 H2          0.6808   -3.6376    6.4672 H         1 <0>         0.1364
     20 H3         -1.5599   -3.2838    5.5093 H         1 <0>         0.1368
     21 H4         -1.7966   -2.5152    3.1820 H         1 <0>         0.1326
     22 H5          2.4478   -2.4650    2.7669 H         1 <0>         0.1305
     23 H6          2.6847   -3.2236    5.0975 H         1 <0>         0.1361
     24 H7         -0.7630   -2.3552    0.9910 H         1 <0>         0.1400
     25 H8          1.0084   -2.3302    0.8191 H         1 <0>         0.1371
     26 H9         -0.9284   -0.3777   -0.4254 H         1 <0>         0.1546
     27 H10         0.8431   -0.3527   -0.5974 H         1 <0>         0.1388
     28 H11        -2.1475    1.9025    0.0212 H         1 <0>         0.1581
     29 H12        -2.4435    4.9084    0.0521 H         1 <0>         0.1303
     30 H13        -1.1687    6.9934    0.0530 H         1 <0>         0.1329
     31 H14         1.2894    6.9513    0.0290 H         1 <0>         0.1356
     32 H15         2.5003    4.8172    0.0044 H         1 <0>         0.1272
     33 N2          0.1434   -0.4931    1.3864 N.4       1 <0>        -0.5203
     34 H16         1.0193   -0.1347    1.7845 H         1 <0>         0.4288
     35 H17        -0.6494   -0.1583    1.9465 H         1 <0>         0.4349
@<TRIPOS>BOND
     1    1    6 ar
     2    1    2 ar
     3    1   19 1
     4    2    3 ar
     5    2   20 1
     6    3    4 ar
     7    3   21 1
     8    4    5 ar
     9    4    7 1
    10    5    6 ar
    11    5   22 1
    12    6   23 1
    13    7   24 1
    14    7   25 1
    15    7   33 1
    16    8    9 1
    17    8   26 1
    18    8   27 1
    19    8   33 1
    20    9   17 1
    21    9   10 2
    22   10   11 1
    23   10   28 1
    24   11   16 ar
    25   11   12 ar
    26   12   13 ar
    27   12   29 1
    28   13   14 ar
    29   13   30 1
    30   14   15 ar
    31   14   31 1
    32   15   16 ar
    33   15   32 1
    34   16   17 1
    35   17   18 1
    36   33   34 1
    37   33   35 1
@<TRIPOS>MOLECULE
ZINC20892069
   36    38     0     0     0
SMALL
USER_CHARGES
N-benzyl-N-methyl-1H-indole-2-carboxamide
@<TRIPOS>ATOM
      1 C1         -2.5660    0.1808   -0.0862 C.3       1 <0>         0.0238
      2 N1         -2.4423    1.6406   -0.0787 N.am      1 <0>        -0.6096
      3 C2         -3.5951    2.4752   -0.4264 C.3       1 <0>         0.1540
      4 C3         -3.5976    2.7351   -1.9108 C.ar      1 <0>        -0.1133
      5 C4         -2.9430    3.8411   -2.4199 C.ar      1 <0>        -0.0943
      6 C5         -2.9408    4.0766   -3.7820 C.ar      1 <0>        -0.1218
      7 C6         -3.6025    3.2122   -4.6340 C.ar      1 <0>        -0.1138
      8 C7         -4.2619    2.1093   -4.1243 C.ar      1 <0>        -0.1245
      9 C8         -4.2593    1.8707   -2.7627 C.ar      1 <0>        -0.1077
     10 C9         -1.2681    2.2157    0.2481 C.2       1 <0>         0.5875
     11 O1         -1.1704    3.4280    0.2719 O.2       1 <0>        -0.5142
     12 C10        -0.1049    1.3777    0.5758 C.2       1 <0>         0.0001
     13 C11         1.1764    1.8165    0.6842 C.2       1 <0>        -0.1043
     14 C12         1.9881    0.7016    1.0049 C.ar      1 <0>        -0.1250
     15 C13         3.3613    0.5456    1.2352 C.ar      1 <0>        -0.0593
     16 C14         3.8637   -0.6875    1.5328 C.ar      1 <0>        -0.1510
     17 C15         3.0259   -1.7932    1.6101 C.ar      1 <0>        -0.0858
     18 C16         1.6733   -1.6657    1.3874 C.ar      1 <0>        -0.1365
     19 C17         1.1366   -0.4177    1.0826 C.ar      1 <0>         0.1158
     20 N2         -0.1399    0.0179    0.8167 N.pl3     1 <0>        -0.6076
     21 H1         -1.0964   -0.5237    0.7745 H         1 <0>         0.4462
     22 H2         -1.6041   -0.2701    0.1992 H         1 <0>         0.1230
     23 H3         -2.8451   -0.1583   -1.0947 H         1 <0>         0.0810
     24 H4         -3.3416   -0.1251    0.6313 H         1 <0>         0.0802
     25 H5         -4.5225    1.9557   -0.1435 H         1 <0>         0.0911
     26 H6         -3.5314    3.4316    0.1132 H         1 <0>         0.0999
     27 H7         -2.4298    4.5189   -1.7539 H         1 <0>         0.1288
     28 H8         -2.4254    4.9381   -4.1803 H         1 <0>         0.1235
     29 H9         -3.6040    3.3982   -5.6978 H         1 <0>         0.1224
     30 H10        -4.7789    1.4340   -4.7899 H         1 <0>         0.1224
     31 H11        -4.7745    1.0090   -2.3645 H         1 <0>         0.1196
     32 H12         1.5150    2.8331    0.5496 H         1 <0>         0.1522
     33 H13         4.0204    1.3991    1.1770 H         1 <0>         0.1248
     34 H14         4.9225   -0.8052    1.7103 H         1 <0>         0.1244
     35 H15         3.4397   -2.7622    1.8471 H         1 <0>         0.1271
     36 H16         1.0302   -2.5312    1.4497 H         1 <0>         0.1209
@<TRIPOS>BOND
     1    1    2 1
     2    1   22 1
     3    1   23 1
     4    1   24 1
     5    2    3 1
     6    2   10 am
     7    3    4 1
     8    3   25 1
     9    3   26 1
    10    4    9 ar
    11    4    5 ar
    12    5    6 ar
    13    5   27 1
    14    6    7 ar
    15    6   28 1
    16    7    8 ar
    17    7   29 1
    18    8    9 ar
    19    8   30 1
    20    9   31 1
    21   10   11 2
    22   10   12 1
    23   12   20 1
    24   12   13 2
    25   13   14 1
    26   13   32 1
    27   14   19 ar
    28   14   15 ar
    29   15   16 ar
    30   15   33 1
    31   16   17 ar
    32   16   34 1
    33   17   18 ar
    34   17   35 1
    35   18   19 ar
    36   18   36 1
    37   19   20 1
    38   20   21 1
@<TRIPOS>MOLECULE
ZINC40393647
   45    47     0     0     0
SMALL
USER_CHARGES

@<TRIPOS>ATOM
      1 C1         -0.3098   -3.3324    1.7148 C.3       1 <0>         0.0808
      2 N1         -0.6165   -2.2131    0.8208 N.pl3     1 <0>        -0.4514
      3 C2         -0.8607   -2.3102   -0.5287 C.ar      1 <0>         0.1082
      4 C3         -0.8979   -3.3830   -1.4153 C.ar      1 <0>        -0.1302
      5 C4         -1.1780   -3.1625   -2.7450 C.ar      1 <0>        -0.0880
      6 C5         -1.4242   -1.8778   -3.2134 C.ar      1 <0>        -0.1477
      7 C6         -1.3933   -0.8106   -2.3638 C.ar      1 <0>        -0.0630
      8 C7         -1.1110   -1.0089   -1.0059 C.ar      1 <0>        -0.1193
      9 C8         -1.0078   -0.1352    0.1035 C.2       1 <0>        -0.1637
     10 C9         -0.7138   -0.8872    1.1962 C.2       1 <0>         0.0217
     11 C10        -0.5260   -0.3715    2.5606 C.2       1 <0>         0.5825
     12 O1         -0.4918   -1.1408    3.5023 O.2       1 <0>        -0.5354
     13 N2         -0.3918    0.9535    2.7677 N.am      1 <0>        -0.6029
     14 C11        -0.6107    1.8931    1.6651 C.3       1 <0>         0.0593
     15 C12        -0.0272    1.4542    4.0953 C.3       1 <0>         0.1156
     16 C13         1.4963    1.5419    4.2065 C.3       1 <0>        -0.1281
     17 C14         1.8771    2.0648    5.5930 C.3       1 <0>        -0.0781
     18 C15         3.3776    2.1512    5.7026 C.ar      1 <0>        -0.0821
     19 C16         4.1008    1.0661    6.1615 C.ar      1 <0>        -0.1172
     20 C17         5.4772    1.1454    6.2619 C.ar      1 <0>        -0.1180
     21 C18         6.1305    2.3096    5.9031 C.ar      1 <0>        -0.1248
     22 C19         5.4074    3.3943    5.4434 C.ar      1 <0>        -0.1185
     23 C20         4.0314    3.3136    5.3389 C.ar      1 <0>        -0.1180
     24 H1         -1.2203   -3.6529    2.2212 H         1 <0>         0.0750
     25 H2          0.0938   -4.1615    1.1337 H         1 <0>         0.0813
     26 H3          0.4252   -3.0156    2.4547 H         1 <0>         0.0908
     27 H4         -0.7073   -4.3853   -1.0610 H         1 <0>         0.1210
     28 H5         -1.2063   -3.9963   -3.4309 H         1 <0>         0.1277
     29 H6         -1.6416   -1.7224   -4.2598 H         1 <0>         0.1248
     30 H7         -1.5856    0.1844   -2.7372 H         1 <0>         0.1252
     31 H8         -1.1423    0.9362    0.0851 H         1 <0>         0.1735
     32 H9         -1.6651    1.8899    1.3890 H         1 <0>         0.0702
     33 H10        -0.3203    2.8957    1.9791 H         1 <0>         0.0804
     34 H11        -0.0094    1.5927    0.8070 H         1 <0>         0.0840
     35 H12        -0.4598    2.4439    4.2418 H         1 <0>         0.0836
     36 H13        -0.4086    0.7745    4.8573 H         1 <0>         0.0896
     37 H14         1.9289    0.5522    4.0600 H         1 <0>         0.0671
     38 H15         1.8777    2.2216    3.4445 H         1 <0>         0.0672
     39 H16         1.4445    3.0545    5.7396 H         1 <0>         0.0751
     40 H17         1.4957    1.3851    6.3550 H         1 <0>         0.0758
     41 H18         3.5904    0.1566    6.4418 H         1 <0>         0.1209
     42 H19         6.0421    0.2979    6.6211 H         1 <0>         0.1216
     43 H20         7.2058    2.3717    5.9823 H         1 <0>         0.1211
     44 H21         5.9178    4.3040    5.1634 H         1 <0>         0.1217
     45 H22         3.4668    4.1598    4.9762 H         1 <0>         0.1209
@<TRIPOS>BOND
     1    1    2 1
     2    1   24 1
     3    1   25 1
     4    1   26 1
     5    2   10 1
     6    2    3 1
     7    3    8 ar
     8    3    4 ar
     9    4    5 ar
    10    4   27 1
    11    5    6 ar
    12    5   28 1
    13    6    7 ar
    14    6   29 1
    15    7    8 ar
    16    7   30 1
    17    8    9 1
    18    9   10 2
    19    9   31 1
    20   10   11 1
    21   11   12 2
    22   11   13 am
    23   13   14 1
    24   13   15 1
    25   14   32 1
    26   14   33 1
    27   14   34 1
    28   15   16 1
    29   15   35 1
    30   15   36 1
    31   16   17 1
    32   16   37 1
    33   16   38 1
    34   17   18 1
    35   17   39 1
    36   17   40 1
    37   18   23 ar
    38   18   19 ar
    39   19   20 ar
    40   19   41 1
    41   20   21 ar
    42   20   42 1
    43   21   22 ar
    44   21   43 1
    45   22   23 ar
    46   22   44 1
    47   23   45 1
