@<TRIPOS>MOLECULE
ZINC19166991
   23    23     0     0     0
SMALL
USER_CHARGES

@<TRIPOS>ATOM
      1 C1         -0.0167    1.3781    0.0096 C.ar      1 <0>        -0.1082
      2 C2          1.1709    2.0855    0.0021 C.ar      1 <0>        -0.1149
      3 C3          2.3773    1.4107   -0.0130 C.ar      1 <0>        -0.1108
      4 C4          2.3960    0.0285   -0.0201 C.ar      1 <0>        -0.1054
      5 C5          1.2084   -0.6789   -0.0117 C.ar      1 <0>        -0.1139
      6 C6          0.0021   -0.0041    0.0020 C.ar      1 <0>        -0.1155
      7 C7          3.7112   -0.7071   -0.0376 C.3       1 <0>        -0.0701
      8 C8          4.1714   -0.9633    1.3989 C.3       1 <0>         0.0158
      9 N1          5.4533   -1.6804    1.3819 N.3       1 <0>        -0.4911
     10 N2          5.9223   -1.9415    2.7332 N.4       1 <0>        -0.4992
     11 H1         -0.9591    1.9053    0.0259 H         1 <0>         0.1285
     12 H2          1.1563    3.1654    0.0076 H         1 <0>         0.1285
     13 H3          3.3051    1.9634   -0.0196 H         1 <0>         0.1246
     14 H4          1.2231   -1.7588   -0.0176 H         1 <0>         0.1216
     15 H5         -0.9258   -0.5567    0.0082 H         1 <0>         0.1278
     16 H6          3.5884   -1.6586   -0.5549 H         1 <0>         0.0857
     17 H7          4.4573   -0.1052   -0.5563 H         1 <0>         0.0967
     18 H8          4.2941   -0.0118    1.9163 H         1 <0>         0.1111
     19 H9          3.4252   -1.5652    1.9176 H         1 <0>         0.0767
     20 H10         5.3819   -2.5362    0.8522 H         1 <0>         0.3977
     21 H11         6.0472   -1.0670    3.2207 H         1 <0>         0.4512
     22 H12         5.2428   -2.5050    3.2220 H         1 <0>         0.4121
     23 H13         6.8022   -2.4338    2.6946 H         1 <0>         0.4510
@<TRIPOS>BOND
     1    1    6 ar
     2    1    2 ar
     3    1   11 1
     4    2    3 ar
     5    2   12 1
     6    3    4 ar
     7    3   13 1
     8    4    5 ar
     9    4    7 1
    10    5    6 ar
    11    5   14 1
    12    6   15 1
    13    7    8 1
    14    7   16 1
    15    7   17 1
    16    8    9 1
    17    8   18 1
    18    8   19 1
    19    9   10 1
    20    9   20 1
    21   10   21 1
    22   10   22 1
    23   10   23 1
@<TRIPOS>MOLECULE
ZINC19166991
   23    23     0     0     0
SMALL
USER_CHARGES

@<TRIPOS>ATOM
      1 C1         -0.0167    1.3781    0.0096 C.ar      1 <0>        -0.1022
      2 C2          1.1709    2.0855    0.0021 C.ar      1 <0>        -0.1138
      3 C3          2.3773    1.4107   -0.0130 C.ar      1 <0>        -0.1080
      4 C4          2.3960    0.0285   -0.0201 C.ar      1 <0>        -0.1109
      5 C5          1.2084   -0.6789   -0.0117 C.ar      1 <0>        -0.1101
      6 C6          0.0021   -0.0041    0.0020 C.ar      1 <0>        -0.1145
      7 C7          3.7112   -0.7071   -0.0376 C.3       1 <0>        -0.0983
      8 C8          4.1714   -0.9633    1.3989 C.3       1 <0>         0.0040
      9 N1          5.4533   -1.6804    1.3819 N.4       1 <0>        -0.3650
     10 N2          5.8907   -1.9238    2.7470 N.3       1 <0>        -0.6467
     11 H1         -0.9591    1.9053    0.0259 H         1 <0>         0.1305
     12 H2          1.1563    3.1654    0.0076 H         1 <0>         0.1306
     13 H3          3.3051    1.9634   -0.0196 H         1 <0>         0.1257
     14 H4          1.2231   -1.7588   -0.0176 H         1 <0>         0.1238
     15 H5         -0.9258   -0.5567    0.0082 H         1 <0>         0.1300
     16 H6          3.5884   -1.6586   -0.5549 H         1 <0>         0.0954
     17 H7          4.4573   -0.1052   -0.5563 H         1 <0>         0.0985
     18 H8          4.2941   -0.0118    1.9163 H         1 <0>         0.1425
     19 H9          3.4252   -1.5652    1.9176 H         1 <0>         0.1307
     20 H10         5.3397   -2.5612    0.9030 H         1 <0>         0.4079
     21 H11         5.1869   -2.4250    3.2682 H         1 <0>         0.4018
     22 H12         6.7712   -2.4163    2.7623 H         1 <0>         0.4020
     23 H13         6.1440   -1.1232    0.9018 H         1 <0>         0.4462
@<TRIPOS>BOND
     1    1    6 ar
     2    1    2 ar
     3    1   11 1
     4    2    3 ar
     5    2   12 1
     6    3    4 ar
     7    3   13 1
     8    4    5 ar
     9    4    7 1
    10    5    6 ar
    11    5   14 1
    12    6   15 1
    13    7    8 1
    14    7   16 1
    15    7   17 1
    16    8    9 1
    17    8   18 1
    18    8   19 1
    19    9   10 1
    20    9   20 1
    21    9   23 1
    22   10   21 1
    23   10   22 1
@<TRIPOS>MOLECULE
ZINC00196663
   34    37     0     0     0
SMALL
USER_CHARGES

@<TRIPOS>ATOM
      1 C1         -0.0173    1.4248    0.0099 C.3       1 <0>         0.0236
      2 O1          0.0021   -0.0041    0.0020 O.3       1 <0>        -0.3129
      3 C2          0.6055   -0.6068   -1.0551 C.ar      1 <0>         0.1517
      4 C3          1.1724    0.1645   -2.0615 C.ar      1 <0>        -0.2136
      5 C4          1.7855   -0.4439   -3.1357 C.ar      1 <0>        -0.0281
      6 C5          1.8362   -1.8361   -3.2114 C.ar      1 <0>        -0.0994
      7 C6          1.2657   -2.6078   -2.1987 C.ar      1 <0>        -0.0519
      8 C7          0.6591   -1.9929   -1.1245 C.ar      1 <0>        -0.1537
      9 C8          2.4938   -2.4934   -4.3645 C.ar      1 <0>         0.1267
     10 C9          2.5407   -3.8949   -4.4452 C.ar      1 <0>        -0.0406
     11 C10         3.1701   -4.4520   -5.5488 C.ar      1 <0>        -0.1689
     12 C11         3.7205   -3.5890   -6.5154 C.ar      1 <0>         0.1260
     13 N1          3.6228   -2.2779   -6.3456 N.ar      1 <0>        -0.2134
     14 N2          3.0363   -1.7612   -5.3284 N.ar      1 <0>        -0.2147
     15 C12         4.3325   -4.4146   -7.5873 C.ar      1 <0>        -0.0182
     16 C13         4.9984   -4.0683   -8.7556 C.ar      1 <0>        -0.0762
     17 C14         5.4798   -5.0571   -9.5990 C.ar      1 <0>        -0.0843
     18 C15         5.3029   -6.3911   -9.2865 C.ar      1 <0>        -0.1110
     19 C16         4.6413   -6.7538   -8.1249 C.ar      1 <0>        -0.0424
     20 C17         4.1530   -5.7722   -7.2703 C.ar      1 <0>        -0.1633
     21 C18         3.4196   -5.8461   -5.9841 C.2       1 <0>         0.4564
     22 O2          3.0869   -6.8562   -5.3990 O.2       1 <0>        -0.4004
     23 H1          1.0053    1.8021    0.0021 H         1 <0>         0.0594
     24 H2         -0.5445    1.7859   -0.8732 H         1 <0>         0.0594
     25 H3         -0.5275    1.7763    0.9067 H         1 <0>         0.1040
     26 H4          1.1325    1.2421   -2.0025 H         1 <0>         0.1369
     27 H5          2.2258    0.1564   -3.9181 H         1 <0>         0.1422
     28 H6          1.3029   -3.6857   -2.2544 H         1 <0>         0.1363
     29 H7          0.2215   -2.5897   -0.3379 H         1 <0>         0.1401
     30 H8          2.1036   -4.5154   -3.6768 H         1 <0>         0.1644
     31 H9          5.1410   -3.0277   -9.0073 H         1 <0>         0.1422
     32 H10         5.9965   -4.7829  -10.5069 H         1 <0>         0.1414
     33 H11         5.6815   -7.1540   -9.9505 H         1 <0>         0.1415
     34 H12         4.5045   -7.7977   -7.8838 H         1 <0>         0.1407
@<TRIPOS>BOND
     1    1    2 1
     2    1   23 1
     3    1   24 1
     4    1   25 1
     5    2    3 1
     6    3    8 ar
     7    3    4 ar
     8    4    5 ar
     9    4   26 1
    10    5    6 ar
    11    5   27 1
    12    6    7 ar
    13    6    9 1
    14    7    8 ar
    15    7   28 1
    16    8   29 1
    17    9   14 ar
    18    9   10 ar
    19   10   11 ar
    20   10   30 1
    21   11   21 1
    22   11   12 ar
    23   12   13 ar
    24   12   15 1
    25   13   14 ar
    26   15   20 ar
    27   15   16 ar
    28   16   17 ar
    29   16   31 1
    30   17   18 ar
    31   17   32 1
    32   18   19 ar
    33   18   33 1
    34   19   20 ar
    35   19   34 1
    36   20   21 1
    37   21   22 2
@<TRIPOS>MOLECULE
ZINC03104594
   30    33     0     0     0
SMALL
USER_CHARGES
(3,4-difluorophenyl)BLAHone
@<TRIPOS>ATOM
      1 C1          8.0097   -2.4386   -0.0855 C.ar      1 <0>        -0.0845
      2 C2          8.9044   -1.3861   -0.0879 C.ar      1 <0>        -0.1081
      3 C3          8.4448   -0.0794   -0.0778 C.ar      1 <0>        -0.0422
      4 C4          7.0782    0.1742   -0.0638 C.ar      1 <0>        -0.1613
      5 C5          6.1669   -0.8959   -0.0613 C.ar      1 <0>        -0.0233
      6 C6          6.6444   -2.1998   -0.0725 C.ar      1 <0>        -0.0728
      7 C7          4.7868   -0.3478   -0.0461 C.ar      1 <0>         0.1382
      8 C8          4.8665    1.0577   -0.0393 C.ar      1 <0>        -0.1687
      9 C9          3.6868    1.7878   -0.0241 C.ar      1 <0>        -0.0343
     10 C10         2.4801    1.0697   -0.0164 C.ar      1 <0>         0.1117
     11 N1          2.5044   -0.2563   -0.0187 N.ar      1 <0>        -0.2023
     12 N2          3.5958   -0.9302   -0.0385 N.ar      1 <0>        -0.2129
     13 C11         1.1853    1.7902    0.0004 C.ar      1 <0>        -0.0353
     14 C12        -0.0126    1.0758    0.0080 C.ar      1 <0>        -0.0532
     15 C13        -1.2160    1.7498    0.0173 C.ar      1 <0>        -0.1259
     16 C14        -1.2372    3.1351    0.0313 C.ar      1 <0>         0.0895
     17 C15        -0.0486    3.8513    0.0233 C.ar      1 <0>         0.0702
     18 C16         1.1611    3.1844    0.0081 C.ar      1 <0>        -0.1041
     19 F1         -0.0745    5.2021    0.0308 F         1 <0>        -0.1216
     20 F2         -2.4185    3.7905    0.0461 F         1 <0>        -0.1208
     21 C17         6.2991    1.4354   -0.0501 C.2       1 <0>         0.4558
     22 O1          6.7491    2.5627   -0.0488 O.2       1 <0>        -0.3973
     23 H1          8.3764   -3.4544   -0.0942 H         1 <0>         0.1424
     24 H2          9.9663   -1.5828   -0.0980 H         1 <0>         0.1425
     25 H3          9.1472    0.7410   -0.0804 H         1 <0>         0.1416
     26 H4          5.9516   -3.0283   -0.0707 H         1 <0>         0.1433
     27 H5          3.6963    2.8678   -0.0180 H         1 <0>         0.1661
     28 H6          0.0021   -0.0041    0.0020 H         1 <0>         0.1578
     29 H7         -2.1436    1.1966    0.0183 H         1 <0>         0.1568
     30 H8          2.0862    3.7417    0.0026 H         1 <0>         0.1525
@<TRIPOS>BOND
     1    1    6 ar
     2    1    2 ar
     3    1   23 1
     4    2    3 ar
     5    2   24 1
     6    3    4 ar
     7    3   25 1
     8    4   21 1
     9    4    5 ar
    10    5    6 ar
    11    5    7 1
    12    6   26 1
    13    7   12 ar
    14    7    8 ar
    15    8    9 ar
    16    8   21 1
    17    9   10 ar
    18    9   27 1
    19   10   11 ar
    20   10   13 1
    21   11   12 ar
    22   13   18 ar
    23   13   14 ar
    24   14   15 ar
    25   14   28 1
    26   15   16 ar
    27   15   29 1
    28   16   17 ar
    29   16   20 1
    30   17   18 ar
    31   17   19 1
    32   18   30 1
    33   21   22 2
@<TRIPOS>MOLECULE
ZINC01383544
   38    41     0     0     0
SMALL
USER_CHARGES
(3,4-dimethoxyphenyl)BLAHone
@<TRIPOS>ATOM
      1 C1         -1.0736   -2.1244    0.0009 C.3       1 <0>         0.0228
      2 O1         -1.1663   -0.6984    0.0094 O.3       1 <0>        -0.3012
      3 C2          0.0021   -0.0041    0.0020 C.ar      1 <0>         0.1242
      4 C3          1.2114   -0.6837   -0.0136 C.ar      1 <0>        -0.1763
      5 C4          2.3994    0.0171   -0.0212 C.ar      1 <0>        -0.0858
      6 C5          2.3869    1.4120   -0.0131 C.ar      1 <0>        -0.0575
      7 C6          1.1713    2.0961    0.0021 C.ar      1 <0>        -0.1272
      8 C7         -0.0168    1.3889    0.0097 C.ar      1 <0>         0.0971
      9 O2         -1.2036    2.0530    0.0189 O.3       1 <0>        -0.3035
     10 C8         -1.1479    3.4809    0.0264 C.3       1 <0>         0.0229
     11 C9          3.6622    2.1654   -0.0218 C.ar      1 <0>         0.1237
     12 C10         4.8839    1.4832   -0.1439 C.ar      1 <0>        -0.0373
     13 C11         6.0443    2.2433   -0.1462 C.ar      1 <0>        -0.1695
     14 C12         5.9320    3.6417   -0.0272 C.ar      1 <0>         0.1287
     15 N1          4.7297    4.1891    0.0831 N.ar      1 <0>        -0.2138
     16 N2          3.6554    3.4879    0.0803 N.ar      1 <0>        -0.2125
     17 C13         7.2969    4.2259   -0.0550 C.ar      1 <0>        -0.0191
     18 C14         7.7434    5.5384    0.0264 C.ar      1 <0>        -0.0755
     19 C15         9.1006    5.8141   -0.0259 C.ar      1 <0>        -0.0843
     20 C16        10.0184    4.7900   -0.1585 C.ar      1 <0>        -0.1104
     21 C17         9.5901    3.4754   -0.2406 C.ar      1 <0>        -0.0423
     22 C18         8.2316    3.1849   -0.1903 C.ar      1 <0>        -0.1629
     23 C19         7.4832    1.9067   -0.2524 C.2       1 <0>         0.4565
     24 O3          7.9588    0.7959   -0.3681 O.2       1 <0>        -0.4001
     25 H1         -0.5458   -2.4488   -0.8959 H         1 <0>         0.0581
     26 H2         -0.5288   -2.4584    0.8839 H         1 <0>         0.0581
     27 H3         -2.0755   -2.5537    0.0082 H         1 <0>         0.1041
     28 H4          1.2227   -1.7636   -0.0195 H         1 <0>         0.1446
     29 H5          3.3395   -0.5143   -0.0338 H         1 <0>         0.1345
     30 H6          1.1582    3.1760    0.0077 H         1 <0>         0.1520
     31 H7         -0.6161    3.8191    0.9157 H         1 <0>         0.0585
     32 H8         -0.6246    3.8288   -0.8642 H         1 <0>         0.0578
     33 H9         -2.1607    3.8839    0.0334 H         1 <0>         0.1037
     34 H10         4.9186    0.4074   -0.2330 H         1 <0>         0.1652
     35 H11         7.0325    6.3448    0.1302 H         1 <0>         0.1424
     36 H12         9.4431    6.8364    0.0378 H         1 <0>         0.1416
     37 H13        11.0739    5.0154   -0.1980 H         1 <0>         0.1417
     38 H14        10.3104    2.6773   -0.3435 H         1 <0>         0.1409
@<TRIPOS>BOND
     1    1    2 1
     2    1   25 1
     3    1   26 1
     4    1   27 1
     5    2    3 1
     6    3    8 ar
     7    3    4 ar
     8    4    5 ar
     9    4   28 1
    10    5    6 ar
    11    5   29 1
    12    6    7 ar
    13    6   11 1
    14    7    8 ar
    15    7   30 1
    16    8    9 1
    17    9   10 1
    18   10   31 1
    19   10   32 1
    20   10   33 1
    21   11   16 ar
    22   11   12 ar
    23   12   13 ar
    24   12   34 1
    25   13   23 1
    26   13   14 ar
    27   14   15 ar
    28   14   17 1
    29   15   16 ar
    30   17   22 ar
    31   17   18 ar
    32   18   19 ar
    33   18   35 1
    34   19   20 ar
    35   19   36 1
    36   20   21 ar
    37   20   37 1
    38   21   22 ar
    39   21   38 1
    40   22   23 1
    41   23   24 2
@<TRIPOS>MOLECULE
ZINC04002284
   30    33     0     0     0
SMALL
USER_CHARGES
(4-chlorophenyl)BLAHone
@<TRIPOS>ATOM
      1 C1         -0.4832    8.0101    0.0480 C.ar      1 <0>        -0.0843
      2 C2          0.8677    8.2986    0.0368 C.ar      1 <0>        -0.1092
      3 C3          1.7999    7.2740    0.0231 C.ar      1 <0>        -0.0423
      4 C4          1.3749    5.9507    0.0201 C.ar      1 <0>        -0.1621
      5 C5          0.0006    5.6560    0.0319 C.ar      1 <0>        -0.0215
      6 C6         -0.9206    6.6949    0.0461 C.ar      1 <0>        -0.0740
      7 C7         -0.1715    4.1809    0.0262 C.ar      1 <0>         0.1339
      8 C8          1.1034    3.5844    0.0108 C.ar      1 <0>        -0.1698
      9 C9          1.1865    2.1994    0.0025 C.ar      1 <0>        -0.0355
     10 C10        -0.0180    1.4777    0.0102 C.ar      1 <0>         0.1139
     11 N1         -1.1737    2.1281    0.0192 N.ar      1 <0>        -0.2064
     12 N2         -1.2492    3.4087    0.0328 N.ar      1 <0>        -0.2138
     13 C11         0.0021   -0.0041    0.0020 C.ar      1 <0>        -0.0522
     14 C12         1.2176   -0.6873   -0.0190 C.ar      1 <0>        -0.0820
     15 C13         1.2307   -2.0668   -0.0212 C.ar      1 <0>        -0.1111
     16 C14         0.0396   -2.7729   -0.0136 C.ar      1 <0>        -0.0167
     17 C15        -1.1702   -2.0995    0.0020 C.ar      1 <0>        -0.1127
     18 C16        -1.1946   -0.7202    0.0096 C.ar      1 <0>        -0.0597
     19 Cl1         0.0632   -4.5087   -0.0242 Cl        1 <0>        -0.0591
     20 C17         2.1155    4.6664    0.0065 C.2       1 <0>         0.4563
     21 O1          3.3213    4.5278   -0.0059 O.2       1 <0>        -0.3989
     22 H1         -1.2035    8.8148    0.0587 H         1 <0>         0.1421
     23 H2          1.1983    9.3267    0.0391 H         1 <0>         0.1422
     24 H3          2.8553    7.5032    0.0143 H         1 <0>         0.1413
     25 H4         -1.9785    6.4779    0.0553 H         1 <0>         0.1429
     26 H5          2.1416    1.6954   -0.0097 H         1 <0>         0.1656
     27 H6          2.1471   -0.1374   -0.0295 H         1 <0>         0.1387
     28 H7          2.1716   -2.5969   -0.0337 H         1 <0>         0.1427
     29 H8         -2.0963   -2.6550    0.0079 H         1 <0>         0.1428
     30 H9         -2.1387   -0.1958    0.0210 H         1 <0>         0.1490
@<TRIPOS>BOND
     1    1    6 ar
     2    1    2 ar
     3    1   22 1
     4    2    3 ar
     5    2   23 1
     6    3    4 ar
     7    3   24 1
     8    4   20 1
     9    4    5 ar
    10    5    6 ar
    11    5    7 1
    12    6   25 1
    13    7   12 ar
    14    7    8 ar
    15    8    9 ar
    16    8   20 1
    17    9   10 ar
    18    9   26 1
    19   10   11 ar
    20   10   13 1
    21   11   12 ar
    22   13   18 ar
    23   13   14 ar
    24   14   15 ar
    25   14   27 1
    26   15   16 ar
    27   15   28 1
    28   16   17 ar
    29   16   19 1
    30   17   18 ar
    31   17   29 1
    32   18   30 1
    33   20   21 2
@<TRIPOS>MOLECULE
ZINC02564446
   29    29     0     0     0
SMALL
USER_CHARGES

@<TRIPOS>ATOM
      1 C1         -0.0187    1.5258    0.0104 C.3       1 <0>        -0.1854
      2 C2          0.0021   -0.0041    0.0020 C.3       1 <0>         0.0304
      3 H1         -1.0205   -0.3814    0.0098 H         1 <0>         0.1433
      4 C3          0.7421   -0.5109    1.2415 C.3       1 <0>        -0.0988
      5 C4          0.6567   -2.0144    1.2978 C.ar      1 <0>        -0.1290
      6 C5         -0.3961   -2.6228    1.9553 C.ar      1 <0>        -0.1052
      7 C6         -0.4744   -4.0020    2.0068 C.ar      1 <0>        -0.1054
      8 C7          0.4999   -4.7728    1.4005 C.ar      1 <0>        -0.1043
      9 C8          1.5522   -4.1644    0.7423 C.ar      1 <0>        -0.1072
     10 C9          1.6282   -2.7852    0.6870 C.ar      1 <0>        -0.1428
     11 N1          0.6897   -0.4778   -1.2066 N.4       1 <0>        -0.5103
     12 C10        -0.0856   -0.0931   -2.3936 C.3       1 <0>         0.1284
     13 C11         0.6034   -0.5678   -3.6047 C.1       1 <0>        -0.3036
     14 C12         1.1529   -0.9465   -4.5706 C.1       1 <0>        -0.0516
     15 H2          1.0039    1.9031    0.0027 H         1 <0>         0.0846
     16 H3         -0.5459    1.8868   -0.8726 H         1 <0>         0.0846
     17 H4         -0.5289    1.8773    0.9072 H         1 <0>         0.1099
     18 H5          1.7879   -0.2080    1.1895 H         1 <0>         0.0983
     19 H6          0.2852   -0.0874    2.1360 H         1 <0>         0.1230
     20 H7         -1.1573   -2.0207    2.4290 H         1 <0>         0.1303
     21 H8         -1.2966   -4.4773    2.5211 H         1 <0>         0.1329
     22 H9          0.4391   -5.8503    1.4414 H         1 <0>         0.1324
     23 H10         2.3136   -4.7665    0.2688 H         1 <0>         0.1315
     24 H11         2.4484   -2.3099    0.1695 H         1 <0>         0.1208
     25 H12         1.6080   -0.0627   -1.2556 H         1 <0>         0.4273
     26 H13        -1.0777   -0.5415   -2.3406 H         1 <0>         0.1488
     27 H14        -0.1790    0.9922   -2.4305 H         1 <0>         0.1515
     28 H15         1.6444   -1.2851   -5.4345 H         1 <0>         0.2370
     29 H16         0.7761   -1.4825   -1.1724 H         1 <0>         0.4286
@<TRIPOS>BOND
     1    1    2 1
     2    1   15 1
     3    1   16 1
     4    1   17 1
     5    2    3 1
     6    2    4 1
     7    2   11 1
     8    4    5 1
     9    4   18 1
    10    4   19 1
    11    5   10 ar
    12    5    6 ar
    13    6    7 ar
    14    6   20 1
    15    7    8 ar
    16    7   21 1
    17    8    9 ar
    18    8   22 1
    19    9   10 ar
    20    9   23 1
    21   10   24 1
    22   11   12 1
    23   11   25 1
    24   11   29 1
    25   12   13 1
    26   12   26 1
    27   12   27 1
    28   13   14 3
    29   14   28 1
@<TRIPOS>MOLECULE
ZINC02564446
   28    28     0     0     0
SMALL
USER_CHARGES

@<TRIPOS>ATOM
      1 C1         -0.0187    1.5258    0.0104 C.3       1 <0>        -0.1858
      2 C2          0.0021   -0.0041    0.0020 C.3       1 <0>         0.0886
      3 H1          0.5123   -0.3556   -0.8948 H         1 <0>         0.0820
      4 C3         -1.4333   -0.5336    0.0129 C.3       1 <0>        -0.0706
      5 C4         -1.4159   -2.0348   -0.1192 C.ar      1 <0>        -0.0700
      6 C5         -1.4497   -2.6188   -1.3716 C.ar      1 <0>        -0.1236
      7 C6         -1.4338   -3.9958   -1.4928 C.ar      1 <0>        -0.1233
      8 C7         -1.3836   -4.7886   -0.3615 C.ar      1 <0>        -0.1265
      9 C8         -1.3488   -4.2045    0.8909 C.ar      1 <0>        -0.1233
     10 C9         -1.3605   -2.8275    1.0119 C.ar      1 <0>        -0.0902
     11 N1          0.7126   -0.4907    1.1921 N.3       1 <0>        -0.6766
     12 C10         2.1624   -0.5325    0.9593 C.3       1 <0>         0.1687
     13 C11         2.8399   -1.0238    2.1703 C.1       1 <0>        -0.1902
     14 C12         3.3802   -1.4156    3.1361 C.1       1 <0>        -0.1906
     15 H2          1.0039    1.9031    0.0027 H         1 <0>         0.0562
     16 H3         -0.5459    1.8868   -0.8726 H         1 <0>         0.0659
     17 H4         -0.5289    1.8773    0.9072 H         1 <0>         0.0602
     18 H5         -1.9156   -0.2570    0.9504 H         1 <0>         0.0736
     19 H6         -1.9862   -0.1019   -0.8214 H         1 <0>         0.0761
     20 H7         -1.4890   -1.9994   -2.2555 H         1 <0>         0.1167
     21 H8         -1.4609   -4.4521   -2.4712 H         1 <0>         0.1178
     22 H9         -1.3718   -5.8644   -0.4561 H         1 <0>         0.1173
     23 H10        -1.3099   -4.8240    1.7747 H         1 <0>         0.1176
     24 H11        -1.3296   -2.3711    1.9902 H         1 <0>         0.1203
     25 H12         2.3774   -1.2015    0.1260 H         1 <0>         0.0936
     26 H13         2.5215    0.4691    0.7231 H         1 <0>         0.0538
     27 H14         3.8634   -1.7660    3.9999 H         1 <0>         0.2176
     28 H15         0.4922    0.0720    2.0001 H         1 <0>         0.3446
@<TRIPOS>BOND
     1    1    2 1
     2    1   15 1
     3    1   16 1
     4    1   17 1
     5    2    3 1
     6    2    4 1
     7    2   11 1
     8    4    5 1
     9    4   18 1
    10    4   19 1
    11    5   10 ar
    12    5    6 ar
    13    6    7 ar
    14    6   20 1
    15    7    8 ar
    16    7   21 1
    17    8    9 ar
    18    8   22 1
    19    9   10 ar
    20    9   23 1
    21   10   24 1
    22   11   12 1
    23   11   28 1
    24   12   13 1
    25   12   25 1
    26   12   26 1
    27   13   14 3
    28   14   27 1
@<TRIPOS>MOLECULE
ZINC03639353
   29    29     0     0     0
SMALL
USER_CHARGES

@<TRIPOS>ATOM
      1 C1         -0.0187    1.5258    0.0104 C.3       1 <0>        -0.1854
      2 C2          0.0021   -0.0041    0.0020 C.3       1 <0>         0.0304
      3 H1         -1.0205   -0.3814    0.0098 H         1 <0>         0.1433
      4 C3          0.7182   -0.4975   -1.2568 C.3       1 <0>        -0.0988
      5 C4          0.6316   -2.0003   -1.3275 C.ar      1 <0>        -0.1289
      6 C5          1.6116   -2.7776   -0.7388 C.ar      1 <0>        -0.1430
      7 C6          1.5322   -4.1561   -0.8037 C.ar      1 <0>        -0.1072
      8 C7          0.4726   -4.7574   -1.4569 C.ar      1 <0>        -0.1043
      9 C8         -0.5078   -3.9802   -2.0447 C.ar      1 <0>        -0.1053
     10 C9         -0.4307   -2.6017   -1.9762 C.ar      1 <0>        -0.1052
     11 N1          0.7126   -0.4907    1.1921 N.4       1 <0>        -0.5103
     12 C10        -0.0398   -0.1189    2.3978 C.3       1 <0>         0.1284
     13 C11         0.6721   -0.6065    3.5903 C.1       1 <0>        -0.3036
     14 C12         1.2399   -0.9954    4.5414 C.1       1 <0>        -0.0516
     15 H2          1.0039    1.9031    0.0027 H         1 <0>         0.0846
     16 H3         -0.5459    1.8868   -0.8726 H         1 <0>         0.1099
     17 H4         -0.5289    1.8773    0.9072 H         1 <0>         0.0846
     18 H5          0.2444   -0.0644   -2.1377 H         1 <0>         0.1229
     19 H6          1.7648   -0.1951   -1.2215 H         1 <0>         0.0983
     20 H7          2.4394   -2.3078   -0.2286 H         1 <0>         0.1207
     21 H8          2.2982   -4.7633   -0.3444 H         1 <0>         0.1315
     22 H9          0.4110   -5.8344   -1.5082 H         1 <0>         0.1324
     23 H10        -1.3355   -4.4500   -2.5553 H         1 <0>         0.1329
     24 H11        -1.1986   -1.9945   -2.4322 H         1 <0>         0.1303
     25 H12         0.7982   -1.4950    1.1455 H         1 <0>         0.4286
     26 H13        -0.1324    0.9660    2.4481 H         1 <0>         0.1515
     27 H14        -1.0328   -0.5668    2.3589 H         1 <0>         0.1488
     28 H15         1.7477   -1.3432    5.3921 H         1 <0>         0.2370
     29 H16         1.6317   -0.0761    1.2281 H         1 <0>         0.4272
@<TRIPOS>BOND
     1    1    2 1
     2    1   15 1
     3    1   16 1
     4    1   17 1
     5    2    3 1
     6    2    4 1
     7    2   11 1
     8    4    5 1
     9    4   18 1
    10    4   19 1
    11    5   10 ar
    12    5    6 ar
    13    6    7 ar
    14    6   20 1
    15    7    8 ar
    16    7   21 1
    17    8    9 ar
    18    8   22 1
    19    9   10 ar
    20    9   23 1
    21   10   24 1
    22   11   12 1
    23   11   25 1
    24   11   29 1
    25   12   13 1
    26   12   26 1
    27   12   27 1
    28   13   14 3
    29   14   28 1
@<TRIPOS>MOLECULE
ZINC03639353
   28    28     0     0     0
SMALL
USER_CHARGES

@<TRIPOS>ATOM
      1 C1         -0.0187    1.5258    0.0104 C.3       1 <0>        -0.1426
      2 C2          0.0021   -0.0041    0.0020 C.3       1 <0>         0.0883
      3 H1          0.5123   -0.3556   -0.8948 H         1 <0>         0.0489
      4 C3          0.7421   -0.5109    1.2415 C.3       1 <0>        -0.0861
      5 C4          0.8700   -2.0108    1.1719 C.ar      1 <0>        -0.0900
      6 C5         -0.1174   -2.8145    1.7105 C.ar      1 <0>        -0.1231
      7 C6         -0.0001   -4.1904    1.6467 C.ar      1 <0>        -0.1154
      8 C7          1.1044   -4.7626    1.0438 C.ar      1 <0>        -0.1233
      9 C8          2.0914   -3.9590    0.5043 C.ar      1 <0>        -0.1166
     10 C9          1.9720   -2.5831    0.5644 C.ar      1 <0>        -0.1175
     11 N1         -1.3761   -0.5125    0.0124 N.3       1 <0>        -0.6848
     12 C10        -1.9244   -0.5753   -1.3489 C.3       1 <0>         0.1662
     13 C11        -3.3033   -1.0880   -1.2994 C.1       1 <0>        -0.1910
     14 C12        -4.4031   -1.4970   -1.2599 C.1       1 <0>        -0.1897
     15 H2          1.0039    1.9031    0.0027 H         1 <0>         0.0593
     16 H3         -0.5459    1.8868   -0.8726 H         1 <0>         0.0560
     17 H4         -0.5289    1.8773    0.9072 H         1 <0>         0.0645
     18 H5          1.7350   -0.0630    1.2804 H         1 <0>         0.0836
     19 H6          0.1838   -0.2350    2.1361 H         1 <0>         0.0840
     20 H7         -0.9803   -2.3674    2.1815 H         1 <0>         0.1251
     21 H8         -0.7712   -4.8182    2.0681 H         1 <0>         0.1232
     22 H9          1.1964   -5.8375    0.9945 H         1 <0>         0.1220
     23 H10         2.9545   -4.4061    0.0336 H         1 <0>         0.1225
     24 H11         2.7413   -1.9552    0.1397 H         1 <0>         0.1217
     25 H12        -1.9233    0.4226   -1.7874 H         1 <0>         0.0957
     26 H13        -1.3112   -1.2401   -1.9573 H         1 <0>         0.0534
     27 H14        -5.3867   -1.8627   -1.2246 H         1 <0>         0.2186
     28 H15        -1.4257   -1.4134    0.4641 H         1 <0>         0.3473
@<TRIPOS>BOND
     1    1    2 1
     2    1   15 1
     3    1   16 1
     4    1   17 1
     5    2    3 1
     6    2    4 1
     7    2   11 1
     8    4    5 1
     9    4   18 1
    10    4   19 1
    11    5   10 ar
    12    5    6 ar
    13    6    7 ar
    14    6   20 1
    15    7    8 ar
    16    7   21 1
    17    8    9 ar
    18    8   22 1
    19    9   10 ar
    20    9   23 1
    21   10   24 1
    22   11   12 1
    23   11   28 1
    24   12   13 1
    25   12   25 1
    26   12   26 1
    27   13   14 3
    28   14   27 1
@<TRIPOS>MOLECULE
ZINC04006187
   30    33     0     0     0
SMALL
USER_CHARGES
(3-bromophenyl)BLAHone
@<TRIPOS>ATOM
      1 C1         -7.9415   -2.6469    0.0252 C.ar      1 <0>        -0.0842
      2 C2         -8.8632   -1.6180    0.0351 C.ar      1 <0>        -0.1091
      3 C3         -8.4375   -0.2997    0.0407 C.ar      1 <0>        -0.0422
      4 C4         -7.0779   -0.0108    0.0355 C.ar      1 <0>        -0.1621
      5 C5         -6.1392   -1.0568    0.0254 C.ar      1 <0>        -0.0215
      6 C6         -6.5828   -2.3726    0.0203 C.ar      1 <0>        -0.0738
      7 C7         -4.7737   -0.4731    0.0221 C.ar      1 <0>         0.1342
      8 C8         -4.8897    0.9297    0.0303 C.ar      1 <0>        -0.1697
      9 C9         -3.7291    1.6903    0.0289 C.ar      1 <0>        -0.0348
     10 C10        -2.5043    1.0038    0.0194 C.ar      1 <0>         0.1141
     11 N1         -2.4943   -0.3222    0.0066 N.ar      1 <0>        -0.2060
     12 N2         -3.5679   -1.0244    0.0135 N.ar      1 <0>        -0.2131
     13 C11        -1.2283    1.7579    0.0174 C.ar      1 <0>        -0.0494
     14 C12        -1.2394    3.1524    0.0289 C.ar      1 <0>        -0.0804
     15 C13        -0.0487    3.8495    0.0213 C.ar      1 <0>        -0.1124
     16 C14         1.1552    3.1680    0.0071 C.ar      1 <0>        -0.0703
     17 C15         1.1730    1.7840    0.0004 C.ar      1 <0>        -0.0957
     18 C16        -0.0126    1.0758    0.0080 C.ar      1 <0>        -0.0457
     19 Br1         2.8235    0.8614   -0.0196 Br        1 <0>        -0.0373
     20 C17        -6.3315    1.2702    0.0389 C.2       1 <0>         0.4566
     21 O1         -6.8105    2.3855    0.0481 O.2       1 <0>        -0.3990
     22 H1         -8.2818   -3.6718    0.0216 H         1 <0>         0.1421
     23 H2         -9.9197   -1.8421    0.0388 H         1 <0>         0.1422
     24 H3         -9.1608    0.5022    0.0492 H         1 <0>         0.1413
     25 H4         -5.8688   -3.1829    0.0123 H         1 <0>         0.1430
     26 H5         -3.7664    2.7696    0.0345 H         1 <0>         0.1659
     27 H6         -2.1784    3.6858    0.0400 H         1 <0>         0.1362
     28 H7         -0.0565    4.9295    0.0261 H         1 <0>         0.1420
     29 H8          2.0846    3.7180    0.0008 H         1 <0>         0.1397
     30 H9          0.0021   -0.0041    0.0020 H         1 <0>         0.1494
@<TRIPOS>BOND
     1    1    6 ar
     2    1    2 ar
     3    1   22 1
     4    2    3 ar
     5    2   23 1
     6    3    4 ar
     7    3   24 1
     8    4   20 1
     9    4    5 ar
    10    5    6 ar
    11    5    7 1
    12    6   25 1
    13    7   12 ar
    14    7    8 ar
    15    8    9 ar
    16    8   20 1
    17    9   10 ar
    18    9   26 1
    19   10   11 ar
    20   10   13 1
    21   11   12 ar
    22   13   18 ar
    23   13   14 ar
    24   14   15 ar
    25   14   27 1
    26   15   16 ar
    27   15   28 1
    28   16   17 ar
    29   16   29 1
    30   17   18 ar
    31   17   19 1
    32   18   30 1
    33   20   21 2
@<TRIPOS>MOLECULE
ZINC04006194
   31    34     0     0     0
SMALL
USER_CHARGES

@<TRIPOS>ATOM
      1 C1         -0.0167    1.3818    0.0096 C.ar      1 <0>        -0.0842
      2 C2          1.1646    2.0979    0.0022 C.ar      1 <0>        -0.1100
      3 C3          2.3816    1.4366   -0.0134 C.ar      1 <0>        -0.0423
      4 C4          2.4148    0.0469   -0.0211 C.ar      1 <0>        -0.1627
      5 C5          1.2135   -0.6828   -0.0131 C.ar      1 <0>        -0.0199
      6 C6          0.0021   -0.0041    0.0020 C.ar      1 <0>        -0.0750
      7 C7          1.5352   -2.1325   -0.0240 C.ar      1 <0>         0.1305
      8 C8          2.9356   -2.2771   -0.0387 C.ar      1 <0>        -0.1698
      9 C9          3.4690   -3.5577   -0.0508 C.ar      1 <0>        -0.0376
     10 C10         2.5680   -4.6353   -0.0475 C.ar      1 <0>         0.1186
     11 N1          1.2626   -4.4004   -0.0333 N.ar      1 <0>        -0.2095
     12 N2          0.7709   -3.2156   -0.0218 N.ar      1 <0>        -0.2138
     13 C11         3.0734   -6.0277   -0.0604 C.ar      1 <0>        -0.0681
     14 C12         4.4468   -6.2729   -0.0701 C.ar      1 <0>        -0.0762
     15 C13         4.9136   -7.5697   -0.0821 C.ar      1 <0>        -0.1473
     16 C14         4.0185   -8.6317   -0.0847 C.ar      1 <0>         0.1296
     17 C15         2.6506   -8.3912   -0.0756 C.ar      1 <0>        -0.1490
     18 C16         2.1770   -7.0968   -0.0572 C.ar      1 <0>        -0.0541
     19 O1          4.4819   -9.9085   -0.0966 O.3       1 <0>        -0.4978
     20 C17         3.5360   -0.9227   -0.0374 C.2       1 <0>         0.4564
     21 O2          4.7205   -0.6574   -0.0484 O.2       1 <0>        -0.3999
     22 H1         -0.9612    1.9053    0.0260 H         1 <0>         0.1418
     23 H2          1.1392    3.1776    0.0082 H         1 <0>         0.1419
     24 H3          3.3031    1.9997   -0.0199 H         1 <0>         0.1410
     25 H4         -0.9260   -0.5564    0.0079 H         1 <0>         0.1426
     26 H5          4.5366   -3.7199   -0.0626 H         1 <0>         0.1649
     27 H6          5.1433   -5.4475   -0.0685 H         1 <0>         0.1336
     28 H7          5.9767   -7.7602   -0.0899 H         1 <0>         0.1377
     29 H8          1.9573   -9.2192   -0.0783 H         1 <0>         0.1379
     30 H9          1.1133   -6.9105   -0.0449 H         1 <0>         0.1441
     31 H10         4.6212  -10.2846    0.7834 H         1 <0>         0.3966
@<TRIPOS>BOND
     1    1    6 ar
     2    1    2 ar
     3    1   22 1
     4    2    3 ar
     5    2   23 1
     6    3    4 ar
     7    3   24 1
     8    4   20 1
     9    4    5 ar
    10    5    6 ar
    11    5    7 1
    12    6   25 1
    13    7   12 ar
    14    7    8 ar
    15    8    9 ar
    16    8   20 1
    17    9   10 ar
    18    9   26 1
    19   10   11 ar
    20   10   13 1
    21   11   12 ar
    22   13   18 ar
    23   13   14 ar
    24   14   15 ar
    25   14   27 1
    26   15   16 ar
    27   15   28 1
    28   16   17 ar
    29   16   19 1
    30   17   18 ar
    31   17   29 1
    32   18   30 1
    33   19   31 1
    34   20   21 2
@<TRIPOS>MOLECULE
ZINC01383077
   33    36     0     0     0
SMALL
USER_CHARGES
[3-(trifluoromethyl)phenyl]BLAHone
@<TRIPOS>ATOM
      1 C1          0.2176   11.8689    0.0682 C.ar      1 <0>        -0.0842
      2 C2         -1.1406   12.1205    0.0821 C.ar      1 <0>        -0.1086
      3 C3         -2.0447   11.0709    0.0831 C.ar      1 <0>        -0.0421
      4 C4         -1.5839    9.7596    0.0710 C.ar      1 <0>        -0.1619
      5 C5         -0.2022    9.5025    0.0569 C.ar      1 <0>        -0.0224
      6 C6          0.6905   10.5660    0.0555 C.ar      1 <0>        -0.0733
      7 C7          0.0099    8.0327    0.0460 C.ar      1 <0>         0.1359
      8 C8         -1.2483    7.4016    0.0538 C.ar      1 <0>        -0.1691
      9 C9         -1.2938    6.0148    0.0463 C.ar      1 <0>        -0.0345
     10 C10        -0.0702    5.3263    0.0314 C.ar      1 <0>         0.1121
     11 N1          1.0674    6.0078    0.0305 N.ar      1 <0>        -0.2057
     12 N2          1.1082    7.2900    0.0319 N.ar      1 <0>        -0.2124
     13 C11        -0.0501    3.8443    0.0227 C.ar      1 <0>        -0.0542
     14 C12        -1.2467    3.1279    0.0298 C.ar      1 <0>        -0.0637
     15 C13        -1.2217    1.7485    0.0173 C.ar      1 <0>        -0.1177
     16 C14        -0.0126    1.0758    0.0080 C.ar      1 <0>        -0.0524
     17 C15         1.1774    1.7809    0.0004 C.ar      1 <0>        -0.1849
     18 C16         1.1650    3.1610    0.0079 C.ar      1 <0>        -0.0245
     19 C17         2.4900    1.0408   -0.0156 C.3       1 <0>         0.5099
     20 F1          2.2483   -0.3372   -0.0203 F         1 <0>        -0.1752
     21 F2          3.2094    1.3919   -1.1629 F         1 <0>        -0.1731
     22 F3          3.2308    1.3804    1.1215 F         1 <0>        -0.1731
     23 C18        -2.2894    8.4556    0.0696 C.2       1 <0>         0.4567
     24 O1         -3.4910    8.2842    0.0789 O.2       1 <0>        -0.3985
     25 H1          0.9158   12.6929    0.0667 H         1 <0>         0.1423
     26 H2         -1.4989   13.1392    0.0919 H         1 <0>         0.1424
     27 H3         -3.1059   11.2712    0.0933 H         1 <0>         0.1415
     28 H4          1.7540   10.3780    0.0450 H         1 <0>         0.1431
     29 H5         -2.2349    5.4850    0.0521 H         1 <0>         0.1663
     30 H6         -2.1910    3.6519    0.0413 H         1 <0>         0.1397
     31 H7         -2.1476    1.1927    0.0191 H         1 <0>         0.1456
     32 H8          0.0021   -0.0041    0.0020 H         1 <0>         0.1458
     33 H9          2.0948    3.7105    0.0020 H         1 <0>         0.1503
@<TRIPOS>BOND
     1    1    6 ar
     2    1    2 ar
     3    1   25 1
     4    2    3 ar
     5    2   26 1
     6    3    4 ar
     7    3   27 1
     8    4   23 1
     9    4    5 ar
    10    5    6 ar
    11    5    7 1
    12    6   28 1
    13    7   12 ar
    14    7    8 ar
    15    8    9 ar
    16    8   23 1
    17    9   10 ar
    18    9   29 1
    19   10   11 ar
    20   10   13 1
    21   11   12 ar
    22   13   18 ar
    23   13   14 ar
    24   14   15 ar
    25   14   30 1
    26   15   16 ar
    27   15   31 1
    28   16   17 ar
    29   16   32 1
    30   17   18 ar
    31   17   19 1
    32   18   33 1
    33   19   20 1
    34   19   21 1
    35   19   22 1
    36   23   24 2
@<TRIPOS>MOLECULE
ZINC02565858
   27    29     0     0     0
SMALL
USER_CHARGES

@<TRIPOS>ATOM
      1 C1         -0.0164    1.3571    0.0095 C.ar      1 <0>        -0.0779
      2 C2          1.1699    2.0897    0.0021 C.ar      1 <0>        -0.0852
      3 C3          2.3792    1.4677   -0.0127 C.ar      1 <0>        -0.0838
      4 C4          2.4410    0.0610   -0.0208 C.ar      1 <0>         0.1300
      5 C5          1.2317   -0.6820   -0.0132 C.ar      1 <0>        -0.0656
      6 C6          0.0021   -0.0041    0.0020 C.ar      1 <0>        -0.1047
      7 C7          1.2911   -2.0880   -0.0213 C.ar      1 <0>        -0.0306
      8 C8          2.5200   -2.6827   -0.0361 C.ar      1 <0>        -0.1473
      9 C9          3.6776   -1.8915   -0.0429 C.ar      1 <0>         0.1097
     10 N1          3.6126   -0.5743   -0.0349 N.ar      1 <0>        -0.4226
     11 C10         5.0062   -2.5513   -0.0586 C.cat     1 <0>         0.5749
     12 N2          5.1497   -3.8643   -0.0721 N.pl3     1 <0>        -0.6332
     13 C11         6.5833   -4.1955   -0.0859 C.3       1 <0>         0.0625
     14 C12         7.2693   -2.8142   -0.0779 C.3       1 <0>         0.0566
     15 N3          6.1391   -1.8721   -0.0658 N.pl3     1 <0>        -0.6153
     16 H1         -0.9630    1.8767    0.0259 H         1 <0>         0.1442
     17 H2          1.1277    3.1689    0.0079 H         1 <0>         0.1460
     18 H3          3.2885    2.0503   -0.0187 H         1 <0>         0.1472
     19 H4         -0.9241   -0.5596    0.0082 H         1 <0>         0.1461
     20 H5          0.3885   -2.6809   -0.0155 H         1 <0>         0.1624
     21 H6          2.6003   -3.7597   -0.0422 H         1 <0>         0.1464
     22 H7          6.8547   -4.7643    0.8033 H         1 <0>         0.1291
     23 H8          6.8413   -4.7473   -0.9898 H         1 <0>         0.1291
     24 H9          7.8825   -2.6950    0.8153 H         1 <0>         0.1298
     25 H10         7.8691   -2.6780   -0.9778 H         1 <0>         0.1294
     26 H11         6.2141   -0.9051   -0.0617 H         1 <0>         0.4648
     27 H12         4.4245   -4.5085   -0.0726 H         1 <0>         0.4582
@<TRIPOS>BOND
     1    1    6 ar
     2    1    2 ar
     3    1   16 1
     4    2    3 ar
     5    2   17 1
     6    3    4 ar
     7    3   18 1
     8    4   10 ar
     9    4    5 ar
    10    5    6 ar
    11    5    7 ar
    12    6   19 1
    13    7    8 ar
    14    7   20 1
    15    8    9 ar
    16    8   21 1
    17    9   10 ar
    18    9   11 1
    19   11   15 1
    20   11   12 2
    21   12   13 1
    22   12   27 1
    23   13   14 1
    24   13   22 1
    25   13   23 1
    26   14   15 1
    27   14   24 1
    28   14   25 1
    29   15   26 1
@<TRIPOS>MOLECULE
ZINC02013186
   28    29     0     0     0
SMALL
USER_CHARGES
2-phenethyl-4,5-dihydro-1H-imidazole
@<TRIPOS>ATOM
      1 C1         -0.0167    1.3781    0.0096 C.ar      1 <0>        -0.1069
      2 C2          1.1709    2.0855    0.0021 C.ar      1 <0>        -0.1144
      3 C3          2.3773    1.4107   -0.0141 C.ar      1 <0>        -0.1116
      4 C4          2.3960    0.0285   -0.0217 C.ar      1 <0>        -0.1064
      5 C5          1.2084   -0.6789   -0.0136 C.ar      1 <0>        -0.1115
      6 C6          0.0021   -0.0041    0.0020 C.ar      1 <0>        -0.1144
      7 C7          3.7112   -0.7071   -0.0392 C.3       1 <0>        -0.0895
      8 C8          4.1416   -0.9479   -1.4876 C.3       1 <0>        -0.1088
      9 C9          5.4567   -1.6835   -1.5051 C.cat     1 <0>         0.5150
     10 C10         7.3213   -2.7265   -0.7694 C.3       1 <0>         0.0502
     11 C11         7.3365   -2.7350   -2.3115 C.3       1 <0>         0.0651
     12 N1          6.0877   -2.0364   -2.6604 N.pl3     1 <0>        -0.6654
     13 H1         -0.9592    1.9054    0.0170 H         1 <0>         0.1286
     14 H2          1.1563    3.1654    0.0081 H         1 <0>         0.1284
     15 H3          3.3051    1.9634   -0.0207 H         1 <0>         0.1234
     16 H4          1.2231   -1.7587   -0.0199 H         1 <0>         0.1234
     17 H5         -0.9258   -0.5567    0.0079 H         1 <0>         0.1284
     18 H6          4.4679   -0.1107    0.4703 H         1 <0>         0.0877
     19 H7          3.5990   -1.6641    0.4703 H         1 <0>         0.0879
     20 H8          3.3848   -1.5443   -1.9971 H         1 <0>         0.1365
     21 H9          4.2537    0.0092   -1.9971 H         1 <0>         0.1365
     22 H10         7.3061   -3.7449   -0.3812 H         1 <0>         0.1282
     23 H11         8.1825   -2.1829   -0.3812 H         1 <0>         0.1278
     24 H12         7.3255   -3.7567   -2.6913 H         1 <0>         0.1218
     25 H13         8.2012   -2.1926   -2.6939 H         1 <0>         0.1220
     26 H14         5.7690   -1.8576   -3.5590 H         1 <0>         0.4583
     27 N2          6.0734   -2.0222   -0.4299 N.pl3     1 <0>        -0.6160
     28 H15         5.7450   -1.8303    0.5239 H         1 <0>         0.4756
@<TRIPOS>BOND
     1    1    6 ar
     2    1    2 ar
     3    1   13 1
     4    2    3 ar
     5    2   14 1
     6    3    4 ar
     7    3   15 1
     8    4    5 ar
     9    4    7 1
    10    5    6 ar
    11    5   16 1
    12    6   17 1
    13    7    8 1
    14    7   18 1
    15    7   19 1
    16    8    9 1
    17    8   20 1
    18    8   21 1
    19    9   12 1
    20    9   27 2
    21   10   11 1
    22   10   22 1
    23   10   23 1
    24   10   27 1
    25   11   12 1
    26   11   24 1
    27   11   25 1
    28   12   26 1
    29   27   28 1
@<TRIPOS>MOLECULE
ZINC04992560
   19    20     0     0     0
SMALL
USER_CHARGES
2-(2-furyl)-4,5-dihydro-1H-imidazole
@<TRIPOS>ATOM
      1 C1          2.0912    0.6409   -0.0145 C.2       1 <0>        -0.2211
      2 C2          1.2732    1.7844   -0.0005 C.2       1 <0>        -0.0750
      3 C3         -0.0162    1.3440    0.0094 C.2       1 <0>        -0.0953
      4 O1          0.0021   -0.0041    0.0020 O.3       1 <0>        -0.1548
      5 C4          1.2725   -0.4321   -0.0124 C.2       1 <0>         0.0645
      6 C5         -1.2189    2.1919    0.0200 C.cat     1 <0>         0.6042
      7 C6         -2.5276    4.0452    0.0349 C.3       1 <0>         0.0616
      8 C7         -3.4436    2.8055    0.0334 C.3       1 <0>         0.0677
      9 N1         -2.4937    1.6807    0.0185 N.pl3     1 <0>        -0.6617
     10 H1          3.1710    0.6243   -0.0245 H         1 <0>         0.1776
     11 H2          1.6031    2.8128    0.0019 H         1 <0>         0.1720
     12 H3          1.5885   -1.4648   -0.0210 H         1 <0>         0.2327
     13 H4         -2.6904    4.6390    0.9344 H         1 <0>         0.1306
     14 H5         -2.6990    4.6474   -0.8573 H         1 <0>         0.1306
     15 H6         -4.0587    2.7811    0.9329 H         1 <0>         0.1245
     16 H7         -4.0693    2.7911   -0.8590 H         1 <0>         0.1245
     17 H8         -2.7281    0.7394    0.0110 H         1 <0>         0.4597
     18 N2         -1.1651    3.4892    0.0258 N.pl3     1 <0>        -0.6177
     19 H9         -0.3012    4.0441    0.0243 H         1 <0>         0.4755
@<TRIPOS>BOND
     1    1    5 2
     2    1    2 1
     3    1   10 1
     4    2    3 2
     5    2   11 1
     6    3    4 1
     7    3    6 1
     8    4    5 1
     9    5   12 1
    10    6    9 1
    11    6   18 2
    12    7    8 1
    13    7   13 1
    14    7   14 1
    15    7   18 1
    16    8    9 1
    17    8   15 1
    18    8   16 1
    19    9   17 1
    20   18   19 1
@<TRIPOS>MOLECULE
ZINC06282777
   26    27     0     0     0
SMALL
USER_CHARGES
2-(phenoxymethyl)-4,5-dihydro-1H-imidazole
@<TRIPOS>ATOM
      1 C1         -0.0167    1.3784    0.0096 C.ar      1 <0>        -0.1363
      2 C2          1.1698    2.0883    0.0021 C.ar      1 <0>        -0.0771
      3 C3          2.3774    1.4175   -0.0131 C.ar      1 <0>        -0.2023
      4 C4          2.3989    0.0304   -0.0208 C.ar      1 <0>         0.1098
      5 C5          1.2070   -0.6796   -0.0132 C.ar      1 <0>        -0.1365
      6 C6          0.0021   -0.0041    0.0020 C.ar      1 <0>        -0.0757
      7 O1          3.5855   -0.6319   -0.0353 O.3       1 <0>        -0.3226
      8 C7          4.7725    0.1638   -0.0424 C.3       1 <0>         0.0737
      9 C8          5.9808   -0.7367   -0.0583 C.cat     1 <0>         0.5149
     10 C9          7.2323   -2.6179   -0.0795 C.3       1 <0>         0.0481
     11 C10         8.1820   -1.4028   -0.0823 C.3       1 <0>         0.0691
     12 N1          7.2564   -0.2571   -0.0678 N.pl3     1 <0>        -0.6606
     13 H1         -0.9597    1.9047    0.0170 H         1 <0>         0.1338
     14 H2          1.1525    3.1682    0.0081 H         1 <0>         0.1339
     15 H3          3.3039    1.9724   -0.0187 H         1 <0>         0.1285
     16 H4          1.2211   -1.7595   -0.0195 H         1 <0>         0.1355
     17 H5         -0.9261   -0.5563    0.0076 H         1 <0>         0.1392
     18 H6          4.7798    0.7974   -0.9293 H         1 <0>         0.1324
     19 H7          4.7965    0.7884    0.8506 H         1 <0>         0.1325
     20 H8          7.3730   -3.2156   -0.9801 H         1 <0>         0.1316
     21 H9          7.3916   -3.2260    0.8109 H         1 <0>         0.1312
     22 H10         8.7928   -1.3933   -0.9851 H         1 <0>         0.1250
     23 H11         8.8117   -1.4006    0.8073 H         1 <0>         0.1252
     24 H12         7.5113    0.6788   -0.0650 H         1 <0>         0.4597
     25 N2          5.8875   -2.0183   -0.0583 N.pl3     1 <0>        -0.5960
     26 H13         5.0066   -2.5456   -0.0455 H         1 <0>         0.4832
@<TRIPOS>BOND
     1    1    6 ar
     2    1    2 ar
     3    1   13 1
     4    2    3 ar
     5    2   14 1
     6    3    4 ar
     7    3   15 1
     8    4    5 ar
     9    4    7 1
    10    5    6 ar
    11    5   16 1
    12    6   17 1
    13    7    8 1
    14    8    9 1
    15    8   18 1
    16    8   19 1
    17    9   12 1
    18    9   25 2
    19   10   11 1
    20   10   20 1
    21   10   21 1
    22   10   25 1
    23   11   12 1
    24   11   22 1
    25   11   23 1
    26   12   24 1
    27   25   26 1
@<TRIPOS>MOLECULE
ZINC13492314
   27    28     0     0     0
SMALL
USER_CHARGES
(1S)-1-(prop-2-ynylamino)indan-4-ol
@<TRIPOS>ATOM
      1 C1         -1.2512    1.9391    2.1850 C.1       1 <0>        -0.1957
      2 C2         -0.7017    1.5605    1.2191 C.1       1 <0>        -0.1945
      3 C3         -0.0127    1.0858    0.0080 C.3       1 <0>         0.1546
      4 N1         -0.7232    1.5724   -1.1821 N.3       1 <0>        -0.6670
      5 C4         -0.0624    1.1171   -2.4126 C.3       1 <0>         0.1120
      6 H1          0.3472    0.1264   -2.1662 H         1 <0>         0.0651
      7 C5         -1.0661    1.1013   -3.5850 C.3       1 <0>        -0.1197
      8 C6         -0.1794    1.5070   -4.7834 C.3       1 <0>        -0.0637
      9 C7          0.9478    2.3213   -4.1856 C.ar      1 <0>        -0.1340
     10 C8          1.0151    2.0975   -2.8238 C.ar      1 <0>        -0.0392
     11 C9          1.9780    2.7423   -2.0653 C.ar      1 <0>        -0.1390
     12 C10         2.8724    3.6092   -2.6635 C.ar      1 <0>        -0.0806
     13 C11         2.8091    3.8361   -4.0244 C.ar      1 <0>        -0.2141
     14 C12         1.8471    3.1926   -4.7878 C.ar      1 <0>         0.1679
     15 O1          1.7836    3.4144   -6.1271 O.3       1 <0>        -0.5098
     16 H2         -1.7661    2.2938    3.0900 H         1 <0>         0.2321
     17 H3          1.0193    1.4666    0.0002 H         1 <0>         0.0959
     18 H4          0.0023   -0.0141    0.0019 H         1 <0>         0.0563
     19 H5         -1.7552    1.1916   -1.1743 H         1 <0>         0.3482
     20 H6         -1.4921    0.0925   -3.6894 H         1 <0>         0.0791
     21 H7         -1.8735    1.8215   -3.3862 H         1 <0>         0.0865
     22 H8          0.1967    0.6026   -5.2840 H         1 <0>         0.0786
     23 H9         -0.7732    2.0998   -5.4948 H         1 <0>         0.0771
     24 H10         2.0298    2.5669   -1.0009 H         1 <0>         0.1187
     25 H11         3.6211    4.1091   -2.0669 H         1 <0>         0.1254
     26 H12         3.5074    4.5138   -4.4930 H         1 <0>         0.1279
     27 H13         2.4951    4.1040   -6.6047 H         1 <0>         0.4318
@<TRIPOS>BOND
     1    1    2 3
     2    1   16 1
     3    2    3 1
     4    3    4 1
     5    3   17 1
     6    3   18 1
     7    4    5 1
     8    4   19 1
     9    5    6 1
    10    5   10 1
    11    5    7 1
    12    7    8 1
    13    7   20 1
    14    7   21 1
    15    8    9 1
    16    8   22 1
    17    8   23 1
    18    9   14 ar
    19    9   10 ar
    20   10   11 ar
    21   11   12 ar
    22   11   24 1
    23   12   13 ar
    24   12   25 1
    25   13   14 ar
    26   13   26 1
    27   14   15 1
    28   15   27 1
@<TRIPOS>MOLECULE
ZINC13492315
   27    28     0     0     0
SMALL
USER_CHARGES
(1R)-1-(prop-2-ynylamino)indan-4-ol
@<TRIPOS>ATOM
      1 C1         -5.4547    4.9062    2.3919 C.1       1 <0>        -0.1961
      2 C2         -4.9573    3.9714    1.8848 C.1       1 <0>        -0.1949
      3 C3         -4.3337    2.7994    1.2490 C.3       1 <0>         0.1524
      4 N1         -2.8717    2.9212    1.3248 N.3       1 <0>        -0.6624
      5 C4         -2.2141    1.7665    0.6986 C.3       1 <0>         0.1145
      6 H1         -2.8723    0.9129    0.9179 H         1 <0>         0.0949
      7 C5         -0.7769    1.6043    1.2447 C.3       1 <0>        -0.1052
      8 C6         -0.0127    1.0858    0.0080 C.3       1 <0>        -0.0696
      9 C7         -0.7851    1.6072   -1.1847 C.ar      1 <0>        -0.1256
     10 C8         -2.0496    1.9983   -0.7883 C.ar      1 <0>        -0.0903
     11 C9         -2.9372    2.5106   -1.7198 C.ar      1 <0>        -0.1512
     12 C10        -2.5648    2.6329   -3.0448 C.ar      1 <0>        -0.0782
     13 C11        -1.3019    2.2432   -3.4460 C.ar      1 <0>        -0.2116
     14 C12        -0.4100    1.7298   -2.5169 C.ar      1 <0>         0.1693
     15 O1          0.8330    1.3460   -2.9099 O.3       1 <0>        -0.5084
     16 H2         -5.9207    5.7820    2.8670 H         1 <0>         0.2321
     17 H3         -4.6531    1.8856    1.7714 H         1 <0>         0.0955
     18 H4         -4.6431    2.7462    0.1947 H         1 <0>         0.0591
     19 H5         -2.5523    3.8351    0.8024 H         1 <0>         0.3470
     20 H6         -0.4076    2.5777    1.5999 H         1 <0>         0.0831
     21 H7         -0.7803    0.8869    2.0786 H         1 <0>         0.0817
     22 H8          1.0165    1.4738    0.0237 H         1 <0>         0.0768
     23 H9          0.0098   -0.0138    0.0253 H         1 <0>         0.0796
     24 H10        -3.9254    2.8158   -1.4091 H         1 <0>         0.1191
     25 H11        -3.2614    3.0328   -3.7668 H         1 <0>         0.1264
     26 H12        -1.0098    2.3383   -4.4814 H         1 <0>         0.1291
     27 H13         1.1308    1.4427   -3.9644 H         1 <0>         0.4328
@<TRIPOS>BOND
     1    1    2 3
     2    1   16 1
     3    2    3 1
     4    3    4 1
     5    3   17 1
     6    3   18 1
     7    4    5 1
     8    4   19 1
     9    5    6 1
    10    5   10 1
    11    5    7 1
    12    7    8 1
    13    7   20 1
    14    7   21 1
    15    8    9 1
    16    8   22 1
    17    8   23 1
    18    9   14 ar
    19    9   10 ar
    20   10   11 ar
    21   11   12 ar
    22   11   24 1
    23   12   13 ar
    24   12   25 1
    25   13   14 ar
    26   13   26 1
    27   14   15 1
    28   15   27 1
@<TRIPOS>MOLECULE
ZINC00017887
   22    24     0     0     0
SMALL
USER_CHARGES
2-benzofuran-2-yl-1H-imidazole
@<TRIPOS>ATOM
      1 C1         -0.0126    1.0758    0.0080 C.ar      1 <0>        -0.1345
      2 C2         -1.2261    1.7488    0.0174 C.ar      1 <0>        -0.0868
      3 C3         -1.2673    3.1270    0.0304 C.ar      1 <0>        -0.1085
      4 C4         -0.0837    3.8543    0.0226 C.ar      1 <0>         0.0620
      5 C5          1.1435    3.1670    0.0077 C.ar      1 <0>        -0.1332
      6 C6          1.1644    1.7710    0.0005 C.ar      1 <0>        -0.0634
      7 C7          2.1776    4.2031    0.0028 C.2       1 <0>        -0.1360
      8 C8          1.5204    5.3903    0.0147 C.2       1 <0>         0.0901
      9 O1          0.1893    5.1748    0.0263 O.3       1 <0>        -0.1961
     10 C9          2.1637    6.7143    0.0141 C.2       1 <0>         0.2644
     11 N1          1.5177    7.9183    0.0201 N.pl3     1 <0>        -0.5617
     12 H1          0.5282    8.0627    0.0234 H         1 <0>         0.4327
     13 C10         2.4827    8.8895    0.0207 C.2       1 <0>        -0.0307
     14 C11         3.6767    8.2615    0.0057 C.2       1 <0>        -0.0208
     15 N2          3.4607    6.9419    0.0019 N.2       1 <0>        -0.4538
     16 H2          0.0021   -0.0041    0.0020 H         1 <0>         0.1330
     17 H3         -2.1484    1.1869    0.0187 H         1 <0>         0.1381
     18 H4         -2.2176    3.6399    0.0419 H         1 <0>         0.1338
     19 H5          2.1063    1.2427   -0.0114 H         1 <0>         0.1323
     20 H6          3.2471    4.0530   -0.0074 H         1 <0>         0.1707
     21 H7          2.3189    9.9570    0.0275 H         1 <0>         0.1869
     22 H8          4.6434    8.7430   -0.0026 H         1 <0>         0.1815
@<TRIPOS>BOND
     1    1    6 ar
     2    1    2 ar
     3    1   16 1
     4    2    3 ar
     5    2   17 1
     6    3    4 ar
     7    3   18 1
     8    4    9 1
     9    4    5 ar
    10    5    6 ar
    11    5    7 1
    12    6   19 1
    13    7    8 2
    14    7   20 1
    15    8    9 1
    16    8   10 1
    17   10   15 2
    18   10   11 1
    19   11   12 1
    20   11   13 1
    21   13   14 2
    22   13   21 1
    23   14   15 1
    24   14   22 1
@<TRIPOS>MOLECULE
ZINC03801006
   39    41     0     0     0
SMALL
USER_CHARGES
3-[5-(4-benzyloxyphenyl)-2-oxo-1,3,4-oxadiazol-3-yl]propanenitrile
@<TRIPOS>ATOM
      1 C1         -0.0167    1.3781    0.0096 C.ar      1 <0>        -0.1068
      2 C2          1.1709    2.0855    0.0021 C.ar      1 <0>        -0.1229
      3 C3          2.3773    1.4107   -0.0141 C.ar      1 <0>        -0.0942
      4 C4          2.3960    0.0285   -0.0217 C.ar      1 <0>        -0.1023
      5 C5          1.2084   -0.6789   -0.0136 C.ar      1 <0>        -0.0942
      6 C6          0.0021   -0.0041    0.0020 C.ar      1 <0>        -0.1229
      7 C7          3.7112   -0.7071   -0.0392 C.3       1 <0>         0.0993
      8 O1          4.1132   -0.9320   -1.3920 O.3       1 <0>        -0.3017
      9 C8          5.2867   -1.5884   -1.5856 C.ar      1 <0>         0.1665
     10 C9          6.0375   -2.0018   -0.4930 C.ar      1 <0>        -0.2147
     11 C10         7.2264   -2.6724   -0.6854 C.ar      1 <0>        -0.0176
     12 C11         7.6805   -2.9264   -1.9806 C.ar      1 <0>        -0.0849
     13 C12         6.9256   -2.5046   -3.0764 C.ar      1 <0>        -0.0297
     14 C13         5.7352   -1.8393   -2.8758 C.ar      1 <0>        -0.1533
     15 C14         8.9581   -3.6399   -2.1914 C.2       1 <0>         0.3074
     16 N1          9.7428   -4.0783   -1.2497 N.2       1 <0>        -0.2654
     17 N2         10.8443   -4.6934   -1.8627 N.am      1 <0>        -0.4574
     18 C15        10.6587   -4.5896   -3.1958 C.2       1 <0>         0.6085
     19 O2         11.4057   -5.0067   -4.0612 O.2       1 <0>        -0.4756
     20 O3          9.4957   -3.9468   -3.3922 O.3       1 <0>        -0.2651
     21 C16        11.9784   -5.3277   -1.1861 C.3       1 <0>         0.1633
     22 C17        13.0771   -4.2895   -0.9501 C.3       1 <0>        -0.0452
     23 C18        14.2166   -4.9268   -0.2702 C.1       1 <0>         0.2054
     24 N3         15.0959   -5.4186    0.2545 N.1       1 <0>        -0.4149
     25 H1         -0.9592    1.9054    0.0170 H         1 <0>         0.1255
     26 H2          1.1563    3.1654    0.0081 H         1 <0>         0.1266
     27 H3          3.3051    1.9634   -0.0207 H         1 <0>         0.1250
     28 H4          1.2231   -1.7587   -0.0199 H         1 <0>         0.1249
     29 H5         -0.9258   -0.5567    0.0079 H         1 <0>         0.1266
     30 H6          4.4679   -0.1107    0.4703 H         1 <0>         0.0768
     31 H7          3.5990   -1.6641    0.4703 H         1 <0>         0.0768
     32 H8          5.6875   -1.8012    0.5088 H         1 <0>         0.1412
     33 H9          7.8079   -2.9969    0.1648 H         1 <0>         0.1439
     34 H10         7.2739   -2.6991   -4.0800 H         1 <0>         0.1448
     35 H11         5.1503   -1.5129   -3.7231 H         1 <0>         0.1442
     36 H12        11.6500   -5.7331   -0.2290 H         1 <0>         0.1130
     37 H13        12.3678   -6.1339   -1.8077 H         1 <0>         0.1124
     38 H14        13.4055   -3.8841   -1.9071 H         1 <0>         0.1167
     39 H15        12.6877   -3.4832   -0.3284 H         1 <0>         0.1203
@<TRIPOS>BOND
     1    1    6 ar
     2    1    2 ar
     3    1   25 1
     4    2    3 ar
     5    2   26 1
     6    3    4 ar
     7    3   27 1
     8    4    5 ar
     9    4    7 1
    10    5    6 ar
    11    5   28 1
    12    6   29 1
    13    7    8 1
    14    7   30 1
    15    7   31 1
    16    8    9 1
    17    9   14 ar
    18    9   10 ar
    19   10   11 ar
    20   10   32 1
    21   11   12 ar
    22   11   33 1
    23   12   13 ar
    24   12   15 1
    25   13   14 ar
    26   13   34 1
    27   14   35 1
    28   15   20 1
    29   15   16 2
    30   16   17 1
    31   17   18 am
    32   17   21 1
    33   18   19 2
    34   18   20 1
    35   21   22 1
    36   21   36 1
    37   21   37 1
    38   22   23 1
    39   22   38 1
    40   22   39 1
    41   23   24 3
@<TRIPOS>MOLECULE
ZINC19167170
   24    24     0     0     0
SMALL
USER_CHARGES
(1R)-2-hydrazino-1-phenyl-ethanol
@<TRIPOS>ATOM
      1 C1         -4.4861    2.4564   -4.3540 C.ar      1 <0>        -0.0956
      2 C2         -4.5606    3.0698   -3.1174 C.ar      1 <0>        -0.1166
      3 C3         -3.8229    2.5786   -2.0566 C.ar      1 <0>        -0.1008
      4 C4         -3.0111    1.4736   -2.2321 C.ar      1 <0>        -0.1160
      5 C5         -2.9325    0.8634   -3.4700 C.ar      1 <0>        -0.0858
      6 C6         -3.6735    1.3520   -4.5298 C.ar      1 <0>        -0.1198
      7 C7         -2.2069    0.9381   -1.0756 C.3       1 <0>         0.1490
      8 H1         -2.7101    1.1593   -0.1228 H         1 <0>         0.0914
      9 C8         -0.7955    1.5269   -1.1198 C.3       1 <0>        -0.0248
     10 N1         -0.0116    1.0048    0.0076 N.4       1 <0>        -0.3941
     11 N2          1.3386    1.5443   -0.0024 N.3       1 <0>        -0.6443
     12 O1         -2.1320   -0.4861   -1.1665 O.3       1 <0>        -0.5735
     13 H2         -5.0630    2.8398   -5.1826 H         1 <0>         0.1319
     14 H3         -5.1954    3.9327   -2.9801 H         1 <0>         0.1329
     15 H4         -3.8812    3.0579   -1.0905 H         1 <0>         0.1270
     16 H5         -2.2949    0.0027   -3.6083 H         1 <0>         0.1283
     17 H6         -3.6156    0.8725   -5.4958 H         1 <0>         0.1311
     18 H7         -0.3100    1.2449   -2.0657 H         1 <0>         0.1368
     19 H8         -0.8532    2.6232   -1.0498 H         1 <0>         0.1499
     20 H9         -0.4971    1.2868    0.9535 H         1 <0>         0.4697
     21 H10         1.8770    1.1857    0.7719 H         1 <0>         0.4010
     22 H11         1.7974    1.3542   -0.8807 H         1 <0>         0.3994
     23 H12        -1.5816   -1.0577   -0.4047 H         1 <0>         0.4023
     24 H13         0.0461   -0.0915   -0.0624 H         1 <0>         0.4206
@<TRIPOS>BOND
     1    1    6 ar
     2    1    2 ar
     3    1   13 1
     4    2    3 ar
     5    2   14 1
     6    3    4 ar
     7    3   15 1
     8    4    5 ar
     9    4    7 1
    10    5    6 ar
    11    5   16 1
    12    6   17 1
    13    7    8 1
    14    7    9 1
    15    7   12 1
    16    9   10 1
    17    9   18 1
    18    9   19 1
    19   10   11 1
    20   10   20 1
    21   10   24 1
    22   11   21 1
    23   11   22 1
    24   12   23 1
@<TRIPOS>MOLECULE
ZINC19167170
   24    24     0     0     0
SMALL
USER_CHARGES
(1R)-2-hydrazino-1-phenyl-ethanol
@<TRIPOS>ATOM
      1 C1         -4.4861    2.4564   -4.3540 C.ar      1 <0>        -0.1025
      2 C2         -4.5606    3.0698   -3.1174 C.ar      1 <0>        -0.1184
      3 C3         -3.8229    2.5786   -2.0566 C.ar      1 <0>        -0.1073
      4 C4         -3.0111    1.4736   -2.2321 C.ar      1 <0>        -0.1098
      5 C5         -2.9325    0.8634   -3.4700 C.ar      1 <0>        -0.0871
      6 C6         -3.6735    1.3520   -4.5298 C.ar      1 <0>        -0.1207
      7 C7         -2.2069    0.9381   -1.0756 C.3       1 <0>         0.1770
      8 H1         -2.7101    1.1593   -0.1228 H         1 <0>         0.0742
      9 C8         -0.7955    1.5269   -1.1198 C.3       1 <0>        -0.0259
     10 N1         -0.0116    1.0048    0.0076 N.3       1 <0>        -0.4816
     11 N2          1.3386    1.5443   -0.0024 N.4       1 <0>        -0.5521
     12 O1         -2.1320   -0.4861   -1.1665 O.3       1 <0>        -0.5787
     13 H2         -5.0630    2.8398   -5.1826 H         1 <0>         0.1296
     14 H3         -5.1954    3.9327   -2.9801 H         1 <0>         0.1299
     15 H4         -3.8812    3.0579   -1.0905 H         1 <0>         0.1229
     16 H5         -2.2949    0.0027   -3.6083 H         1 <0>         0.1284
     17 H6         -3.6156    0.8725   -5.4958 H         1 <0>         0.1291
     18 H7         -0.3100    1.2449   -2.0657 H         1 <0>         0.1161
     19 H8         -0.8532    2.6232   -1.0498 H         1 <0>         0.0832
     20 H9          1.9022    1.1378    0.8503 H         1 <0>         0.4741
     21 H10         1.2959    2.6407    0.0754 H         1 <0>         0.4313
     22 H11        -1.5816   -1.0577   -0.4047 H         1 <0>         0.4164
     23 H12        -0.4971    1.2868    0.9535 H         1 <0>         0.4004
     24 H13         1.8391    1.2625   -0.9405 H         1 <0>         0.4713
@<TRIPOS>BOND
     1    1    6 ar
     2    1    2 ar
     3    1   13 1
     4    2    3 ar
     5    2   14 1
     6    3    4 ar
     7    3   15 1
     8    4    5 ar
     9    4    7 1
    10    5    6 ar
    11    5   16 1
    12    6   17 1
    13    7    8 1
    14    7    9 1
    15    7   12 1
    16    9   10 1
    17    9   18 1
    18    9   19 1
    19   10   11 1
    20   10   23 1
    21   11   20 1
    22   11   21 1
    23   11   24 1
    24   12   22 1
@<TRIPOS>MOLECULE
ZINC19167170
   23    23     0     0     0
SMALL
USER_CHARGES
(1R)-2-hydrazino-1-phenyl-ethanol
@<TRIPOS>ATOM
      1 C1         -4.4861    2.4564   -4.3540 C.ar      1 <0>        -0.1157
      2 C2         -4.5606    3.0698   -3.1174 C.ar      1 <0>        -0.1208
      3 C3         -3.8229    2.5786   -2.0566 C.ar      1 <0>        -0.1076
      4 C4         -3.0111    1.4736   -2.2321 C.ar      1 <0>        -0.0871
      5 C5         -2.9325    0.8634   -3.4700 C.ar      1 <0>        -0.0920
      6 C6         -3.6735    1.3520   -4.5298 C.ar      1 <0>        -0.1243
      7 C7         -2.2069    0.9381   -1.0756 C.3       1 <0>         0.1640
      8 H1         -2.7101    1.1593   -0.1228 H         1 <0>         0.0725
      9 C8         -0.7955    1.5269   -1.1198 C.3       1 <0>         0.0227
     10 N1         -0.0116    1.0048    0.0076 N.3       1 <0>        -0.4968
     11 N2          1.3386    1.5443   -0.0024 N.3       1 <0>        -0.6552
     12 O1         -2.1320   -0.4861   -1.1665 O.3       1 <0>        -0.5933
     13 H2         -5.0630    2.8398   -5.1826 H         1 <0>         0.1235
     14 H3         -5.1954    3.9327   -2.9801 H         1 <0>         0.1255
     15 H4         -3.8812    3.0579   -1.0905 H         1 <0>         0.1244
     16 H5         -2.2949    0.0027   -3.6083 H         1 <0>         0.1248
     17 H6         -3.6156    0.8725   -5.4958 H         1 <0>         0.1234
     18 H7         -0.3100    1.2449   -2.0657 H         1 <0>         0.0451
     19 H8         -0.8532    2.6232   -1.0498 H         1 <0>         0.0935
     20 H9          1.9022    1.1378    0.8503 H         1 <0>         0.3583
     21 H10         1.8391    1.2625   -0.9405 H         1 <0>         0.3089
     22 H11        -1.5816   -1.0577   -0.4047 H         1 <0>         0.4067
     23 H12         0.0461   -0.0915   -0.0624 H         1 <0>         0.2995
@<TRIPOS>BOND
     1    1    6 ar
     2    1    2 ar
     3    1   13 1
     4    2    3 ar
     5    2   14 1
     6    3    4 ar
     7    3   15 1
     8    4    5 ar
     9    4    7 1
    10    5    6 ar
    11    5   16 1
    12    6   17 1
    13    7    8 1
    14    7    9 1
    15    7   12 1
    16    9   10 1
    17    9   18 1
    18    9   19 1
    19   10   11 1
    20   10   23 1
    21   11   20 1
    22   11   21 1
    23   12   22 1
@<TRIPOS>MOLECULE
ZINC19167960
   24    24     0     0     0
SMALL
USER_CHARGES
(1S)-2-hydrazino-1-phenyl-ethanol
@<TRIPOS>ATOM
      1 C1          1.2084   -0.6789   -0.0136 C.ar      1 <0>        -0.0952
      2 C2          0.0021   -0.0041    0.0020 C.ar      1 <0>        -0.1167
      3 C3         -0.0167    1.3781    0.0096 C.ar      1 <0>        -0.0998
      4 C4          1.1709    2.0855    0.0021 C.ar      1 <0>        -0.1156
      5 C5          2.3773    1.4107   -0.0136 C.ar      1 <0>        -0.0860
      6 C6          2.3961    0.0285   -0.0212 C.ar      1 <0>        -0.1198
      7 C7          1.1505    3.5924    0.0099 C.3       1 <0>         0.1492
      8 H1          0.1955    3.9657   -0.3883 H         1 <0>         0.0900
      9 C8          1.4074    4.0985    1.4307 C.3       1 <0>        -0.0255
     10 N1          1.2692    5.5607    1.4621 N.4       1 <0>        -0.3939
     11 N2          1.5070    6.0779    2.8001 N.3       1 <0>        -0.6446
     12 O1          2.1679    4.0871   -0.8632 O.3       1 <0>        -0.5735
     13 H2          1.2231   -1.7588   -0.0196 H         1 <0>         0.1320
     14 H3         -0.9258   -0.5567    0.0079 H         1 <0>         0.1330
     15 H4         -0.9592    1.9054    0.0170 H         1 <0>         0.1270
     16 H5          3.3052    1.9634   -0.0192 H         1 <0>         0.1273
     17 H6          3.3386   -0.4987   -0.0327 H         1 <0>         0.1312
     18 H7          0.6777    3.6463    2.1185 H         1 <0>         0.1499
     19 H8          2.4253    3.8196    1.7409 H         1 <0>         0.1373
     20 H9          1.9990    6.0128    0.7743 H         1 <0>         0.4205
     21 H10         2.4124    5.7928    3.1423 H         1 <0>         0.3993
     22 H11         1.4121    7.0822    2.8216 H         1 <0>         0.4009
     23 H12         2.3060    5.1712   -0.9882 H         1 <0>         0.4033
     24 H13         0.2514    5.8396    1.1519 H         1 <0>         0.4699
@<TRIPOS>BOND
     1    1    6 ar
     2    1    2 ar
     3    1   13 1
     4    2    3 ar
     5    2   14 1
     6    3    4 ar
     7    3   15 1
     8    4    5 ar
     9    4    7 1
    10    5    6 ar
    11    5   16 1
    12    6   17 1
    13    7    8 1
    14    7    9 1
    15    7   12 1
    16    9   10 1
    17    9   18 1
    18    9   19 1
    19   10   11 1
    20   10   20 1
    21   10   24 1
    22   11   21 1
    23   11   22 1
    24   12   23 1
@<TRIPOS>MOLECULE
ZINC19167960
   24    24     0     0     0
SMALL
USER_CHARGES
(1S)-2-hydrazino-1-phenyl-ethanol
@<TRIPOS>ATOM
      1 C1          1.2084   -0.6789   -0.0136 C.ar      1 <0>        -0.1015
      2 C2          0.0021   -0.0041    0.0020 C.ar      1 <0>        -0.1177
      3 C3         -0.0167    1.3781    0.0096 C.ar      1 <0>        -0.1027
      4 C4          1.1709    2.0855    0.0021 C.ar      1 <0>        -0.1092
      5 C5          2.3773    1.4107   -0.0136 C.ar      1 <0>        -0.0899
      6 C6          2.3961    0.0285   -0.0212 C.ar      1 <0>        -0.1213
      7 C7          1.1505    3.5924    0.0099 C.3       1 <0>         0.1736
      8 H1          0.1955    3.9657   -0.3883 H         1 <0>         0.0858
      9 C8          1.4074    4.0985    1.4307 C.3       1 <0>        -0.0256
     10 N1          1.2692    5.5607    1.4621 N.3       1 <0>        -0.4779
     11 N2          1.5070    6.0779    2.8001 N.4       1 <0>        -0.5525
     12 O1          2.1679    4.0871   -0.8632 O.3       1 <0>        -0.5815
     13 H2          1.2231   -1.7588   -0.0196 H         1 <0>         0.1299
     14 H3         -0.9258   -0.5567    0.0079 H         1 <0>         0.1309
     15 H4         -0.9592    1.9054    0.0170 H         1 <0>         0.1258
     16 H5          3.3052    1.9634   -0.0192 H         1 <0>         0.1249
     17 H6          3.3386   -0.4987   -0.0327 H         1 <0>         0.1288
     18 H7          0.6777    3.6463    2.1185 H         1 <0>         0.1172
     19 H8          2.4253    3.8196    1.7409 H         1 <0>         0.0844
     20 H9          1.3974    7.1724    2.7950 H         1 <0>         0.4744
     21 H10         2.5256    5.8129    3.1200 H         1 <0>         0.4318
     22 H11         2.3060    5.1712   -0.9882 H         1 <0>         0.4056
     23 H12         1.9990    6.0128    0.7743 H         1 <0>         0.3952
     24 H13         0.7780    5.6396    3.4975 H         1 <0>         0.4714
@<TRIPOS>BOND
     1    1    6 ar
     2    1    2 ar
     3    1   13 1
     4    2    3 ar
     5    2   14 1
     6    3    4 ar
     7    3   15 1
     8    4    5 ar
     9    4    7 1
    10    5    6 ar
    11    5   16 1
    12    6   17 1
    13    7    8 1
    14    7    9 1
    15    7   12 1
    16    9   10 1
    17    9   18 1
    18    9   19 1
    19   10   11 1
    20   10   23 1
    21   11   20 1
    22   11   21 1
    23   11   24 1
    24   12   22 1
@<TRIPOS>MOLECULE
ZINC19167960
   23    23     0     0     0
SMALL
USER_CHARGES
(1S)-2-hydrazino-1-phenyl-ethanol
@<TRIPOS>ATOM
      1 C1          1.2084   -0.6789   -0.0136 C.ar      1 <0>        -0.1157
      2 C2          0.0021   -0.0041    0.0020 C.ar      1 <0>        -0.1221
      3 C3         -0.0167    1.3781    0.0096 C.ar      1 <0>        -0.1107
      4 C4          1.1709    2.0855    0.0021 C.ar      1 <0>        -0.0876
      5 C5          2.3773    1.4107   -0.0136 C.ar      1 <0>        -0.0887
      6 C6          2.3961    0.0285   -0.0212 C.ar      1 <0>        -0.1234
      7 C7          1.1505    3.5924    0.0099 C.3       1 <0>         0.1674
      8 H1          0.1955    3.9657   -0.3883 H         1 <0>         0.0588
      9 C8          1.4074    4.0985    1.4307 C.3       1 <0>         0.0213
     10 N1          1.2692    5.5607    1.4621 N.3       1 <0>        -0.4999
     11 N2          1.5070    6.0779    2.8001 N.3       1 <0>        -0.6555
     12 O1          2.1679    4.0871   -0.8632 O.3       1 <0>        -0.5885
     13 H2          1.2231   -1.7588   -0.0196 H         1 <0>         0.1235
     14 H3         -0.9258   -0.5567    0.0079 H         1 <0>         0.1245
     15 H4         -0.9592    1.9054    0.0170 H         1 <0>         0.1210
     16 H5          3.3052    1.9634   -0.0192 H         1 <0>         0.1273
     17 H6          3.3386   -0.4987   -0.0327 H         1 <0>         0.1243
     18 H7          0.6777    3.6463    2.1185 H         1 <0>         0.0431
     19 H8          2.4253    3.8196    1.7409 H         1 <0>         0.0948
     20 H9          1.3974    7.1724    2.7950 H         1 <0>         0.3579
     21 H10         0.7780    5.6396    3.4975 H         1 <0>         0.3081
     22 H11         2.3060    5.1712   -0.9882 H         1 <0>         0.4166
     23 H12         0.2514    5.8396    1.1519 H         1 <0>         0.3034
@<TRIPOS>BOND
     1    1    6 ar
     2    1    2 ar
     3    1   13 1
     4    2    3 ar
     5    2   14 1
     6    3    4 ar
     7    3   15 1
     8    4    5 ar
     9    4    7 1
    10    5    6 ar
    11    5   16 1
    12    6   17 1
    13    7    8 1
    14    7    9 1
    15    7   12 1
    16    9   10 1
    17    9   18 1
    18    9   19 1
    19   10   11 1
    20   10   23 1
    21   11   20 1
    22   11   21 1
    23   12   22 1
@<TRIPOS>MOLECULE
ZINC00453687
   40    42     0     0     0
SMALL
USER_CHARGES
3,4-dimethyl-7-(p-tolylmethoxy)chromen-2-one
@<TRIPOS>ATOM
      1 C1         -5.6103    5.6646   12.2445 C.3       1 <0>        -0.1199
      2 C2         -4.6895    5.1882   11.1508 C.ar      1 <0>        -0.0712
      3 C3         -4.4488    3.8366   10.9899 C.ar      1 <0>        -0.1243
      4 C4         -3.6042    3.3996    9.9866 C.ar      1 <0>        -0.0887
      5 C5         -3.0010    4.3142    9.1437 C.ar      1 <0>        -0.1093
      6 C6         -3.2380    5.6662    9.3076 C.ar      1 <0>        -0.0887
      7 C7         -4.0860    6.1029   10.3082 C.ar      1 <0>        -0.1243
      8 C8         -2.0802    3.8378    8.0500 C.3       1 <0>         0.1014
      9 O1         -2.8362    3.6003    6.8608 O.3       1 <0>        -0.2983
     10 C9         -2.1522    3.1634    5.7727 C.ar      1 <0>         0.1882
     11 C10        -0.7745    2.9687    5.8546 C.ar      1 <0>        -0.2265
     12 C11        -0.0728    2.5299    4.7697 C.ar      1 <0>        -0.0148
     13 C12        -0.7406    2.2737    3.5666 C.ar      1 <0>        -0.1872
     14 C13        -0.0134    1.8021    2.3863 C.2       1 <0>         0.0304
     15 C14        -0.7181    1.5718    1.2479 C.2       1 <0>        -0.2322
     16 C15        -2.1103    1.7942    1.2278 C.2       1 <0>         0.5159
     17 O2         -2.7292    1.5890    0.1991 O.2       1 <0>        -0.4593
     18 O3         -2.7718    2.2213    2.3149 O.3       1 <0>        -0.2692
     19 C16        -2.1314    2.4688    3.4775 C.ar      1 <0>         0.1870
     20 C17        -2.8290    2.9152    4.5899 C.ar      1 <0>        -0.1746
     21 C18        -0.0127    1.0858    0.0080 C.3       1 <0>        -0.0959
     22 C19         1.4762    1.5790    2.4329 C.3       1 <0>        -0.1289
     23 H1         -5.0339    5.8451   13.1519 H         1 <0>         0.0739
     24 H2         -6.0966    6.5891   11.9331 H         1 <0>         0.0689
     25 H3         -6.3665    4.9043   12.4397 H         1 <0>         0.0689
     26 H4         -4.9203    3.1219   11.6482 H         1 <0>         0.1263
     27 H5         -3.4158    2.3436    9.8612 H         1 <0>         0.1251
     28 H6         -2.7633    6.3810    8.6519 H         1 <0>         0.1252
     29 H7         -4.2744    7.1589   10.4337 H         1 <0>         0.1263
     30 H8         -1.5934    2.9137    8.3617 H         1 <0>         0.0771
     31 H9         -1.3245    4.5985    7.8542 H         1 <0>         0.0770
     32 H10        -0.2591    3.1663    6.7829 H         1 <0>         0.1414
     33 H11         0.9946    2.3808    4.8392 H         1 <0>         0.1439
     34 H12        -3.8966    3.0685    4.5343 H         1 <0>         0.1525
     35 H13         0.0021   -0.0041    0.0020 H         1 <0>         0.0749
     36 H14         1.0099    1.4631    0.0003 H         1 <0>         0.0742
     37 H15        -0.5399    1.4469   -0.8751 H         1 <0>         0.0780
     38 H16         1.9903    2.4980    2.1515 H         1 <0>         0.0910
     39 H17         1.7694    1.2935    3.4432 H         1 <0>         0.0801
     40 H18         1.7465    0.7840    1.7379 H         1 <0>         0.0858
@<TRIPOS>BOND
     1    1    2 1
     2    1   23 1
     3    1   24 1
     4    1   25 1
     5    2    7 ar
     6    2    3 ar
     7    3    4 ar
     8    3   26 1
     9    4    5 ar
    10    4   27 1
    11    5    6 ar
    12    5    8 1
    13    6    7 ar
    14    6   28 1
    15    7   29 1
    16    8    9 1
    17    8   30 1
    18    8   31 1
    19    9   10 1
    20   10   20 ar
    21   10   11 ar
    22   11   12 ar
    23   11   32 1
    24   12   13 ar
    25   12   33 1
    26   13   19 ar
    27   13   14 1
    28   14   15 2
    29   14   22 1
    30   15   16 1
    31   15   21 1
    32   16   17 2
    33   16   18 1
    34   18   19 1
    35   19   20 ar
    36   20   34 1
    37   21   35 1
    38   21   36 1
    39   21   37 1
    40   22   38 1
    41   22   39 1
    42   22   40 1
@<TRIPOS>MOLECULE
ZINC00005661
   41    43     0     0     0
SMALL
USER_CHARGES
7-[(5-isopropyl-1,3,4-thiadiazol-2-yl)methoxy]-3,4-dimethyl-chromen-2-one
@<TRIPOS>ATOM
      1 C1          1.4763    1.5789    2.4328 C.3       1 <0>        -0.1291
      2 C2         -0.0134    1.8021    2.3862 C.2       1 <0>         0.0284
      3 C3         -0.7181    1.5718    1.2479 C.2       1 <0>        -0.2287
      4 C4         -2.1103    1.7942    1.2278 C.2       1 <0>         0.5159
      5 O1         -2.7291    1.5889    0.1990 O.2       1 <0>        -0.4574
      6 O2         -2.7719    2.2213    2.3147 O.3       1 <0>        -0.2687
      7 C5         -2.1317    2.4688    3.4775 C.ar      1 <0>         0.1874
      8 C6         -0.7405    2.2736    3.5666 C.ar      1 <0>        -0.1822
      9 C7         -0.0729    2.5298    4.7694 C.ar      1 <0>        -0.0135
     10 C8         -0.7750    2.9682    5.8547 C.ar      1 <0>        -0.2253
     11 C9         -2.1522    3.1633    5.7726 C.ar      1 <0>         0.1869
     12 C10        -2.8291    2.9150    4.5894 C.ar      1 <0>        -0.1684
     13 O3         -2.8362    3.6006    6.8605 O.3       1 <0>        -0.2989
     14 C11        -2.0803    3.8381    8.0498 C.3       1 <0>         0.1590
     15 C12        -3.0011    4.3149    9.1434 C.2       1 <0>         0.0019
     16 N1         -3.6662    3.6192   10.0410 N.2       1 <0>        -0.2461
     17 N2         -4.3985    4.2002   10.8909 N.2       1 <0>        -0.2769
     18 C13        -4.5093    5.5117   10.8939 C.2       1 <0>         0.0530
     19 S1         -3.4683    5.9338    9.5681 S.3       1 <0>         0.0978
     20 C14        -5.3141    6.4042   11.8031 C.3       1 <0>        -0.0026
     21 C15        -6.7973    6.0469   11.6861 C.3       1 <0>        -0.1445
     22 C16        -4.8545    6.2067   13.2490 C.3       1 <0>        -0.1441
     23 C17        -0.0127    1.0858    0.0080 C.3       1 <0>        -0.0967
     24 H1          1.9904    2.4979    2.1513 H         1 <0>         0.0914
     25 H2          1.7695    1.2934    3.4431 H         1 <0>         0.0806
     26 H3          1.7465    0.7839    1.7378 H         1 <0>         0.0862
     27 H4          0.9944    2.3803    4.8390 H         1 <0>         0.1462
     28 H5         -0.2596    3.1659    6.7830 H         1 <0>         0.1431
     29 H6         -3.8968    3.0683    4.5337 H         1 <0>         0.1539
     30 H7         -1.5938    2.9139    8.3617 H         1 <0>         0.1094
     31 H8         -1.3243    4.5985    7.8540 H         1 <0>         0.1008
     32 H9         -5.1672    7.4448   11.5140 H         1 <0>         0.1014
     33 H10        -6.9442    5.0063   11.9753 H         1 <0>         0.0701
     34 H11        -7.3794    6.6925   12.3438 H         1 <0>         0.0759
     35 H12        -7.1247    6.1876   10.6561 H         1 <0>         0.0598
     36 H13        -5.4367    6.8523   13.9067 H         1 <0>         0.0758
     37 H14        -5.0015    5.1661   13.5381 H         1 <0>         0.0701
     38 H15        -3.7979    6.4612   13.3324 H         1 <0>         0.0593
     39 H16         0.0021   -0.0041    0.0020 H         1 <0>         0.0757
     40 H17         1.0099    1.4631    0.0003 H         1 <0>         0.0748
     41 H18        -0.5399    1.4469   -0.8751 H         1 <0>         0.0784
@<TRIPOS>BOND
     1    1    2 1
     2    1   24 1
     3    1   25 1
     4    1   26 1
     5    2    8 1
     6    2    3 2
     7    3    4 1
     8    3   23 1
     9    4    5 2
    10    4    6 1
    11    6    7 1
    12    7   12 ar
    13    7    8 ar
    14    8    9 ar
    15    9   10 ar
    16    9   27 1
    17   10   11 ar
    18   10   28 1
    19   11   12 ar
    20   11   13 1
    21   12   29 1
    22   13   14 1
    23   14   15 1
    24   14   30 1
    25   14   31 1
    26   15   19 1
    27   15   16 2
    28   16   17 1
    29   17   18 2
    30   18   19 1
    31   18   20 1
    32   20   21 1
    33   20   22 1
    34   20   32 1
    35   21   33 1
    36   21   34 1
    37   21   35 1
    38   22   36 1
    39   22   37 1
    40   22   38 1
    41   23   39 1
    42   23   40 1
    43   23   41 1
@<TRIPOS>MOLECULE
ZINC25965531
   28    30     0     0     0
SMALL
USER_CHARGES
9-methyl-1,2,3,4-tetrahydropyrido[3,4-b]indole
@<TRIPOS>ATOM
      1 C1          4.9703    1.4242    0.4395 C.3       1 <0>         0.0724
      2 N1          3.6249    1.9497    0.1944 N.pl3     1 <0>        -0.4739
      3 C2          3.3371    3.2351   -0.1667 C.ar      1 <0>         0.0981
      4 C3          4.1487    4.3443   -0.3948 C.ar      1 <0>        -0.1318
      5 C4          3.5157    5.5214   -0.7544 C.ar      1 <0>        -0.1004
      6 C5          2.1395    5.6099   -0.8866 C.ar      1 <0>        -0.1509
      7 C6          1.3151    4.5340   -0.6687 C.ar      1 <0>        -0.0662
      8 C7          1.9276    3.3309   -0.3039 C.ar      1 <0>        -0.1017
      9 C8          1.4090    2.0159   -0.0006 C.2       1 <0>        -0.1592
     10 C9          2.4675    1.2264    0.2924 C.2       1 <0>         0.0610
     11 C10         2.3290   -0.2306    0.6655 C.3       1 <0>         0.1160
     12 N2          0.9279   -0.4863    1.0366 N.3       1 <0>        -0.6646
     13 C11         0.0021   -0.0041    0.0020 C.3       1 <0>         0.0461
     14 C12        -0.0187    1.5306    0.0105 C.3       1 <0>        -0.0426
     15 H1          5.7097    2.2244    0.2880 H         1 <0>         0.0879
     16 H2          5.1745    0.5992   -0.2589 H         1 <0>         0.0746
     17 H3          5.0368    1.0544    1.4733 H         1 <0>         0.0762
     18 H4          5.2226    4.2885   -0.2946 H         1 <0>         0.1251
     19 H5          4.1150    6.4008   -0.9386 H         1 <0>         0.1207
     20 H6          1.7013    6.5553   -1.1704 H         1 <0>         0.1182
     21 H7          0.2431    4.6131   -0.7738 H         1 <0>         0.1284
     22 H8          2.6103   -0.8574   -0.1936 H         1 <0>         0.0506
     23 H9          2.9897   -0.4558    1.5156 H         1 <0>         0.0900
     24 H10         0.7743   -1.5679    1.1655 H         1 <0>         0.3518
     25 H11         0.3355   -0.3612   -0.9836 H         1 <0>         0.0365
     26 H12        -1.0088   -0.3860    0.2077 H         1 <0>         0.0847
     27 H13        -0.5240    1.8987    0.9156 H         1 <0>         0.0782
     28 H14        -0.5414    1.9084   -0.8806 H         1 <0>         0.0750
@<TRIPOS>BOND
     1    1    2 1
     2    1   15 1
     3    1   16 1
     4    1   17 1
     5    2   10 1
     6    2    3 1
     7    3    8 ar
     8    3    4 ar
     9    4    5 ar
    10    4   18 1
    11    5    6 ar
    12    5   19 1
    13    6    7 ar
    14    6   20 1
    15    7    8 ar
    16    7   21 1
    17    8    9 1
    18    9   14 1
    19    9   10 2
    20   10   11 1
    21   11   12 1
    22   11   22 1
    23   11   23 1
    24   12   13 1
    25   12   24 1
    26   13   14 1
    27   13   25 1
    28   13   26 1
    29   14   27 1
    30   14   28 1
@<TRIPOS>MOLECULE
ZINC25965531
   29    31     0     0     0
SMALL
USER_CHARGES
9-methyl-1,2,3,4-tetrahydropyrido[3,4-b]indole
@<TRIPOS>ATOM
      1 C1          4.9703    1.4242    0.4395 C.3       1 <0>         0.0614
      2 N1          3.6249    1.9497    0.1944 N.pl3     1 <0>        -0.4575
      3 C2          3.3371    3.2351   -0.1667 C.ar      1 <0>         0.1090
      4 C3          4.1487    4.3443   -0.3948 C.ar      1 <0>        -0.1287
      5 C4          3.5157    5.5214   -0.7544 C.ar      1 <0>        -0.0814
      6 C5          2.1395    5.6099   -0.8866 C.ar      1 <0>        -0.1364
      7 C6          1.3151    4.5340   -0.6687 C.ar      1 <0>        -0.0649
      8 C7          1.9276    3.3309   -0.3039 C.ar      1 <0>        -0.1032
      9 C8          1.4090    2.0159   -0.0006 C.2       1 <0>        -0.1610
     10 C9          2.4675    1.2264    0.2924 C.2       1 <0>         0.0065
     11 C10         2.3290   -0.2306    0.6655 C.3       1 <0>         0.0793
     12 N2          0.9279   -0.4863    1.0366 N.4       1 <0>        -0.5295
     13 C11         0.0021   -0.0041    0.0020 C.3       1 <0>        -0.0014
     14 C12        -0.0187    1.5306    0.0105 C.3       1 <0>        -0.0729
     15 H1          5.7097    2.2244    0.2880 H         1 <0>         0.0988
     16 H2          5.1745    0.5992   -0.2589 H         1 <0>         0.0827
     17 H3          5.0368    1.0544    1.4733 H         1 <0>         0.0820
     18 H4          5.2226    4.2885   -0.2946 H         1 <0>         0.1336
     19 H5          4.1150    6.4008   -0.9386 H         1 <0>         0.1313
     20 H6          1.7013    6.5553   -1.1704 H         1 <0>         0.1282
     21 H7          0.2431    4.6131   -0.7738 H         1 <0>         0.1346
     22 H8          2.6103   -0.8574   -0.1936 H         1 <0>         0.1415
     23 H9          2.9897   -0.4558    1.5156 H         1 <0>         0.1405
     24 H10         0.7743   -1.5679    1.1655 H         1 <0>         0.4621
     25 H11         0.3355   -0.3612   -0.9836 H         1 <0>         0.1293
     26 H12        -1.0088   -0.3860    0.2077 H         1 <0>         0.1414
     27 H13        -0.5240    1.8987    0.9156 H         1 <0>         0.1000
     28 H14        -0.5414    1.9084   -0.8806 H         1 <0>         0.1184
     29 H15         0.6979    0.0316    1.9794 H         1 <0>         0.4562
@<TRIPOS>BOND
     1    1    2 1
     2    1   15 1
     3    1   16 1
     4    1   17 1
     5    2   10 1
     6    2    3 1
     7    3    8 ar
     8    3    4 ar
     9    4    5 ar
    10    4   18 1
    11    5    6 ar
    12    5   19 1
    13    6    7 ar
    14    6   20 1
    15    7    8 ar
    16    7   21 1
    17    8    9 1
    18    9   14 1
    19    9   10 2
    20   10   11 1
    21   11   12 1
    22   11   22 1
    23   11   23 1
    24   12   13 1
    25   12   24 1
    26   12   29 1
    27   13   14 1
    28   13   25 1
    29   13   26 1
    30   14   27 1
    31   14   28 1
@<TRIPOS>MOLECULE
ZINC19202437
   29    31     0     0     0
SMALL
USER_CHARGES

@<TRIPOS>ATOM
      1 C1         -0.0173    1.4248    0.0099 C.3       1 <0>         0.0283
      2 O1          0.0021   -0.0041    0.0020 O.3       1 <0>        -0.3192
      3 C2          0.6262   -0.6188    1.0422 C.ar      1 <0>         0.1012
      4 C3          1.2036    0.1450    2.0536 C.ar      1 <0>        -0.1788
      5 C4          1.8395   -0.4620    3.1130 C.ar      1 <0>        -0.0886
      6 C5          1.9106   -1.8490    3.1812 C.ar      1 <0>         0.0665
      7 C6          1.3276   -2.6252    2.1607 C.ar      1 <0>        -0.0573
      8 C7          0.6799   -1.9967    1.0938 C.ar      1 <0>        -0.1118
      9 C8          1.5756   -4.0133    2.5270 C.2       1 <0>        -0.1649
     10 C9          2.2593   -4.0096    3.6898 C.2       1 <0>         0.0807
     11 N1          2.4674   -2.7234    4.0932 N.pl3     1 <0>        -0.5858
     12 H1          2.9373   -2.4619    4.9005 H         1 <0>         0.4140
     13 C10         2.6970   -5.2756    4.3896 C.3       1 <0>         0.1236
     14 N2          1.9291   -6.4023    3.8352 N.3       1 <0>        -0.6853
     15 C11         1.9988   -6.4311    2.3675 C.3       1 <0>         0.0561
     16 C12         1.1765   -5.2684    1.7938 C.3       1 <0>        -0.0423
     17 H2          1.0053    1.8021    0.0021 H         1 <0>         0.0537
     18 H3         -0.5445    1.7859   -0.8732 H         1 <0>         0.0991
     19 H4         -0.5275    1.7763    0.9067 H         1 <0>         0.0539
     20 H5          1.1523    1.2227    2.0062 H         1 <0>         0.1321
     21 H6          2.2840    0.1398    3.8919 H         1 <0>         0.1237
     22 H7          0.2270   -2.5868    0.3109 H         1 <0>         0.1303
     23 H8          3.7615   -5.4387    4.2213 H         1 <0>         0.0527
     24 H9          2.5029   -5.1899    5.4588 H         1 <0>         0.0913
     25 H10         2.2373   -7.2786    4.2291 H         1 <0>         0.3535
     26 H11         3.0372   -6.3327    2.0509 H         1 <0>         0.0369
     27 H12         1.5956   -7.3760    2.0030 H         1 <0>         0.0826
     28 H13         0.1137   -5.4600    1.9420 H         1 <0>         0.0784
     29 H14         1.3872   -5.1570    0.7302 H         1 <0>         0.0754
@<TRIPOS>BOND
     1    1    2 1
     2    1   17 1
     3    1   18 1
     4    1   19 1
     5    2    3 1
     6    3    8 ar
     7    3    4 ar
     8    4    5 ar
     9    4   20 1
    10    5    6 ar
    11    5   21 1
    12    6   11 1
    13    6    7 ar
    14    7    8 ar
    15    7    9 1
    16    8   22 1
    17    9   16 1
    18    9   10 2
    19   10   11 1
    20   10   13 1
    21   11   12 1
    22   13   14 1
    23   13   23 1
    24   13   24 1
    25   14   15 1
    26   14   25 1
    27   15   16 1
    28   15   26 1
    29   15   27 1
    30   16   28 1
    31   16   29 1
@<TRIPOS>MOLECULE
ZINC00332024
   23    25     0     0     0
SMALL
USER_CHARGES
4,9-dihydro-3H-pyrido[3,4-b]indole
@<TRIPOS>ATOM
      1 C1          1.1636    3.1702    0.0082 C.ar      1 <0>        -0.1416
      2 C2          1.1700    1.7811    0.0005 C.ar      1 <0>        -0.0941
      3 C3         -0.0126    1.0758    0.0080 C.ar      1 <0>        -0.1270
      4 C4         -1.2259    1.7554    0.0174 C.ar      1 <0>         0.0972
      5 C5         -1.2319    3.1678    0.0284 C.ar      1 <0>        -0.0927
      6 C6         -0.0129    3.8599    0.0221 C.ar      1 <0>        -0.0705
      7 C7         -2.5784    3.5636    0.0391 C.2       1 <0>        -0.1411
      8 C8         -3.3527    2.4306    0.0446 C.2       1 <0>         0.0263
      9 N1         -2.5396    1.3318    0.0340 N.pl3     1 <0>        -0.5615
     10 H1         -2.8363    0.4083    0.0344 H         1 <0>         0.4213
     11 C9         -4.8199    2.5408    0.0625 C.2       1 <0>         0.2111
     12 N2         -5.3388    3.6877   -0.2578 N.2       1 <0>        -0.5050
     13 C10        -4.5585    4.8455   -0.6683 C.3       1 <0>         0.0386
     14 C11        -3.2056    4.9332    0.0409 C.3       1 <0>        -0.0755
     15 H2          2.0994    3.7093    0.0028 H         1 <0>         0.1248
     16 H3          2.1103    1.2499   -0.0119 H         1 <0>         0.1283
     17 H4          0.0021   -0.0041    0.0020 H         1 <0>         0.1226
     18 H5         -0.0053    4.9399    0.0278 H         1 <0>         0.1225
     19 H6         -5.4419    1.7000    0.3320 H         1 <0>         0.1713
     20 H7         -4.3885    4.7911   -1.7436 H         1 <0>         0.0823
     21 H8         -5.1278    5.7486   -0.4485 H         1 <0>         0.0982
     22 H9         -3.3506    5.2692    1.0676 H         1 <0>         0.0776
     23 H10        -2.5589    5.6338   -0.4873 H         1 <0>         0.0870
@<TRIPOS>BOND
     1    1    6 ar
     2    1    2 ar
     3    1   15 1
     4    2    3 ar
     5    2   16 1
     6    3    4 ar
     7    3   17 1
     8    4    9 1
     9    4    5 ar
    10    5    6 ar
    11    5    7 1
    12    6   18 1
    13    7   14 1
    14    7    8 2
    15    8    9 1
    16    8   11 1
    17    9   10 1
    18   11   12 2
    19   11   19 1
    20   12   13 1
    21   13   14 1
    22   13   20 1
    23   13   21 1
    24   14   22 1
    25   14   23 1
@<TRIPOS>MOLECULE
ZINC05393942
   30    32     0     0     0
SMALL
USER_CHARGES
8-methoxy-1,2,3,4-tetrahydropyrazino[1,2-a]indole
@<TRIPOS>ATOM
      1 C1         -4.0219    3.8769   -6.8373 C.3       1 <0>         0.0239
      2 O1         -2.7768    3.3104   -6.4240 O.3       1 <0>        -0.3153
      3 C2         -2.6378    3.0230   -5.1020 C.ar      1 <0>         0.1094
      4 C3         -3.6926    3.2900   -4.2375 C.ar      1 <0>        -0.1610
      5 C4         -3.6215    3.0238   -2.8820 C.ar      1 <0>        -0.0956
      6 C5         -2.4356    2.4687   -2.4044 C.ar      1 <0>         0.0889
      7 C6         -1.3586    2.1960   -3.2847 C.ar      1 <0>        -0.0826
      8 C7         -1.4468    2.4716   -4.6527 C.ar      1 <0>        -0.0949
      9 C8         -0.2975    1.6320   -2.4671 C.2       1 <0>        -0.1236
     10 C9         -0.7559    1.5925   -1.2065 C.2       1 <0>        -0.0105
     11 N1         -2.0413    2.0924   -1.1539 N.pl3     1 <0>        -0.4973
     12 C10        -2.8153    2.1767    0.0942 C.3       1 <0>         0.0911
     13 C11        -2.1520    1.2694    1.1360 C.3       1 <0>        -0.0111
     14 C12        -0.0127    1.0858    0.0080 C.3       1 <0>         0.0838
     15 H1         -4.0001    4.0570   -7.9121 H         1 <0>         0.1062
     16 H2         -4.8315    3.1864   -6.6010 H         1 <0>         0.0576
     17 H3         -4.1838    4.8193   -6.3141 H         1 <0>         0.0575
     18 H4         -4.5987    3.7204   -4.6377 H         1 <0>         0.1376
     19 H5         -4.4496    3.2366   -2.2222 H         1 <0>         0.1349
     20 H6         -0.6279    2.2657   -5.3262 H         1 <0>         0.1475
     21 H7          0.6741    1.3070   -2.8087 H         1 <0>         0.1619
     22 H8         -2.8211    3.2057    0.4539 H         1 <0>         0.1036
     23 H9         -3.8378    1.8441   -0.0847 H         1 <0>         0.1266
     24 H10        -2.6086    1.4422    2.1106 H         1 <0>         0.1545
     25 H11        -2.2921    0.2268    0.8505 H         1 <0>         0.1412
     26 H12         0.0021   -0.0041    0.0020 H         1 <0>         0.1476
     27 H13         1.0082    1.4675    0.0003 H         1 <0>         0.1539
     28 N2         -0.7093    1.5718    1.2186 N.4       1 <0>        -0.5201
     29 H14        -0.3133    1.1100    2.0456 H         1 <0>         0.4458
     30 H15        -0.5802    2.5873    1.2989 H         1 <0>         0.4384
@<TRIPOS>BOND
     1    1    2 1
     2    1   15 1
     3    1   16 1
     4    1   17 1
     5    2    3 1
     6    3    8 ar
     7    3    4 ar
     8    4    5 ar
     9    4   18 1
    10    5    6 ar
    11    5   19 1
    12    6   11 1
    13    6    7 ar
    14    7    8 ar
    15    7    9 1
    16    8   20 1
    17    9   10 2
    18    9   21 1
    19   10   14 1
    20   10   11 1
    21   11   12 1
    22   12   13 1
    23   12   22 1
    24   12   23 1
    25   13   24 1
    26   13   25 1
    27   13   28 1
    28   14   26 1
    29   14   27 1
    30   14   28 1
    31   28   29 1
    32   28   30 1
@<TRIPOS>MOLECULE
ZINC19228212
   25    27     0     0     0
SMALL
USER_CHARGES

@<TRIPOS>ATOM
      1 C1         -0.0164    1.3616    0.0095 C.ar      1 <0>        -0.1434
      2 C2          1.1695    2.0834    0.0021 C.ar      1 <0>        -0.0996
      3 C3          2.3849    1.4355   -0.0133 C.ar      1 <0>        -0.1290
      4 C4          2.4283    0.0454   -0.0215 C.ar      1 <0>         0.0926
      5 C5          1.2226   -0.6833   -0.0136 C.ar      1 <0>        -0.0925
      6 C6          0.0021   -0.0041    0.0020 C.ar      1 <0>        -0.0725
      7 C7          1.6081   -2.0889   -0.0255 C.2       1 <0>        -0.2105
      8 C8          2.9559   -2.1363   -0.0386 C.2       1 <0>         0.0756
      9 N1          3.4598   -0.8692   -0.0373 N.pl3     1 <0>        -0.5863
     10 H1          4.4035   -0.6448   -0.0462 H         1 <0>         0.4138
     11 C9          3.7278   -3.4364   -0.0498 C.3       1 <0>        -0.0960
     12 C10         2.7672   -4.5603    0.3602 C.3       1 <0>         0.0628
     13 N2          1.5326   -4.4689   -0.4317 N.3       1 <0>        -0.6828
     14 C11         0.7223   -3.3075   -0.0264 C.3       1 <0>         0.1310
     15 H2         -0.9614    1.8843    0.0259 H         1 <0>         0.1237
     16 H3          1.1387    3.1629    0.0080 H         1 <0>         0.1262
     17 H4          3.3021    2.0057   -0.0192 H         1 <0>         0.1192
     18 H5         -0.9252   -0.5578    0.0078 H         1 <0>         0.1223
     19 H6          4.1129   -3.6278   -1.0514 H         1 <0>         0.0835
     20 H7          4.5540   -3.3807    0.6590 H         1 <0>         0.0839
     21 H8          3.2414   -5.5256    0.1827 H         1 <0>         0.0882
     22 H9          2.5271   -4.4640    1.4190 H         1 <0>         0.0788
     23 H10         1.7377   -4.4397   -1.4192 H         1 <0>         0.3445
     24 H11         0.3212   -3.4708    0.9739 H         1 <0>         0.0829
     25 H12        -0.0961   -3.1662   -0.7322 H         1 <0>         0.0835
@<TRIPOS>BOND
     1    1    6 ar
     2    1    2 ar
     3    1   15 1
     4    2    3 ar
     5    2   16 1
     6    3    4 ar
     7    3   17 1
     8    4    9 1
     9    4    5 ar
    10    5    6 ar
    11    5    7 1
    12    6   18 1
    13    7   14 1
    14    7    8 2
    15    8    9 1
    16    8   11 1
    17    9   10 1
    18   11   12 1
    19   11   19 1
    20   11   20 1
    21   12   13 1
    22   12   21 1
    23   12   22 1
    24   13   14 1
    25   13   23 1
    26   14   24 1
    27   14   25 1
@<TRIPOS>MOLECULE
ZINC19418965
   25    27     0     0     0
SMALL
USER_CHARGES

@<TRIPOS>ATOM
      1 C1         -0.0164    1.3616    0.0095 C.ar      1 <0>        -0.1454
      2 C2          1.1695    2.0833    0.0021 C.ar      1 <0>        -0.0997
      3 C3          2.3848    1.4354   -0.0136 C.ar      1 <0>        -0.1295
      4 C4          2.4283    0.0454   -0.0218 C.ar      1 <0>         0.0961
      5 C5          1.2225   -0.6835   -0.0137 C.ar      1 <0>        -0.0978
      6 C6          0.0021   -0.0041    0.0020 C.ar      1 <0>        -0.0713
      7 C7          1.6088   -2.0882   -0.0263 C.2       1 <0>        -0.1591
      8 C8          2.9566   -2.1372   -0.0397 C.2       1 <0>         0.0694
      9 N1          3.4598   -0.8692   -0.0378 N.pl3     1 <0>        -0.5861
     10 H1          4.4034   -0.6444   -0.0464 H         1 <0>         0.4138
     11 C9          3.7316   -3.4345   -0.0523 C.3       1 <0>         0.1245
     12 N2          2.8254   -4.5211    0.3537 N.3       1 <0>        -0.6853
     13 C10         1.5870   -4.5132   -0.4375 C.3       1 <0>         0.0560
     14 C11         0.7260   -3.3100   -0.0273 C.3       1 <0>        -0.0425
     15 H2         -0.9614    1.8843    0.0259 H         1 <0>         0.1229
     16 H3          1.1388    3.1629    0.0083 H         1 <0>         0.1256
     17 H4          3.3020    2.0056   -0.0198 H         1 <0>         0.1194
     18 H5         -0.9252   -0.5577    0.0086 H         1 <0>         0.1211
     19 H6          4.1088   -3.6271   -1.0567 H         1 <0>         0.0518
     20 H7          4.5651   -3.3710    0.6473 H         1 <0>         0.0906
     21 H8          3.2861   -5.4169    0.2954 H         1 <0>         0.3535
     22 H9          1.8330   -4.4399   -1.4969 H         1 <0>         0.0367
     23 H10         1.0338   -5.4347   -0.2558 H         1 <0>         0.0824
     24 H11         0.3182   -3.4712    0.9706 H         1 <0>         0.0782
     25 H12        -0.0865   -3.1773   -0.7416 H         1 <0>         0.0748
@<TRIPOS>BOND
     1    1    6 ar
     2    1    2 ar
     3    1   15 1
     4    2    3 ar
     5    2   16 1
     6    3    4 ar
     7    3   17 1
     8    4    9 1
     9    4    5 ar
    10    5    6 ar
    11    5    7 1
    12    6   18 1
    13    7   14 1
    14    7    8 2
    15    8    9 1
    16    8   11 1
    17    9   10 1
    18   11   12 1
    19   11   19 1
    20   11   20 1
    21   12   13 1
    22   12   21 1
    23   13   14 1
    24   13   22 1
    25   13   23 1
    26   14   24 1
    27   14   25 1
@<TRIPOS>MOLECULE
ZINC11919626
   27    29     0     0     0
SMALL
USER_CHARGES
8-methoxy-4,9-dihydro-3H-pyrido[3,4-b]indole
@<TRIPOS>ATOM
      1 C1         -1.6812    7.1992    0.0466 C.3       1 <0>         0.0296
      2 O1         -0.7664    6.1014    0.0344 O.3       1 <0>        -0.3198
      3 C2         -1.3019    4.8516    0.0345 C.ar      1 <0>         0.1218
      4 C3         -2.6756    4.6505    0.0369 C.ar      1 <0>        -0.1940
      5 C4         -3.2335    3.3823    0.0353 C.ar      1 <0>        -0.1046
      6 C5         -2.4674    2.2456    0.0267 C.ar      1 <0>        -0.1044
      7 C6         -1.0725    2.4120    0.0196 C.ar      1 <0>        -0.0589
      8 C7         -0.4949    3.7111    0.0231 C.ar      1 <0>         0.0771
      9 N1          0.8659    3.5617    0.0098 N.pl3     1 <0>        -0.5451
     10 H1          1.5155    4.2821    0.0062 H         1 <0>         0.4254
     11 C8          1.1549    2.2223    0.0030 C.2       1 <0>         0.0272
     12 C9         -0.0184    1.5030    0.0103 C.2       1 <0>        -0.1454
     13 C10         0.0021   -0.0041    0.0020 C.3       1 <0>        -0.0727
     14 C11         1.2587   -0.4672   -0.7372 C.3       1 <0>         0.0380
     15 N2          2.4509    0.2677   -0.3413 N.2       1 <0>        -0.5033
     16 C12         2.4488    1.5233   -0.0090 C.2       1 <0>         0.2107
     17 H2         -2.3006    7.1460    0.9419 H         1 <0>         0.0580
     18 H3         -1.1243    8.1362    0.0452 H         1 <0>         0.1017
     19 H4         -2.3163    7.1527   -0.8380 H         1 <0>         0.0579
     20 H5         -3.3299    5.5097    0.0437 H         1 <0>         0.1276
     21 H6         -4.3092    3.2860    0.0408 H         1 <0>         0.1228
     22 H7         -2.9172    1.2637    0.0256 H         1 <0>         0.1322
     23 H8          0.0217   -0.3758    1.0265 H         1 <0>         0.0779
     24 H9         -0.8855   -0.3797   -0.5070 H         1 <0>         0.0878
     25 H10         1.4154   -1.5266   -0.5341 H         1 <0>         0.0985
     26 H11         1.1054   -0.3343   -1.8081 H         1 <0>         0.0824
     27 H12         3.3640    2.0354    0.2489 H         1 <0>         0.1712
@<TRIPOS>BOND
     1    1    2 1
     2    1   17 1
     3    1   18 1
     4    1   19 1
     5    2    3 1
     6    3    8 ar
     7    3    4 ar
     8    4    5 ar
     9    4   20 1
    10    5    6 ar
    11    5   21 1
    12    6    7 ar
    13    6   22 1
    14    7   12 1
    15    7    8 ar
    16    8    9 1
    17    9   10 1
    18    9   11 1
    19   11   16 1
    20   11   12 2
    21   12   13 1
    22   13   14 1
    23   13   23 1
    24   13   24 1
    25   14   15 1
    26   14   25 1
    27   14   26 1
    28   15   16 2
    29   16   27 1
@<TRIPOS>MOLECULE
ZINC18847046
   29    31     0     0     0
SMALL
USER_CHARGES

@<TRIPOS>ATOM
      1 C1         -0.0184    1.5028    0.0103 C.3       1 <0>        -0.1424
      2 C2          0.0021   -0.0041    0.0020 C.ar      1 <0>         0.1556
      3 C3          0.0057   -0.6865   -1.2084 C.ar      1 <0>         0.1146
      4 C4          0.0254   -2.0919   -1.1857 C.ar      1 <0>         0.0189
      5 C5          0.0408   -2.7431    0.0474 C.ar      1 <0>        -0.0789
      6 C6          0.0361   -1.9836    1.1979 C.ar      1 <0>         0.0838
      7 N1          0.0219   -0.6634    1.1422 N.ar      1 <0>        -0.4304
      8 C7          0.0239   -2.5347   -2.5884 C.ar      1 <0>        -0.1673
      9 C8          0.0375   -3.7874   -3.2002 C.ar      1 <0>         0.0049
     10 C9          0.0309   -3.8808   -4.5734 C.ar      1 <0>        -0.2172
     11 C10         0.0111   -2.7283   -5.3537 C.ar      1 <0>         0.2058
     12 C11        -0.0026   -1.4801   -4.7588 C.ar      1 <0>        -0.1848
     13 C12         0.0034   -1.3698   -3.3723 C.ar      1 <0>         0.2065
     14 N2         -0.0072   -0.2742   -2.5278 N.pl3     1 <0>        -0.5835
     15 H1         -0.0219    0.6508   -2.8196 H         1 <0>         0.4355
     16 O1          0.0057   -2.8305   -6.7086 O.3       1 <0>        -0.3026
     17 C13         0.0210   -4.1488   -7.2598 C.3       1 <0>         0.0197
     18 H2          1.0042    1.8801    0.0026 H         1 <0>         0.1154
     19 H3         -0.5455    1.8639   -0.8728 H         1 <0>         0.1057
     20 H4         -0.5286    1.8543    0.9071 H         1 <0>         0.1048
     21 H5          0.0557   -3.8217    0.1000 H         1 <0>         0.1843
     22 H6          0.0478   -2.4751    2.1595 H         1 <0>         0.2108
     23 H7          0.0536   -4.6834   -2.5974 H         1 <0>         0.1456
     24 H8          0.0415   -4.8513   -5.0470 H         1 <0>         0.1504
     25 H9         -0.0176   -0.5905   -5.3710 H         1 <0>         0.1490
     26 H10         0.9199   -4.6699   -6.9305 H         1 <0>         0.0657
     27 H11        -0.8598   -4.6944   -6.9214 H         1 <0>         0.0657
     28 H12         0.0146   -4.0877   -8.3481 H         1 <0>         0.1130
     29 H13         0.0229   -0.1610    1.9720 H         1 <0>         0.4514
@<TRIPOS>BOND
     1    1    2 1
     2    1   18 1
     3    1   19 1
     4    1   20 1
     5    2    7 ar
     6    2    3 ar
     7    3   14 1
     8    3    4 ar
     9    4    5 ar
    10    4    8 1
    11    5    6 ar
    12    5   21 1
    13    6    7 ar
    14    6   22 1
    15    7   29 1
    16    8   13 ar
    17    8    9 ar
    18    9   10 ar
    19    9   23 1
    20   10   11 ar
    21   10   24 1
    22   11   12 ar
    23   11   16 1
    24   12   13 ar
    25   12   25 1
    26   13   14 1
    27   14   15 1
    28   16   17 1
    29   17   26 1
    30   17   27 1
    31   17   28 1
@<TRIPOS>MOLECULE
ZINC25963555
   29    31     0     0     0
SMALL
USER_CHARGES

@<TRIPOS>ATOM
      1 C1         -0.0173    1.4248    0.0099 C.3       1 <0>         0.0296
      2 O1          0.0021   -0.0041    0.0020 O.3       1 <0>        -0.3259
      3 C2         -1.2008   -0.6377    0.0101 C.ar      1 <0>         0.1233
      4 C3         -2.3716    0.0968    0.0195 C.ar      1 <0>        -0.1996
      5 C4         -3.6041   -0.5410    0.0278 C.ar      1 <0>        -0.1035
      6 C5         -3.6812   -1.9047    0.0273 C.ar      1 <0>        -0.1097
      7 C6         -2.5118   -2.6706    0.0180 C.ar      1 <0>        -0.0600
      8 C7         -1.2578   -2.0312    0.0032 C.ar      1 <0>         0.0714
      9 N1         -0.2936   -3.0185   -0.0114 N.pl3     1 <0>        -0.5725
     10 H1          0.6637   -2.8623   -0.0202 H         1 <0>         0.4180
     11 C8         -0.8870   -4.2461   -0.0112 C.2       1 <0>         0.0471
     12 C9         -2.2278   -4.0996    0.0144 C.2       1 <0>        -0.1812
     13 C10        -3.1963   -5.2546    0.0177 C.3       1 <0>        -0.0803
     14 C11        -2.4233   -6.5197   -0.3814 C.3       1 <0>         0.0534
     15 N2         -1.1908   -6.6114    0.4138 N.3       1 <0>        -0.6744
     16 C12        -0.2077   -5.5961   -0.0205 C.3       1 <0>         0.1215
     17 H2          1.0053    1.8021    0.0021 H         1 <0>         0.1000
     18 H3         -0.5445    1.7859   -0.8732 H         1 <0>         0.0570
     19 H4         -0.5275    1.7763    0.9067 H         1 <0>         0.0570
     20 H5         -2.3270    1.1759    0.0208 H         1 <0>         0.1312
     21 H6         -4.5105    0.0462    0.0351 H         1 <0>         0.1259
     22 H7         -4.6454   -2.3912    0.0345 H         1 <0>         0.1229
     23 H8         -3.6181   -5.3794    1.0150 H         1 <0>         0.0723
     24 H9         -3.9948   -5.0684   -0.7006 H         1 <0>         0.0784
     25 H10        -3.0421   -7.3975   -0.1953 H         1 <0>         0.0854
     26 H11        -2.1697   -6.4716   -1.4404 H         1 <0>         0.0768
     27 H12        -1.3911   -6.5424    1.4004 H         1 <0>         0.3497
     28 H13         0.1546   -5.8178   -1.0243 H         1 <0>         0.0974
     29 H14         0.6281   -5.5913    0.6792 H         1 <0>         0.0889
@<TRIPOS>BOND
     1    1    2 1
     2    1   17 1
     3    1   18 1
     4    1   19 1
     5    2    3 1
     6    3    8 ar
     7    3    4 ar
     8    4    5 ar
     9    4   20 1
    10    5    6 ar
    11    5   21 1
    12    6    7 ar
    13    6   22 1
    14    7   12 1
    15    7    8 ar
    16    8    9 1
    17    9   10 1
    18    9   11 1
    19   11   16 1
    20   11   12 2
    21   12   13 1
    22   13   14 1
    23   13   23 1
    24   13   24 1
    25   14   15 1
    26   14   25 1
    27   14   26 1
    28   15   16 1
    29   15   27 1
    30   16   28 1
    31   16   29 1
@<TRIPOS>MOLECULE
ZINC13727768
   27    26     0     0     0
SMALL
USER_CHARGES
N-methyl-N-prop-2-ynyl-pentan-1-amine
@<TRIPOS>ATOM
      1 C1          4.3375    7.3401    1.2163 C.3       1 <0>        -0.1556
      2 C2          4.3075    5.8319    0.9604 C.3       1 <0>        -0.1252
      3 C3          2.8632    5.3822    0.7308 C.3       1 <0>        -0.1200
      4 C4          2.8333    3.8740    0.4749 C.3       1 <0>        -0.1179
      5 C5          1.3890    3.4243    0.2453 C.3       1 <0>         0.0529
      6 N1          1.3603    1.9762   -0.0003 N.3       1 <0>        -0.5404
      7 C6          2.0349    1.6428   -1.2619 C.3       1 <0>         0.0182
      8 C7         -0.0179    1.4678    0.0101 C.3       1 <0>         0.1602
      9 C8          0.0021   -0.0041    0.0020 C.1       1 <0>        -0.1894
     10 C9          0.0180   -1.1779   -0.0044 C.1       1 <0>        -0.2006
     11 H1          5.3759    7.6634    1.3814 H         1 <0>         0.0543
     12 H2          3.7350    7.5730    2.1067 H         1 <0>         0.0542
     13 H3          3.9232    7.8682    0.3448 H         1 <0>         0.0535
     14 H4          4.9100    5.5990    0.0700 H         1 <0>         0.0607
     15 H5          4.7218    5.3038    1.8319 H         1 <0>         0.0623
     16 H6          2.2607    5.6151    1.6212 H         1 <0>         0.0632
     17 H7          2.4489    5.9103   -0.1406 H         1 <0>         0.0607
     18 H8          3.4358    3.6412   -0.4155 H         1 <0>         0.0633
     19 H9          3.2477    3.3459    1.3464 H         1 <0>         0.0721
     20 H10         0.7865    3.6573    1.1357 H         1 <0>         0.0776
     21 H11         0.9747    3.9523   -0.6262 H         1 <0>         0.0367
     22 H12         1.9988    0.5549   -1.4206 H         1 <0>         0.0695
     23 H13         3.0835    1.9719   -1.2151 H         1 <0>         0.0743
     24 H14         1.5276    2.1519   -2.0946 H         1 <0>         0.0277
     25 H15        -0.5327    1.8226    0.9151 H         1 <0>         0.0982
     26 H16        -0.5499    1.8322   -0.8811 H         1 <0>         0.0580
     27 H17         0.0329   -2.2778   -0.0104 H         1 <0>         0.2317
@<TRIPOS>BOND
     1    1    2 1
     2    1   11 1
     3    1   12 1
     4    1   13 1
     5    2    3 1
     6    2   14 1
     7    2   15 1
     8    3    4 1
     9    3   16 1
    10    3   17 1
    11    4    5 1
    12    4   18 1
    13    4   19 1
    14    5    6 1
    15    5   20 1
    16    5   21 1
    17    6    7 1
    18    6    8 1
    19    7   22 1
    20    7   23 1
    21    7   24 1
    22    8    9 1
    23    8   25 1
    24    8   26 1
    25    9   10 3
    26   10   27 1
@<TRIPOS>MOLECULE
ZINC00093391
   27    28     0     0     0
SMALL
USER_CHARGES
7-methoxy-3,4-dimethyl-chromen-2-one
@<TRIPOS>ATOM
      1 C1          4.9983    0.0870   -0.0447 C.3       1 <0>        -0.1299
      2 C2          3.6888   -0.6587   -0.0367 C.2       1 <0>         0.0293
      3 C3          3.6592   -2.0168   -0.0438 C.2       1 <0>        -0.2316
      4 C4          2.4211   -2.6914   -0.0355 C.2       1 <0>         0.5161
      5 O1          2.4089   -3.9093   -0.0420 O.2       1 <0>        -0.4590
      6 O2          1.2555   -2.0259   -0.0212 O.3       1 <0>        -0.2692
      7 C5          1.2145   -0.6763   -0.0132 C.ar      1 <0>         0.1860
      8 C6          2.4135    0.0610   -0.0206 C.ar      1 <0>        -0.1864
      9 C7          2.3758    1.4598   -0.0132 C.ar      1 <0>        -0.0157
     10 C8          1.1734    2.1057    0.0022 C.ar      1 <0>        -0.2255
     11 C9         -0.0167    1.3814    0.0096 C.ar      1 <0>         0.1847
     12 C10         0.0021   -0.0041    0.0020 C.ar      1 <0>        -0.1747
     13 O3         -1.2045    2.0384    0.0188 O.3       1 <0>        -0.3063
     14 C11        -1.1559    3.4665    0.0263 C.3       1 <0>         0.0232
     15 C12         4.9464   -2.8004   -0.0598 C.3       1 <0>        -0.0968
     16 H1          5.3237    0.2610    0.9810 H         1 <0>         0.0914
     17 H2          5.7496   -0.5036   -0.5690 H         1 <0>         0.0876
     18 H3          4.8689    1.0431   -0.5519 H         1 <0>         0.0791
     19 H4          3.2951    2.0265   -0.0188 H         1 <0>         0.1439
     20 H5          1.1445    3.1853    0.0079 H         1 <0>         0.1420
     21 H6         -0.9247   -0.5585    0.0082 H         1 <0>         0.1529
     22 H7         -2.1706    3.8646    0.0333 H         1 <0>         0.1072
     23 H8         -0.6258    3.8074    0.9157 H         1 <0>         0.0616
     24 H9         -0.6342    3.8170   -0.8642 H         1 <0>         0.0616
     25 H10         5.2662   -2.9948    0.9639 H         1 <0>         0.0754
     26 H11         4.7892   -3.7467   -0.5773 H         1 <0>         0.0772
     27 H12         5.7148   -2.2263   -0.5776 H         1 <0>         0.0759
@<TRIPOS>BOND
     1    1    2 1
     2    1   16 1
     3    1   17 1
     4    1   18 1
     5    2    8 1
     6    2    3 2
     7    3    4 1
     8    3   15 1
     9    4    5 2
    10    4    6 1
    11    6    7 1
    12    7   12 ar
    13    7    8 ar
    14    8    9 ar
    15    9   10 ar
    16    9   19 1
    17   10   11 ar
    18   10   20 1
    19   11   12 ar
    20   11   13 1
    21   12   21 1
    22   13   14 1
    23   14   22 1
    24   14   23 1
    25   14   24 1
    26   15   25 1
    27   15   26 1
    28   15   27 1
@<TRIPOS>MOLECULE
ZINC00454021
   37    39     0     0     0
SMALL
USER_CHARGES
7-[(4-chlorophenyl)methoxy]-3,4-dimethyl-chromen-2-one
@<TRIPOS>ATOM
      1 C1          1.4763    1.5789    2.4328 C.3       1 <0>        -0.1290
      2 C2         -0.0134    1.8021    2.3862 C.2       1 <0>         0.0294
      3 C3         -0.7181    1.5718    1.2479 C.2       1 <0>        -0.2309
      4 C4         -2.1103    1.7942    1.2278 C.2       1 <0>         0.5159
      5 O1         -2.7291    1.5889    0.1990 O.2       1 <0>        -0.4586
      6 O2         -2.7719    2.2213    2.3147 O.3       1 <0>        -0.2692
      7 C5         -2.1317    2.4688    3.4775 C.ar      1 <0>         0.1868
      8 C6         -0.7405    2.2736    3.5666 C.ar      1 <0>        -0.1857
      9 C7         -0.0729    2.5298    4.7694 C.ar      1 <0>        -0.0148
     10 C8         -0.7750    2.9682    5.8547 C.ar      1 <0>        -0.2264
     11 C9         -2.1522    3.1633    5.7726 C.ar      1 <0>         0.1871
     12 C10        -2.8291    2.9150    4.5894 C.ar      1 <0>        -0.1732
     13 O3         -2.8362    3.6006    6.8605 O.3       1 <0>        -0.2982
     14 C11        -2.0803    3.8381    8.0498 C.3       1 <0>         0.0996
     15 C12        -3.0011    4.3149    9.1434 C.ar      1 <0>        -0.0981
     16 C13        -3.2375    5.6671    9.3068 C.ar      1 <0>        -0.0801
     17 C14        -4.0863    6.1047   10.3060 C.ar      1 <0>        -0.1131
     18 C15        -4.6905    5.1898   11.1499 C.ar      1 <0>        -0.0226
     19 C16        -4.4490    3.8370   10.9894 C.ar      1 <0>        -0.1132
     20 C17        -3.6045    3.4003    9.9862 C.ar      1 <0>        -0.0800
     21 Cl1        -5.7516    5.7391   12.4093 Cl        1 <0>        -0.0625
     22 C18        -0.0127    1.0858    0.0080 C.3       1 <0>        -0.0963
     23 H1          1.9904    2.4979    2.1513 H         1 <0>         0.0911
     24 H2          1.7695    1.2934    3.4431 H         1 <0>         0.0801
     25 H3          1.7465    0.7839    1.7378 H         1 <0>         0.0859
     26 H4          0.9944    2.3803    4.8390 H         1 <0>         0.1442
     27 H5         -0.2596    3.1659    6.7830 H         1 <0>         0.1417
     28 H6         -3.8968    3.0683    4.5337 H         1 <0>         0.1528
     29 H7         -1.5938    2.9139    8.3617 H         1 <0>         0.0803
     30 H8         -1.3243    4.5985    7.8540 H         1 <0>         0.0803
     31 H9         -2.7623    6.3814    8.6508 H         1 <0>         0.1359
     32 H10        -4.2744    7.1608   10.4308 H         1 <0>         0.1386
     33 H11        -4.9207    3.1224   11.6476 H         1 <0>         0.1386
     34 H12        -3.4162    2.3443    9.8606 H         1 <0>         0.1359
     35 H13         0.0021   -0.0041    0.0020 H         1 <0>         0.0752
     36 H14         1.0099    1.4631    0.0003 H         1 <0>         0.0744
     37 H15        -0.5399    1.4469   -0.8751 H         1 <0>         0.0781
@<TRIPOS>BOND
     1    1    2 1
     2    1   23 1
     3    1   24 1
     4    1   25 1
     5    2    8 1
     6    2    3 2
     7    3    4 1
     8    3   22 1
     9    4    5 2
    10    4    6 1
    11    6    7 1
    12    7   12 ar
    13    7    8 ar
    14    8    9 ar
    15    9   10 ar
    16    9   26 1
    17   10   11 ar
    18   10   27 1
    19   11   12 ar
    20   11   13 1
    21   12   28 1
    22   13   14 1
    23   14   15 1
    24   14   29 1
    25   14   30 1
    26   15   20 ar
    27   15   16 ar
    28   16   17 ar
    29   16   31 1
    30   17   18 ar
    31   17   32 1
    32   18   19 ar
    33   18   21 1
    34   19   20 ar
    35   19   33 1
    36   20   34 1
    37   22   35 1
    38   22   36 1
    39   22   37 1
@<TRIPOS>MOLECULE
ZINC00454677
   37    39     0     0     0
SMALL
USER_CHARGES
7-[(4-fluorophenyl)methoxy]-3,4-dimethyl-chromen-2-one
@<TRIPOS>ATOM
      1 C1          1.4763    1.5789    2.4328 C.3       1 <0>        -0.1290
      2 C2         -0.0134    1.8021    2.3862 C.2       1 <0>         0.0295
      3 C3         -0.7181    1.5718    1.2479 C.2       1 <0>        -0.2311
      4 C4         -2.1103    1.7942    1.2278 C.2       1 <0>         0.5159
      5 O1         -2.7291    1.5889    0.1990 O.2       1 <0>        -0.4587
      6 O2         -2.7719    2.2213    2.3147 O.3       1 <0>        -0.2692
      7 C5         -2.1317    2.4688    3.4775 C.ar      1 <0>         0.1867
      8 C6         -0.7405    2.2736    3.5666 C.ar      1 <0>        -0.1860
      9 C7         -0.0729    2.5298    4.7694 C.ar      1 <0>        -0.0148
     10 C8         -0.7750    2.9682    5.8547 C.ar      1 <0>        -0.2265
     11 C9         -2.1522    3.1633    5.7726 C.ar      1 <0>         0.1873
     12 C10        -2.8291    2.9150    4.5894 C.ar      1 <0>        -0.1735
     13 O3         -2.8362    3.6006    6.8605 O.3       1 <0>        -0.2987
     14 C11        -2.0803    3.8381    8.0498 C.3       1 <0>         0.1012
     15 C12        -3.0011    4.3149    9.1434 C.ar      1 <0>        -0.1139
     16 C13        -3.2373    5.6672    9.3066 C.ar      1 <0>        -0.0631
     17 C14        -4.0852    6.1054   10.3061 C.ar      1 <0>        -0.1567
     18 C15        -4.6900    5.1900   11.1507 C.ar      1 <0>         0.1135
     19 C16        -4.4486    3.8362   10.9896 C.ar      1 <0>        -0.1567
     20 C17        -3.6044    3.4001    9.9861 C.ar      1 <0>        -0.0630
     21 F1         -5.5154    5.6175   12.1311 F         1 <0>        -0.1352
     22 C18        -0.0127    1.0858    0.0080 C.3       1 <0>        -0.0963
     23 H1          1.9904    2.4979    2.1513 H         1 <0>         0.0911
     24 H2          1.7695    1.2934    3.4431 H         1 <0>         0.0802
     25 H3          1.7465    0.7839    1.7378 H         1 <0>         0.0859
     26 H4          0.9944    2.3803    4.8390 H         1 <0>         0.1441
     27 H5         -0.2596    3.1659    6.7830 H         1 <0>         0.1418
     28 H6         -3.8968    3.0683    4.5337 H         1 <0>         0.1528
     29 H7         -1.5938    2.9139    8.3617 H         1 <0>         0.0800
     30 H8         -1.3243    4.5985    7.8540 H         1 <0>         0.0800
     31 H9         -2.7622    6.3812    8.6502 H         1 <0>         0.1366
     32 H10        -4.2728    7.1616   10.4308 H         1 <0>         0.1407
     33 H11        -4.9200    3.1213   11.6477 H         1 <0>         0.1407
     34 H12        -3.4162    2.3441    9.8600 H         1 <0>         0.1366
     35 H13         0.0021   -0.0041    0.0020 H         1 <0>         0.0751
     36 H14         1.0099    1.4631    0.0003 H         1 <0>         0.0744
     37 H15        -0.5399    1.4469   -0.8751 H         1 <0>         0.0781
@<TRIPOS>BOND
     1    1    2 1
     2    1   23 1
     3    1   24 1
     4    1   25 1
     5    2    8 1
     6    2    3 2
     7    3    4 1
     8    3   22 1
     9    4    5 2
    10    4    6 1
    11    6    7 1
    12    7   12 ar
    13    7    8 ar
    14    8    9 ar
    15    9   10 ar
    16    9   26 1
    17   10   11 ar
    18   10   27 1
    19   11   12 ar
    20   11   13 1
    21   12   28 1
    22   13   14 1
    23   14   15 1
    24   14   29 1
    25   14   30 1
    26   15   20 ar
    27   15   16 ar
    28   16   17 ar
    29   16   31 1
    30   17   18 ar
    31   17   32 1
    32   18   19 ar
    33   18   21 1
    34   19   20 ar
    35   19   33 1
    36   20   34 1
    37   22   35 1
    38   22   36 1
    39   22   37 1
@<TRIPOS>MOLECULE
ZINC01542229
   24    24     0     0     0
SMALL
USER_CHARGES

@<TRIPOS>ATOM
      1 C1         -0.0167    1.3830    0.0096 C.ar      1 <0>        -0.0685
      2 C2          1.1921    2.0603    0.0017 C.ar      1 <0>        -0.0894
      3 C3          2.3778    1.3290   -0.0135 C.ar      1 <0>         0.0631
      4 N1          2.3528    0.0016   -0.0204 N.ar      1 <0>        -0.4477
      5 C4          1.2210   -0.6671   -0.0132 C.ar      1 <0>         0.1165
      6 C5          0.0021   -0.0041    0.0020 C.ar      1 <0>        -0.0608
      7 Cl1        -1.4841   -0.9012    0.0120 Cl        1 <0>        -0.0260
      8 C6          3.6777    2.0387   -0.0226 C.2       1 <0>         0.5877
      9 O1          3.7068    3.2536   -0.0168 O.2       1 <0>        -0.5123
     10 N2          4.8284    1.3371   -0.0374 N.am      1 <0>        -0.7186
     11 C7          6.1142    2.0391   -0.0464 C.3       1 <0>         0.0908
     12 C8          7.2529    1.0174   -0.0626 C.3       1 <0>        -0.0200
     13 N3          8.5423    1.7212   -0.0716 N.4       1 <0>        -0.6314
     14 H1         -0.9521    1.9227    0.0259 H         1 <0>         0.1606
     15 H2          1.2148    3.1400    0.0070 H         1 <0>         0.1611
     16 H3          1.2401   -1.7469   -0.0192 H         1 <0>         0.1784
     17 H4          4.8051    0.3674   -0.0420 H         1 <0>         0.4200
     18 H5          6.1783    2.6687   -0.9338 H         1 <0>         0.0933
     19 H6          6.1956    2.6597    0.8460 H         1 <0>         0.0932
     20 H7          7.1889    0.3878    0.8249 H         1 <0>         0.1431
     21 H8          7.1715    0.3968   -0.9550 H         1 <0>         0.1431
     22 H9          8.6016    2.3040   -0.8932 H         1 <0>         0.4393
     23 H10         8.6176    2.2957    0.7544 H         1 <0>         0.4393
     24 H11         9.2933    1.0474   -0.0824 H         1 <0>         0.4449
@<TRIPOS>BOND
     1    1    6 ar
     2    1    2 ar
     3    1   14 1
     4    2    3 ar
     5    2   15 1
     6    3    4 ar
     7    3    8 1
     8    4    5 ar
     9    5    6 ar
    10    5   16 1
    11    6    7 1
    12    8    9 2
    13    8   10 am
    14   10   11 1
    15   10   17 1
    16   11   12 1
    17   11   18 1
    18   11   19 1
    19   12   13 1
    20   12   20 1
    21   12   21 1
    22   13   22 1
    23   13   23 1
    24   13   24 1
@<TRIPOS>MOLECULE
ZINC00000915
   35    35     0     0     0
SMALL
USER_CHARGES
4-(2-aminopropyl)-N,N,3-trimethyl-aniline
@<TRIPOS>ATOM
      1 C1         -1.3323    2.1119    0.0198 C.3       1 <0>        -0.1296
      2 C2         -0.0167    1.3770    0.0096 C.ar      1 <0>        -0.0163
      3 C3          0.0021   -0.0041    0.0020 C.ar      1 <0>        -0.1953
      4 C4          1.2150   -0.6805   -0.0132 C.ar      1 <0>         0.2369
      5 C5          2.4059    0.0352   -0.0208 C.ar      1 <0>        -0.2000
      6 C6          2.3799    1.4157   -0.0132 C.ar      1 <0>        -0.0788
      7 C7          1.1703    2.0861    0.0021 C.ar      1 <0>        -0.2008
      8 C8          1.1459    3.5929    0.0100 C.3       1 <0>        -0.0923
      9 C9          1.0254    4.0935    1.4507 C.3       1 <0>         0.0345
     10 H1          0.1514    3.6422    1.9203 H         1 <0>         0.1407
     11 C10         0.8753    5.6161    1.4507 C.3       1 <0>        -0.1852
     12 N1          1.2376   -2.0770   -0.0214 N.pl3     1 <0>        -0.6287
     13 C11        -0.0190   -2.8300   -0.0139 C.3       1 <0>         0.0842
     14 C12         2.5180   -2.7888   -0.0375 C.3       1 <0>         0.0851
     15 H2         -1.6447    2.2834    1.0499 H         1 <0>         0.0743
     16 H3         -1.2180    3.0688   -0.4893 H         1 <0>         0.0730
     17 H4         -2.0859    1.5148   -0.4937 H         1 <0>         0.0752
     18 H5         -0.9254   -0.5574    0.0076 H         1 <0>         0.1294
     19 H6          3.3508   -0.4877   -0.0330 H         1 <0>         0.1290
     20 H7          3.3052    1.9726   -0.0190 H         1 <0>         0.1205
     21 H8          2.0672    3.9735   -0.4311 H         1 <0>         0.0918
     22 H9          0.2928    3.9455   -0.5697 H         1 <0>         0.1165
     23 H10         0.7895    5.9728    2.4771 H         1 <0>         0.0823
     24 H11         1.7494    6.0674    0.9812 H         1 <0>         0.0821
     25 H12        -0.0199    5.8930    0.8938 H         1 <0>         0.1059
     26 H13         2.1766    4.0401    3.1567 H         1 <0>         0.4359
     27 H14         2.3888    2.7245    2.1616 H         1 <0>         0.4357
     28 H15        -0.3404   -3.0109   -1.0396 H         1 <0>         0.0567
     29 H16         0.1315   -3.7831    0.4931 H         1 <0>         0.0748
     30 H17        -0.7832   -2.2563    0.5104 H         1 <0>         0.0714
     31 H18         2.8452   -2.9712    0.9861 H         1 <0>         0.0554
     32 H19         2.3982   -3.7403   -0.5557 H         1 <0>         0.0750
     33 H20         3.2631   -2.1846   -0.5549 H         1 <0>         0.0714
     34 N2          2.2493    3.7332    2.1880 N.4       1 <0>        -0.6453
     35 H21         3.0553    4.1945    1.7501 H         1 <0>         0.4346
@<TRIPOS>BOND
     1    1    2 1
     2    1   15 1
     3    1   16 1
     4    1   17 1
     5    2    7 ar
     6    2    3 ar
     7    3    4 ar
     8    3   18 1
     9    4    5 ar
    10    4   12 1
    11    5    6 ar
    12    5   19 1
    13    6    7 ar
    14    6   20 1
    15    7    8 1
    16    8    9 1
    17    8   21 1
    18    8   22 1
    19    9   10 1
    20    9   11 1
    21    9   34 1
    22   11   23 1
    23   11   24 1
    24   11   25 1
    25   12   13 1
    26   12   14 1
    27   13   28 1
    28   13   29 1
    29   13   30 1
    30   14   31 1
    31   14   32 1
    32   14   33 1
    33   26   34 1
    34   27   34 1
    35   34   35 1
@<TRIPOS>MOLECULE
ZINC29212975
   35    35     0     0     0
SMALL
USER_CHARGES
4-[(2R)-2-aminopropyl]-N,N,3-trimethyl-aniline
@<TRIPOS>ATOM
      1 C1         -1.5126   -0.2618   -0.7611 C.3       1 <0>        -0.1270
      2 C2         -0.1785    0.4015   -0.5347 C.ar      1 <0>        -0.0194
      3 C3         -0.0560    1.7702   -0.6748 C.ar      1 <0>        -0.1904
      4 C4          1.1739    2.3807   -0.4660 C.ar      1 <0>         0.2341
      5 C5          2.2773    1.6118   -0.1172 C.ar      1 <0>        -0.1967
      6 C6          2.1477    0.2441    0.0216 C.ar      1 <0>        -0.0792
      7 C7          0.9214   -0.3606   -0.1867 C.ar      1 <0>        -0.1968
      8 C8          0.7838   -1.8535   -0.0343 C.3       1 <0>        -0.0899
      9 C9          0.2621   -2.1772    1.3671 C.3       1 <0>         0.0409
     10 H1         -0.6557   -1.6088    1.5782 H         1 <0>         0.1319
     11 C10         0.0008   -3.6806    1.4794 C.3       1 <0>        -0.1848
     12 N1          1.2623   -1.7781    2.3663 N.4       1 <0>        -0.6868
     13 N2          1.3015    3.7644   -0.6072 N.pl3     1 <0>        -0.6285
     14 C11         0.1162    4.5871   -0.8614 C.3       1 <0>         0.0843
     15 C12         2.6205    4.3931   -0.5011 C.3       1 <0>         0.0851
     16 H2         -2.2602    0.4998   -1.0277 H         1 <0>         0.0727
     17 H3         -1.8264   -0.7776    0.1584 H         1 <0>         0.0683
     18 H4         -1.4250   -0.9918   -1.5793 H         1 <0>         0.0782
     19 H5         -0.9146    2.3644   -0.9507 H         1 <0>         0.1275
     20 H6          3.2351    2.0834    0.0459 H         1 <0>         0.1270
     21 H7          3.0051   -0.3541    0.2927 H         1 <0>         0.1211
     22 H8          0.0771   -2.2352   -0.7859 H         1 <0>         0.1123
     23 H9          1.7652   -2.3289   -0.1791 H         1 <0>         0.0914
     24 H10        -0.3743   -3.9133    2.4870 H         1 <0>         0.0807
     25 H11         0.9370   -4.2298    1.3007 H         1 <0>         0.0816
     26 H12        -0.7482   -3.9795    0.7312 H         1 <0>         0.1037
     27 H13         0.8872   -2.0109    3.3738 H         1 <0>         0.4541
     28 H14         1.4502   -0.6973    2.2856 H         1 <0>         0.4542
     29 H15         0.4133    5.6431   -0.9422 H         1 <0>         0.0820
     30 H16        -0.5967    4.4692   -0.0320 H         1 <0>         0.0594
     31 H17        -0.3579    4.2667   -1.8008 H         1 <0>         0.0600
     32 H18         2.5208    5.4799   -0.6390 H         1 <0>         0.0819
     33 H19         3.2849    3.9845   -1.2767 H         1 <0>         0.0600
     34 H20         3.0461    4.1870    0.4921 H         1 <0>         0.0586
     35 H21         2.1985   -2.3274    2.1876 H         1 <0>         0.4489
@<TRIPOS>BOND
     1    1    2 1
     2    1   16 1
     3    1   17 1
     4    1   18 1
     5    2    7 ar
     6    2    3 ar
     7    3    4 ar
     8    3   19 1
     9    4    5 ar
    10    4   13 1
    11    5    6 ar
    12    5   20 1
    13    6    7 ar
    14    6   21 1
    15    7    8 1
    16    8    9 1
    17    8   22 1
    18    8   23 1
    19    9   10 1
    20    9   11 1
    21    9   12 1
    22   11   24 1
    23   11   25 1
    24   11   26 1
    25   12   27 1
    26   12   28 1
    27   12   35 1
    28   13   14 1
    29   13   15 1
    30   14   29 1
    31   14   30 1
    32   14   31 1
    33   15   32 1
    34   15   33 1
    35   15   34 1
@<TRIPOS>MOLECULE
ZINC04091242
   31    33     0     0     0
SMALL
USER_CHARGES

@<TRIPOS>ATOM
      1 C1         -2.1935    1.4702    0.6087 C.3       1 <0>        -0.1731
      2 C2         -2.1684   -0.0366    0.6087 C.2       1 <0>         0.5096
      3 O1         -3.0595   -0.6579    1.1481 O.2       1 <0>        -0.5150
      4 N1         -1.1558   -0.6938    0.0094 N.am      1 <0>        -0.6759
      5 C3         -1.0815   -2.0835    0.0912 C.ar      1 <0>         0.1680
      6 C4          0.1583   -2.7067    0.1773 C.ar      1 <0>        -0.1287
      7 C5          0.2436   -4.0821    0.2583 C.ar      1 <0>        -0.0450
      8 C6         -0.9173   -4.8543    0.2544 C.ar      1 <0>        -0.1386
      9 C7         -2.1746   -4.2270    0.1678 C.ar      1 <0>        -0.0973
     10 C8         -2.2498   -2.8417    0.0920 C.ar      1 <0>        -0.0753
     11 C9         -3.4090   -5.0408    0.1628 C.2       1 <0>         0.4338
     12 O2         -4.4943   -4.5000    0.0879 O.2       1 <0>        -0.4216
     13 C10        -3.3200   -6.5136    0.2486 C.ar      1 <0>        -0.1181
     14 C11        -4.4765   -7.2885    0.2438 C.ar      1 <0>        -0.0689
     15 C12        -4.3835   -8.6668    0.3241 C.ar      1 <0>        -0.0981
     16 C13        -3.1477   -9.2816    0.4093 C.ar      1 <0>        -0.0985
     17 C14        -1.9881   -8.5263    0.4153 C.ar      1 <0>        -0.0690
     18 C15        -2.0635   -7.1388    0.3352 C.ar      1 <0>        -0.1194
     19 C16        -0.8298   -6.3246    0.3403 C.2       1 <0>         0.4375
     20 O3          0.2558   -6.8659    0.4148 O.2       1 <0>        -0.4319
     21 H1         -3.0812    1.8188    1.1365 H         1 <0>         0.1000
     22 H2         -1.3017    1.8484    1.1085 H         1 <0>         0.0946
     23 H3         -2.2156    1.8332   -0.4188 H         1 <0>         0.0947
     24 H4         -0.4787   -0.1998   -0.4789 H         1 <0>         0.4177
     25 H5          1.0595   -2.1115    0.1806 H         1 <0>         0.1426
     26 H6          1.2098   -4.5601    0.3243 H         1 <0>         0.1494
     27 H7         -3.2115   -2.3543    0.0295 H         1 <0>         0.1600
     28 H8         -5.4448   -6.8146    0.1779 H         1 <0>         0.1442
     29 H9         -5.2818   -9.2663    0.3206 H         1 <0>         0.1390
     30 H10        -3.0872  -10.3581    0.4718 H         1 <0>         0.1390
     31 H11        -1.0261   -9.0127    0.4820 H         1 <0>         0.1442
@<TRIPOS>BOND
     1    1    2 1
     2    1   21 1
     3    1   22 1
     4    1   23 1
     5    2    3 2
     6    2    4 am
     7    4    5 1
     8    4   24 1
     9    5   10 ar
    10    5    6 ar
    11    6    7 ar
    12    6   25 1
    13    7    8 ar
    14    7   26 1
    15    8   19 1
    16    8    9 ar
    17    9   10 ar
    18    9   11 1
    19   10   27 1
    20   11   12 2
    21   11   13 1
    22   13   18 ar
    23   13   14 ar
    24   14   15 ar
    25   14   28 1
    26   15   16 ar
    27   15   29 1
    28   16   17 ar
    29   16   30 1
    30   17   18 ar
    31   17   31 1
    32   18   19 1
    33   19   20 2
@<TRIPOS>MOLECULE
ZINC01382382
   30    33     0     0     0
SMALL
USER_CHARGES
(4-bromophenyl)BLAHone
@<TRIPOS>ATOM
      1 C1         -0.4833    8.0102    0.0457 C.ar      1 <0>        -0.0843
      2 C2          0.8677    8.2986    0.0345 C.ar      1 <0>        -0.1089
      3 C3          1.7999    7.2741    0.0216 C.ar      1 <0>        -0.0422
      4 C4          1.3749    5.9507    0.0195 C.ar      1 <0>        -0.1619
      5 C5          0.0006    5.6560    0.0308 C.ar      1 <0>        -0.0219
      6 C6         -0.9206    6.6949    0.0442 C.ar      1 <0>        -0.0737
      7 C7         -0.1715    4.1810    0.0251 C.ar      1 <0>         0.1352
      8 C8          1.1034    3.5844    0.0103 C.ar      1 <0>        -0.1701
      9 C9          1.1865    2.1994    0.0025 C.ar      1 <0>        -0.0344
     10 C10        -0.0180    1.4778    0.0102 C.ar      1 <0>         0.1113
     11 N1         -1.1737    2.1282    0.0191 N.ar      1 <0>        -0.2047
     12 N2         -1.2492    3.4087    0.0307 N.ar      1 <0>        -0.2140
     13 C11         0.0021   -0.0041    0.0020 C.ar      1 <0>        -0.0402
     14 C12         1.2176   -0.6873   -0.0191 C.ar      1 <0>        -0.0892
     15 C13         1.2305   -2.0669   -0.0227 C.ar      1 <0>        -0.0914
     16 C14         0.0396   -2.7728   -0.0146 C.ar      1 <0>        -0.0737
     17 C15        -1.1700   -2.0996    0.0015 C.ar      1 <0>        -0.0928
     18 C16        -1.1945   -0.7202    0.0096 C.ar      1 <0>        -0.0668
     19 Br1         0.0652   -4.6636   -0.0263 Br        1 <0>        -0.0396
     20 C17         2.1155    4.6664    0.0062 C.2       1 <0>         0.4563
     21 O1          3.3213    4.5278   -0.0057 O.2       1 <0>        -0.3986
     22 H1         -1.2035    8.8149    0.0561 H         1 <0>         0.1422
     23 H2          1.1982    9.3268    0.0362 H         1 <0>         0.1423
     24 H3          2.8553    7.5032    0.0126 H         1 <0>         0.1414
     25 H4         -1.9786    6.4780    0.0530 H         1 <0>         0.1429
     26 H5          2.1416    1.6955   -0.0092 H         1 <0>         0.1659
     27 H6          2.1471   -0.1376   -0.0295 H         1 <0>         0.1384
     28 H7          2.1713   -2.5971   -0.0356 H         1 <0>         0.1419
     29 H8         -2.0961   -2.6552    0.0073 H         1 <0>         0.1421
     30 H9         -2.1387   -0.1960    0.0214 H         1 <0>         0.1487
@<TRIPOS>BOND
     1    1    6 ar
     2    1    2 ar
     3    1   22 1
     4    2    3 ar
     5    2   23 1
     6    3    4 ar
     7    3   24 1
     8    4   20 1
     9    4    5 ar
    10    5    6 ar
    11    5    7 1
    12    6   25 1
    13    7   12 ar
    14    7    8 ar
    15    8    9 ar
    16    8   20 1
    17    9   10 ar
    18    9   26 1
    19   10   11 ar
    20   10   13 1
    21   11   12 ar
    22   13   18 ar
    23   13   14 ar
    24   14   15 ar
    25   14   27 1
    26   15   16 ar
    27   15   28 1
    28   16   17 ar
    29   16   19 1
    30   17   18 ar
    31   17   29 1
    32   18   30 1
    33   20   21 2
@<TRIPOS>MOLECULE
ZINC01382388
   30    33     0     0     0
SMALL
USER_CHARGES
(3-chlorophenyl)BLAHone
@<TRIPOS>ATOM
      1 C1         -7.9415   -2.6468    0.0215 C.ar      1 <0>        -0.0843
      2 C2         -8.8632   -1.6179    0.0318 C.ar      1 <0>        -0.1091
      3 C3         -8.4374   -0.2997    0.0377 C.ar      1 <0>        -0.0422
      4 C4         -7.0779   -0.0107    0.0333 C.ar      1 <0>        -0.1621
      5 C5         -6.1392   -1.0568    0.0233 C.ar      1 <0>        -0.0215
      6 C6         -6.5828   -2.3726    0.0175 C.ar      1 <0>        -0.0739
      7 C7         -4.7736   -0.4730    0.0211 C.ar      1 <0>         0.1343
      8 C8         -4.8896    0.9298    0.0297 C.ar      1 <0>        -0.1699
      9 C9         -3.7290    1.6903    0.0289 C.ar      1 <0>        -0.0343
     10 C10        -2.5043    1.0038    0.0194 C.ar      1 <0>         0.1139
     11 N1         -2.4942   -0.3222    0.0066 N.ar      1 <0>        -0.2057
     12 N2         -3.5679   -1.0244    0.0129 N.ar      1 <0>        -0.2134
     13 C11        -1.2283    1.7579    0.0174 C.ar      1 <0>        -0.0429
     14 C12        -1.2394    3.1524    0.0289 C.ar      1 <0>        -0.0912
     15 C13        -0.0488    3.8497    0.0218 C.ar      1 <0>        -0.1060
     16 C14         1.1552    3.1684    0.0076 C.ar      1 <0>        -0.0898
     17 C15         1.1732    1.7842    0.0004 C.ar      1 <0>        -0.0390
     18 C16        -0.0126    1.0758    0.0080 C.ar      1 <0>        -0.0657
     19 Cl1         2.6885    0.9373   -0.0186 Cl        1 <0>        -0.0578
     20 C17        -6.3315    1.2703    0.0377 C.2       1 <0>         0.4567
     21 O1         -6.8105    2.3856    0.0466 O.2       1 <0>        -0.3990
     22 H1         -8.2818   -3.6718    0.0169 H         1 <0>         0.1421
     23 H2         -9.9196   -1.8421    0.0355 H         1 <0>         0.1422
     24 H3         -9.1608    0.5023    0.0461 H         1 <0>         0.1413
     25 H4         -5.8687   -3.1828    0.0095 H         1 <0>         0.1429
     26 H5         -3.7664    2.7696    0.0349 H         1 <0>         0.1661
     27 H6         -2.1784    3.6858    0.0400 H         1 <0>         0.1358
     28 H7         -0.0568    4.9296    0.0269 H         1 <0>         0.1422
     29 H8          2.0845    3.7186    0.0016 H         1 <0>         0.1403
     30 H9          0.0021   -0.0041    0.0020 H         1 <0>         0.1499
@<TRIPOS>BOND
     1    1    6 ar
     2    1    2 ar
     3    1   22 1
     4    2    3 ar
     5    2   23 1
     6    3    4 ar
     7    3   24 1
     8    4   20 1
     9    4    5 ar
    10    5    6 ar
    11    5    7 1
    12    6   25 1
    13    7   12 ar
    14    7    8 ar
    15    8    9 ar
    16    8   20 1
    17    9   10 ar
    18    9   26 1
    19   10   11 ar
    20   10   13 1
    21   11   12 ar
    22   13   18 ar
    23   13   14 ar
    24   14   15 ar
    25   14   27 1
    26   15   16 ar
    27   15   28 1
    28   16   17 ar
    29   16   29 1
    30   17   18 ar
    31   17   19 1
    32   18   30 1
    33   20   21 2
@<TRIPOS>MOLECULE
ZINC00049852
   27    30     0     0     0
SMALL
USER_CHARGES
2-thienylBLAHone
@<TRIPOS>ATOM
      1 C1          2.7243   11.4225    0.0374 C.ar      1 <0>        -0.0842
      2 C2          4.0924   11.2285    0.0247 C.ar      1 <0>        -0.1093
      3 C3          4.6153    9.9464    0.0136 C.ar      1 <0>        -0.0421
      4 C4          3.7608    8.8494    0.0148 C.ar      1 <0>        -0.1616
      5 C5          2.3687    9.0456    0.0278 C.ar      1 <0>        -0.0201
      6 C6          1.8612   10.3388    0.0393 C.ar      1 <0>        -0.0741
      7 C7          1.6996    7.7207    0.0266 C.ar      1 <0>         0.1319
      8 C8          2.6927    6.7211    0.0129 C.ar      1 <0>        -0.1662
      9 C9          2.2959    5.3932    0.0148 C.ar      1 <0>        -0.0354
     10 C10         0.9134    5.1285    0.0199 C.ar      1 <0>         0.1608
     11 N1          0.0508    6.1392    0.0326 N.ar      1 <0>        -0.2027
     12 N2          0.4220    7.3671    0.0358 N.ar      1 <0>        -0.2102
     13 C11         0.4251    3.7374    0.0174 C.2       1 <0>        -0.1423
     14 C12        -0.8665    3.2744    0.0271 C.2       1 <0>        -0.0908
     15 C13        -1.0815    1.9160    0.0166 C.2       1 <0>        -0.1665
     16 C14        -0.0126    1.0758    0.0080 C.2       1 <0>        -0.1481
     17 S1          1.3605    2.2167    0.0010 S.3       1 <0>         0.0842
     18 C15         4.0148    7.3895    0.0050 C.2       1 <0>         0.4564
     19 O1          5.0997    6.8450   -0.0071 O.2       1 <0>        -0.3979
     20 H1          2.3251   12.4260    0.0464 H         1 <0>         0.1420
     21 H2          4.7565   12.0802    0.0238 H         1 <0>         0.1421
     22 H3          5.6851    9.7986    0.0040 H         1 <0>         0.1414
     23 H4          0.7933   10.4994    0.0492 H         1 <0>         0.1430
     24 H5          3.0199    4.5919    0.0086 H         1 <0>         0.1627
     25 H6         -1.6982    3.9633    0.0383 H         1 <0>         0.1479
     26 H7         -2.0869    1.5215    0.0183 H         1 <0>         0.1444
     27 H8          0.0021   -0.0041    0.0020 H         1 <0>         0.1948
@<TRIPOS>BOND
     1    1    6 ar
     2    1    2 ar
     3    1   20 1
     4    2    3 ar
     5    2   21 1
     6    3    4 ar
     7    3   22 1
     8    4   18 1
     9    4    5 ar
    10    5    6 ar
    11    5    7 1
    12    6   23 1
    13    7   12 ar
    14    7    8 ar
    15    8    9 ar
    16    8   18 1
    17    9   10 ar
    18    9   24 1
    19   10   11 ar
    20   10   13 1
    21   11   12 ar
    22   13   17 1
    23   13   14 2
    24   14   15 1
    25   14   25 1
    26   15   16 2
    27   15   26 1
    28   16   17 1
    29   16   27 1
    30   18   19 2
@<TRIPOS>MOLECULE
ZINC01383528
   30    33     0     0     0
SMALL
USER_CHARGES

@<TRIPOS>ATOM
      1 C1         -0.0167    1.3818    0.0096 C.ar      1 <0>        -0.0843
      2 C2          1.1646    2.0980    0.0022 C.ar      1 <0>        -0.1095
      3 C3          2.3816    1.4365   -0.0135 C.ar      1 <0>        -0.0422
      4 C4          2.4147    0.0469   -0.0213 C.ar      1 <0>        -0.1624
      5 C5          1.2134   -0.6828   -0.0132 C.ar      1 <0>        -0.0209
      6 C6          0.0021   -0.0041    0.0020 C.ar      1 <0>        -0.0743
      7 C7          1.5352   -2.1325   -0.0237 C.ar      1 <0>         0.1325
      8 C8          2.9354   -2.2772   -0.0382 C.ar      1 <0>        -0.1693
      9 C9          3.4687   -3.5580   -0.0495 C.ar      1 <0>        -0.0369
     10 C10         2.5678   -4.6353   -0.0457 C.ar      1 <0>         0.1170
     11 N1          1.2626   -4.4005   -0.0318 N.ar      1 <0>        -0.2083
     12 N2          0.7708   -3.2157   -0.0211 N.ar      1 <0>        -0.2135
     13 C11         3.0734   -6.0282   -0.0578 C.ar      1 <0>        -0.0685
     14 C12         4.4462   -6.2740   -0.0671 C.ar      1 <0>        -0.0646
     15 C13         4.9119   -7.5722   -0.0784 C.ar      1 <0>        -0.1546
     16 C14         4.0182   -8.6314   -0.0804 C.ar      1 <0>         0.1215
     17 C15         2.6531   -8.3921   -0.0712 C.ar      1 <0>        -0.1563
     18 C16         2.1779   -7.0974   -0.0541 C.ar      1 <0>        -0.0426
     19 F1          4.4791   -9.9013   -0.0919 F         1 <0>        -0.1326
     20 C17         3.5360   -0.9228   -0.0372 C.2       1 <0>         0.4563
     21 O1          4.7205   -0.6577   -0.0474 O.2       1 <0>        -0.3992
     22 H1         -0.9612    1.9054    0.0260 H         1 <0>         0.1420
     23 H2          1.1392    3.1776    0.0083 H         1 <0>         0.1421
     24 H3          3.3032    1.9995   -0.0199 H         1 <0>         0.1412
     25 H4         -0.9260   -0.5564    0.0083 H         1 <0>         0.1428
     26 H5          4.5364   -3.7203   -0.0611 H         1 <0>         0.1654
     27 H6          5.1434   -5.4493   -0.0659 H         1 <0>         0.1395
     28 H7          5.9748   -7.7636   -0.0860 H         1 <0>         0.1448
     29 H8          1.9605   -9.2207   -0.0732 H         1 <0>         0.1450
     30 H9          1.1140   -6.9119   -0.0420 H         1 <0>         0.1498
@<TRIPOS>BOND
     1    1    6 ar
     2    1    2 ar
     3    1   22 1
     4    2    3 ar
     5    2   23 1
     6    3    4 ar
     7    3   24 1
     8    4   20 1
     9    4    5 ar
    10    5    6 ar
    11    5    7 1
    12    6   25 1
    13    7   12 ar
    14    7    8 ar
    15    8    9 ar
    16    8   20 1
    17    9   10 ar
    18    9   26 1
    19   10   11 ar
    20   10   13 1
    21   11   12 ar
    22   13   18 ar
    23   13   14 ar
    24   14   15 ar
    25   14   27 1
    26   15   16 ar
    27   15   28 1
    28   16   17 ar
    29   16   19 1
    30   17   18 ar
    31   17   29 1
    32   18   30 1
    33   20   21 2
@<TRIPOS>MOLECULE
ZINC21956233
   39    40     0     0     0
SMALL
USER_CHARGES
2-[(4-benzyloxyphenyl)methylamino]acetamide
@<TRIPOS>ATOM
      1 C1        -10.2805   -3.0691   -1.2183 C.ar      1 <0>        -0.1018
      2 C2         -9.9085   -2.2606   -2.2761 C.ar      1 <0>        -0.1210
      3 C3         -8.5897   -1.8716   -2.4183 C.ar      1 <0>        -0.0939
      4 C4         -7.6427   -2.2914   -1.5030 C.ar      1 <0>        -0.1093
      5 C5         -8.0136   -3.1046   -0.4484 C.ar      1 <0>        -0.0943
      6 C6         -9.3335   -3.4889   -0.3030 C.ar      1 <0>        -0.1213
      7 C7         -6.2049   -1.8676   -1.6582 C.3       1 <0>         0.0995
      8 O1         -5.9914   -0.6410   -0.9568 O.3       1 <0>        -0.2989
      9 C8         -4.7378   -0.1178   -0.9964 C.ar      1 <0>         0.1735
     10 C9         -4.4599    1.0709   -0.3374 C.ar      1 <0>        -0.1514
     11 C10        -3.1847    1.6005   -0.3788 C.ar      1 <0>        -0.0489
     12 C11        -2.1857    0.9469   -1.0763 C.ar      1 <0>        -0.2102
     13 C12        -2.4615   -0.2350   -1.7387 C.ar      1 <0>        -0.0461
     14 C13        -3.7337   -0.7717   -1.6956 C.ar      1 <0>        -0.2116
     15 C14        -0.7955    1.5269   -1.1198 C.3       1 <0>         0.0595
     16 N1         -0.0116    1.0048    0.0076 N.4       1 <0>        -0.5274
     17 C15         1.3525    1.5499   -0.0025 C.3       1 <0>        -0.0290
     18 C16         2.1246    0.9930    1.1657 C.2       1 <0>         0.5043
     19 O2          1.5911    0.2184    1.9314 O.2       1 <0>        -0.5420
     20 N2          3.4080    1.3559    1.3597 N.am      1 <0>        -0.8547
     21 H1        -11.3110   -3.3725   -1.1069 H         1 <0>         0.1287
     22 H2        -10.6484   -1.9326   -2.9913 H         1 <0>         0.1290
     23 H3         -8.2991   -1.2399   -3.2447 H         1 <0>         0.1242
     24 H4         -7.2730   -3.4361    0.2643 H         1 <0>         0.1238
     25 H5         -9.6241   -4.1203    0.5236 H         1 <0>         0.1288
     26 H6         -5.5466   -2.6458   -1.2447 H         1 <0>         0.0779
     27 H7         -5.9780   -1.7243   -2.7250 H         1 <0>         0.0783
     28 H8         -5.2398    1.5817    0.2079 H         1 <0>         0.1435
     29 H9         -2.9678    2.5257    0.1344 H         1 <0>         0.1378
     30 H10        -1.6806   -0.7412   -2.2868 H         1 <0>         0.1336
     31 H11        -3.9475   -1.6972   -2.2094 H         1 <0>         0.1403
     32 H12        -0.3100    1.2449   -2.0657 H         1 <0>         0.1342
     33 H13        -0.8532    2.6232   -1.0498 H         1 <0>         0.1350
     34 H14        -0.4971    1.2868    0.9535 H         1 <0>         0.4563
     35 H15         1.8530    1.2681   -0.9406 H         1 <0>         0.1564
     36 H16         1.3098    2.6463    0.0753 H         1 <0>         0.1568
     37 H17         3.9716    0.9494    2.2124 H         1 <0>         0.4494
     38 H18         3.8919    2.0586    0.6653 H         1 <0>         0.4352
     39 H19         0.0461   -0.0915   -0.0624 H         1 <0>         0.4557
@<TRIPOS>BOND
     1    1    6 ar
     2    1    2 ar
     3    1   21 1
     4    2    3 ar
     5    2   22 1
     6    3    4 ar
     7    3   23 1
     8    4    5 ar
     9    4    7 1
    10    5    6 ar
    11    5   24 1
    12    6   25 1
    13    7    8 1
    14    7   26 1
    15    7   27 1
    16    8    9 1
    17    9   14 ar
    18    9   10 ar
    19   10   11 ar
    20   10   28 1
    21   11   12 ar
    22   11   29 1
    23   12   13 ar
    24   12   15 1
    25   13   14 ar
    26   13   30 1
    27   14   31 1
    28   15   16 1
    29   15   32 1
    30   15   33 1
    31   16   17 1
    32   16   34 1
    33   16   39 1
    34   17   18 1
    35   17   35 1
    36   17   36 1
    37   18   19 2
    38   18   20 am
    39   20   37 1
    40   20   38 1
@<TRIPOS>MOLECULE
ZINC21956233
   38    39     0     0     0
SMALL
USER_CHARGES
2-[(4-benzyloxyphenyl)methylamino]acetamide
@<TRIPOS>ATOM
      1 C1        -10.2805   -3.0691   -1.2183 C.ar      1 <0>        -0.1092
      2 C2         -9.9085   -2.2606   -2.2761 C.ar      1 <0>        -0.1232
      3 C3         -8.5897   -1.8716   -2.4183 C.ar      1 <0>        -0.0957
      4 C4         -7.6427   -2.2914   -1.5030 C.ar      1 <0>        -0.0979
      5 C5         -8.0136   -3.1046   -0.4484 C.ar      1 <0>        -0.0953
      6 C6         -9.3335   -3.4889   -0.3030 C.ar      1 <0>        -0.1228
      7 C7         -6.2049   -1.8676   -1.6582 C.3       1 <0>         0.0998
      8 O1         -5.9914   -0.6410   -0.9568 O.3       1 <0>        -0.3087
      9 C8         -4.7378   -0.1178   -0.9964 C.ar      1 <0>         0.1325
     10 C9         -4.4599    1.0709   -0.3374 C.ar      1 <0>        -0.1514
     11 C10        -3.1847    1.6005   -0.3788 C.ar      1 <0>        -0.0717
     12 C11        -2.1857    0.9469   -1.0763 C.ar      1 <0>        -0.1211
     13 C12        -2.4615   -0.2350   -1.7387 C.ar      1 <0>        -0.0543
     14 C13        -3.7337   -0.7717   -1.6956 C.ar      1 <0>        -0.2099
     15 C14        -0.7955    1.5269   -1.1198 C.3       1 <0>         0.0946
     16 N1         -0.0116    1.0048    0.0076 N.3       1 <0>        -0.6520
     17 C15         1.3525    1.5499   -0.0025 C.3       1 <0>         0.0270
     18 C16         2.1246    0.9930    1.1657 C.2       1 <0>         0.5158
     19 O2          1.5911    0.2184    1.9314 O.2       1 <0>        -0.5346
     20 N2          3.4080    1.3559    1.3597 N.am      1 <0>        -0.8820
     21 H1        -11.3110   -3.3725   -1.1069 H         1 <0>         0.1250
     22 H2        -10.6484   -1.9326   -2.9913 H         1 <0>         0.1258
     23 H3         -8.2991   -1.2399   -3.2447 H         1 <0>         0.1240
     24 H4         -7.2730   -3.4361    0.2643 H         1 <0>         0.1246
     25 H5         -9.6241   -4.1203    0.5236 H         1 <0>         0.1260
     26 H6         -5.5466   -2.6458   -1.2447 H         1 <0>         0.0733
     27 H7         -5.9780   -1.7243   -2.7250 H         1 <0>         0.0727
     28 H8         -5.2398    1.5817    0.2079 H         1 <0>         0.1305
     29 H9         -2.9678    2.5257    0.1344 H         1 <0>         0.1264
     30 H10        -1.6806   -0.7412   -2.2868 H         1 <0>         0.1253
     31 H11        -3.9475   -1.6972   -2.2094 H         1 <0>         0.1278
     32 H12        -0.3100    1.2449   -2.0657 H         1 <0>         0.0815
     33 H13        -0.8532    2.6232   -1.0498 H         1 <0>         0.0413
     34 H14         1.8530    1.2681   -0.9406 H         1 <0>         0.1013
     35 H15         1.3098    2.6463    0.0753 H         1 <0>         0.0605
     36 H16         3.9716    0.9494    2.2124 H         1 <0>         0.4233
     37 H17         3.8919    2.0586    0.6653 H         1 <0>         0.4188
     38 H18        -0.4971    1.2868    0.9535 H         1 <0>         0.3523
@<TRIPOS>BOND
     1    1    6 ar
     2    1    2 ar
     3    1   21 1
     4    2    3 ar
     5    2   22 1
     6    3    4 ar
     7    3   23 1
     8    4    5 ar
     9    4    7 1
    10    5    6 ar
    11    5   24 1
    12    6   25 1
    13    7    8 1
    14    7   26 1
    15    7   27 1
    16    8    9 1
    17    9   14 ar
    18    9   10 ar
    19   10   11 ar
    20   10   28 1
    21   11   12 ar
    22   11   29 1
    23   12   13 ar
    24   12   15 1
    25   13   14 ar
    26   13   30 1
    27   14   31 1
    28   15   16 1
    29   15   32 1
    30   15   33 1
    31   16   17 1
    32   16   38 1
    33   17   18 1
    34   17   34 1
    35   17   35 1
    36   18   19 2
    37   18   20 am
    38   20   36 1
    39   20   37 1
@<TRIPOS>MOLECULE
ZINC53092456
   41    42     0     0     0
SMALL
USER_CHARGES

@<TRIPOS>ATOM
      1 C1         -0.0187    1.5258    0.0104 C.3       1 <0>        -0.1381
      2 C2          0.0021   -0.0041    0.0020 C.3       1 <0>         0.0639
      3 H1          0.5123   -0.3556   -0.8948 H         1 <0>         0.0725
      4 C3          0.7309   -0.5033    1.2229 C.2       1 <0>         0.5158
      5 O1          0.1587   -1.2128    2.0229 O.2       1 <0>        -0.5326
      6 N1          2.0187   -0.1613    1.4257 N.am      1 <0>        -0.8529
      7 N2         -1.3761   -0.5125    0.0124 N.3       1 <0>        -0.6692
      8 C4         -1.9244   -0.5753   -1.3489 C.3       1 <0>         0.1035
      9 C5         -3.3361   -1.1002   -1.2982 C.ar      1 <0>        -0.1243
     10 C6         -3.5702   -2.4602   -1.3837 C.ar      1 <0>        -0.0712
     11 C7         -4.8634   -2.9439   -1.3379 C.ar      1 <0>        -0.1513
     12 C8         -5.9276   -2.0638   -1.2056 C.ar      1 <0>         0.1329
     13 C9         -5.6900   -0.6997   -1.1196 C.ar      1 <0>        -0.2107
     14 C10        -4.3946   -0.2214   -1.1606 C.ar      1 <0>        -0.0536
     15 O2         -7.2007   -2.5372   -1.1608 O.3       1 <0>        -0.3090
     16 C11        -8.2467   -1.5733   -1.0234 C.3       1 <0>         0.1022
     17 C12        -9.5784   -2.2782   -0.9920 C.ar      1 <0>        -0.0987
     18 C13       -10.2614   -2.5179   -2.1697 C.ar      1 <0>        -0.0954
     19 C14       -11.4828   -3.1644   -2.1410 C.ar      1 <0>        -0.1233
     20 C15       -12.0211   -3.5717   -0.9347 C.ar      1 <0>        -0.1090
     21 C16       -11.3377   -3.3328    0.2429 C.ar      1 <0>        -0.1230
     22 C17       -10.1142   -2.6900    0.2138 C.ar      1 <0>        -0.0951
     23 H2          1.0039    1.9031    0.0027 H         1 <0>         0.0614
     24 H3         -0.5459    1.8868   -0.8726 H         1 <0>         0.0686
     25 H4         -0.5289    1.8773    0.9072 H         1 <0>         0.0694
     26 H5          2.4764    0.4061    0.7859 H         1 <0>         0.4023
     27 H6          2.4879   -0.4826    2.2116 H         1 <0>         0.4042
     28 H7         -1.4257   -1.4134    0.4641 H         1 <0>         0.3579
     29 H8         -1.9233    0.4226   -1.7874 H         1 <0>         0.0822
     30 H9         -1.3112   -1.2401   -1.9573 H         1 <0>         0.0400
     31 H10        -2.7414   -3.1449   -1.4867 H         1 <0>         0.1261
     32 H11        -5.0458   -4.0063   -1.4054 H         1 <0>         0.1306
     33 H12        -6.5168   -0.0126   -1.0166 H         1 <0>         0.1279
     34 H13        -4.2089    0.8401   -1.0893 H         1 <0>         0.1263
     35 H14        -8.1084   -1.0166   -0.0965 H         1 <0>         0.0722
     36 H15        -8.2198   -0.8849   -1.8681 H         1 <0>         0.0718
     37 H16        -9.8408   -2.1997   -3.1122 H         1 <0>         0.1241
     38 H17       -12.0168   -3.3511   -3.0611 H         1 <0>         0.1259
     39 H18       -12.9758   -4.0762   -0.9122 H         1 <0>         0.1250
     40 H19       -11.7584   -3.6506    1.1855 H         1 <0>         0.1261
     41 H20        -9.5785   -2.5067    1.1335 H         1 <0>         0.1245
@<TRIPOS>BOND
     1    1    2 1
     2    1   23 1
     3    1   24 1
     4    1   25 1
     5    2    3 1
     6    2    4 1
     7    2    7 1
     8    4    5 2
     9    4    6 am
    10    6   26 1
    11    6   27 1
    12    7    8 1
    13    7   28 1
    14    8    9 1
    15    8   29 1
    16    8   30 1
    17    9   14 ar
    18    9   10 ar
    19   10   11 ar
    20   10   31 1
    21   11   12 ar
    22   11   32 1
    23   12   13 ar
    24   12   15 1
    25   13   14 ar
    26   13   33 1
    27   14   34 1
    28   15   16 1
    29   16   17 1
    30   16   35 1
    31   16   36 1
    32   17   22 ar
    33   17   18 ar
    34   18   19 ar
    35   18   37 1
    36   19   20 ar
    37   19   38 1
    38   20   21 ar
    39   20   39 1
    40   21   22 ar
    41   21   40 1
    42   22   41 1
@<TRIPOS>MOLECULE
ZINC06881817
   24    25     0     0     0
SMALL
USER_CHARGES
3-[5-(4-chlorophenyl)tetrazol-2-yl]propanenitrile
@<TRIPOS>ATOM
      1 C1         -0.1873   -2.3176    4.9455 C.ar      1 <0>        -0.0675
      2 C2         -0.0966   -3.3533    5.8531 C.ar      1 <0>        -0.1126
      3 C3          0.8359   -3.3014    6.8750 C.ar      1 <0>        -0.0174
      4 C4          1.6849   -2.2139    6.9886 C.ar      1 <0>        -0.1114
      5 C5          1.6050   -1.1757    6.0830 C.ar      1 <0>        -0.0636
      6 C6          0.6683   -1.2234    5.0529 C.ar      1 <0>        -0.0132
      7 C7          0.5779   -0.1089    4.0764 C.2       1 <0>         0.2136
      8 N1          1.3265    1.0029    4.0589 N.2       1 <0>        -0.2670
      9 N2          0.9341    1.7130    3.0562 N.2       1 <0>        -0.0483
     10 N3         -0.0203    1.0939    2.4537 N.pl3     1 <0>        -0.1406
     11 N4         -0.2584   -0.0171    3.0616 N.2       1 <0>        -0.2938
     12 C8         -0.7288    1.5792    1.2668 C.3       1 <0>         0.1341
     13 C9         -0.0127    1.0858    0.0080 C.3       1 <0>        -0.0380
     14 C10        -0.7246    1.5734   -1.1845 C.1       1 <0>         0.2024
     15 N5         -1.2741    1.9498   -2.1049 N.1       1 <0>        -0.4025
     16 Cl1         0.9411   -4.6044    8.0173 Cl        1 <0>        -0.0602
     17 H1         -0.9178   -2.3571    4.1510 H         1 <0>         0.1432
     18 H2         -0.7566   -4.2039    5.7682 H         1 <0>         0.1424
     19 H3          2.4108   -2.1778    7.7875 H         1 <0>         0.1434
     20 H4          2.2673   -0.3274    6.1728 H         1 <0>         0.1466
     21 H5         -0.7436    2.6691    1.2728 H         1 <0>         0.1316
     22 H6         -1.7514    1.2020    1.2746 H         1 <0>         0.1294
     23 H7          0.0021   -0.0041    0.0020 H         1 <0>         0.1244
     24 H8          1.0099    1.4631    0.0003 H         1 <0>         0.1251
@<TRIPOS>BOND
     1    1    6 ar
     2    1    2 ar
     3    1   17 1
     4    2    3 ar
     5    2   18 1
     6    3    4 ar
     7    3   16 1
     8    4    5 ar
     9    4   19 1
    10    5    6 ar
    11    5   20 1
    12    6    7 1
    13    7   11 2
    14    7    8 1
    15    8    9 2
    16    9   10 1
    17   10   11 1
    18   10   12 1
    19   12   13 1
    20   12   21 1
    21   12   22 1
    22   13   14 1
    23   13   23 1
    24   13   24 1
    25   14   15 3
@<TRIPOS>MOLECULE
ZINC28651409
   37    37     0     0     0
SMALL
USER_CHARGES
(2S)-1-(4-butylsulfanylphenyl)propan-2-amine
@<TRIPOS>ATOM
      1 C1         -5.3872    1.9595    8.9552 C.3       1 <0>        -0.1577
      2 C2         -4.7755    1.5004    7.6301 C.3       1 <0>        -0.1180
      3 C3         -5.0851    2.5300    6.5416 C.3       1 <0>        -0.1094
      4 C4         -4.4733    2.0709    5.2164 C.3       1 <0>        -0.1108
      5 S1         -4.8404    3.2917    3.9259 S.3       1 <0>        -0.0948
      6 C5         -4.0793    2.6277    2.4821 C.ar      1 <0>        -0.0685
      7 C6         -4.1588    3.3123    1.2753 C.ar      1 <0>        -0.0913
      8 C7         -3.5615    2.7886    0.1458 C.ar      1 <0>        -0.0826
      9 C8         -2.8848    1.5844    0.2145 C.ar      1 <0>        -0.1373
     10 C9         -2.8085    0.8975    1.4125 C.ar      1 <0>        -0.1173
     11 C10        -3.3985    1.4179    2.5474 C.ar      1 <0>        -0.1293
     12 C11        -2.2343    1.0162   -1.0204 C.3       1 <0>        -0.0984
     13 C12        -0.7955    1.5269   -1.1198 C.3       1 <0>         0.0439
     14 H1         -0.7701    2.6247   -1.0551 H         1 <0>         0.1346
     15 C13        -0.1755    1.0519   -2.4354 C.3       1 <0>        -0.1853
     16 N1         -0.0116    1.0048    0.0076 N.4       1 <0>        -0.6893
     17 H2         -5.1646    1.2192    9.7378 H         1 <0>         0.0605
     18 H3         -6.4770    2.0567    8.8418 H         1 <0>         0.0582
     19 H4         -4.9598    2.9326    9.2387 H         1 <0>         0.0576
     20 H5         -3.6857    1.4032    7.7435 H         1 <0>         0.0642
     21 H6         -5.2029    0.5273    7.3466 H         1 <0>         0.0653
     22 H7         -6.1749    2.6272    6.4282 H         1 <0>         0.0777
     23 H8         -4.6578    3.5031    6.8251 H         1 <0>         0.0770
     24 H9         -3.3835    1.9737    5.3299 H         1 <0>         0.0897
     25 H10        -4.9007    1.0978    4.9328 H         1 <0>         0.0912
     26 H11        -4.6867    4.2528    1.2210 H         1 <0>         0.1367
     27 H12        -3.6225    3.3202   -0.7923 H         1 <0>         0.1343
     28 H13        -2.2830   -0.0447    1.4615 H         1 <0>         0.1249
     29 H14        -3.3348    0.8831    3.4835 H         1 <0>         0.1304
     30 H15        -2.2302   -0.0822   -0.9603 H         1 <0>         0.0970
     31 H16        -2.7980    1.3326   -1.9104 H         1 <0>         0.1180
     32 H17         0.8589    1.4191   -2.5069 H         1 <0>         0.0826
     33 H18        -0.7625    1.4428   -3.2796 H         1 <0>         0.1052
     34 H19        -0.1772   -0.0477   -2.4656 H         1 <0>         0.0822
     35 H20         1.0228    1.3720   -0.0639 H         1 <0>         0.4565
     36 H21        -0.0133   -0.0948   -0.0227 H         1 <0>         0.4498
     37 H22        -0.4574    1.3463    0.9535 H         1 <0>         0.4524
@<TRIPOS>BOND
     1    1    2 1
     2    1   17 1
     3    1   18 1
     4    1   19 1
     5    2    3 1
     6    2   20 1
     7    2   21 1
     8    3    4 1
     9    3   22 1
    10    3   23 1
    11    4    5 1
    12    4   24 1
    13    4   25 1
    14    5    6 1
    15    6   11 ar
    16    6    7 ar
    17    7    8 ar
    18    7   26 1
    19    8    9 ar
    20    8   27 1
    21    9   10 ar
    22    9   12 1
    23   10   11 ar
    24   10   28 1
    25   11   29 1
    26   12   13 1
    27   12   30 1
    28   12   31 1
    29   13   14 1
    30   13   15 1
    31   13   16 1
    32   15   32 1
    33   15   33 1
    34   15   34 1
    35   16   35 1
    36   16   36 1
    37   16   37 1
@<TRIPOS>MOLECULE
ZINC53084692
   41    42     0     0     0
SMALL
USER_CHARGES

@<TRIPOS>ATOM
      1 C1         -0.0187    1.5258    0.0104 C.3       1 <0>        -0.1381
      2 C2          0.0021   -0.0041    0.0020 C.3       1 <0>         0.0640
      3 H1          0.5123   -0.3556   -0.8948 H         1 <0>         0.0725
      4 C3          0.7309   -0.5033    1.2229 C.2       1 <0>         0.5158
      5 O1          0.1587   -1.2128    2.0229 O.2       1 <0>        -0.5326
      6 N1          2.0187   -0.1613    1.4257 N.am      1 <0>        -0.8529
      7 N2         -1.3761   -0.5125    0.0124 N.3       1 <0>        -0.6692
      8 C4         -1.9244   -0.5753   -1.3489 C.3       1 <0>         0.1032
      9 C5         -3.3361   -1.1002   -1.2982 C.ar      1 <0>        -0.1230
     10 C6         -3.5702   -2.4602   -1.3837 C.ar      1 <0>        -0.0712
     11 C7         -4.8634   -2.9439   -1.3379 C.ar      1 <0>        -0.1501
     12 C8         -5.9276   -2.0638   -1.2056 C.ar      1 <0>         0.1320
     13 C9         -5.6900   -0.6997   -1.1196 C.ar      1 <0>        -0.2101
     14 C10        -4.3946   -0.2214   -1.1606 C.ar      1 <0>        -0.0536
     15 O2         -7.2007   -2.5372   -1.1608 O.3       1 <0>        -0.3085
     16 C11        -8.2467   -1.5733   -1.0234 C.3       1 <0>         0.1013
     17 C12        -9.5784   -2.2782   -0.9920 C.ar      1 <0>        -0.0687
     18 C13       -10.2613   -2.5178   -2.1702 C.ar      1 <0>        -0.1055
     19 C14       -11.4828   -3.1642   -2.1430 C.ar      1 <0>        -0.0922
     20 C15       -12.0231   -3.5714   -0.9378 C.ar      1 <0>        -0.1431
     21 C16       -11.3403   -3.3320    0.2425 C.ar      1 <0>         0.0970
     22 C17       -10.1137   -2.6897    0.2135 C.ar      1 <0>        -0.1299
     23 F1        -11.8677   -3.7291    1.4211 F         1 <0>        -0.1365
     24 H2          1.0039    1.9031    0.0027 H         1 <0>         0.0615
     25 H3         -0.5459    1.8868   -0.8726 H         1 <0>         0.0686
     26 H4         -0.5289    1.8773    0.9072 H         1 <0>         0.0695
     27 H5          2.4764    0.4061    0.7859 H         1 <0>         0.4024
     28 H6          2.4879   -0.4826    2.2116 H         1 <0>         0.4043
     29 H7         -1.4257   -1.4134    0.4641 H         1 <0>         0.3579
     30 H8         -1.9233    0.4226   -1.7874 H         1 <0>         0.0824
     31 H9         -1.3112   -1.2401   -1.9573 H         1 <0>         0.0402
     32 H10        -2.7414   -3.1449   -1.4867 H         1 <0>         0.1265
     33 H11        -5.0458   -4.0063   -1.4054 H         1 <0>         0.1310
     34 H12        -6.5168   -0.0126   -1.0166 H         1 <0>         0.1283
     35 H13        -4.2089    0.8401   -1.0893 H         1 <0>         0.1267
     36 H14        -8.1084   -1.0166   -0.0965 H         1 <0>         0.0755
     37 H15        -8.2198   -0.8849   -1.8681 H         1 <0>         0.0771
     38 H16        -9.8402   -2.1994   -3.1123 H         1 <0>         0.1328
     39 H17       -12.0153   -3.3508   -3.0639 H         1 <0>         0.1378
     40 H18       -12.9779   -4.0758   -0.9167 H         1 <0>         0.1388
     41 H19        -9.5781   -2.5064    1.1331 H         1 <0>         0.1382
@<TRIPOS>BOND
     1    1    2 1
     2    1   24 1
     3    1   25 1
     4    1   26 1
     5    2    3 1
     6    2    4 1
     7    2    7 1
     8    4    5 2
     9    4    6 am
    10    6   27 1
    11    6   28 1
    12    7    8 1
    13    7   29 1
    14    8    9 1
    15    8   30 1
    16    8   31 1
    17    9   14 ar
    18    9   10 ar
    19   10   11 ar
    20   10   32 1
    21   11   12 ar
    22   11   33 1
    23   12   13 ar
    24   12   15 1
    25   13   14 ar
    26   13   34 1
    27   14   35 1
    28   15   16 1
    29   16   17 1
    30   16   36 1
    31   16   37 1
    32   17   22 ar
    33   17   18 ar
    34   18   19 ar
    35   18   38 1
    36   19   20 ar
    37   19   39 1
    38   20   21 ar
    39   20   40 1
    40   21   22 ar
    41   21   23 1
    42   22   41 1
@<TRIPOS>MOLECULE
ZINC00056256
   29    32     0     0     0
SMALL
USER_CHARGES
phenylBLAHone
@<TRIPOS>ATOM
      1 C1          0.0021   -0.0041    0.0020 C.ar      1 <0>        -0.0845
      2 C2         -0.0167    1.3794    0.0096 C.ar      1 <0>        -0.1311
      3 C3          1.1670    2.0882    0.0021 C.ar      1 <0>        -0.0609
      4 C4          2.3844    1.4072   -0.0136 C.ar      1 <0>        -0.0655
      5 C5          2.3966    0.0122   -0.0212 C.ar      1 <0>        -0.0604
      6 C6          1.2062   -0.6853   -0.0131 C.ar      1 <0>        -0.1293
      7 C7          3.6586    2.1621   -0.0221 C.ar      1 <0>         0.3371
      8 N1          3.6310    3.4929   -0.0147 N.ar      1 <0>        -0.4562
      9 C8          4.7744    4.1643   -0.0225 C.ar      1 <0>         0.2314
     10 C9          5.9826    3.4387   -0.0383 C.ar      1 <0>        -0.0760
     11 N2          5.9433    2.1137   -0.0444 N.ar      1 <0>        -0.1108
     12 N3          4.8113    1.4990   -0.0317 N.ar      1 <0>        -0.2735
     13 C10         7.0956    4.4165   -0.0439 C.2       1 <0>         0.4704
     14 O1          8.2820    4.1591   -0.0563 O.2       1 <0>        -0.3783
     15 C11         6.4871    5.7693   -0.0307 C.ar      1 <0>        -0.1427
     16 C12         5.0904    5.6144   -0.0179 C.ar      1 <0>        -0.0400
     17 C13         4.2788    6.7403   -0.0040 C.ar      1 <0>        -0.0605
     18 C14         4.8462    8.0056   -0.0028 C.ar      1 <0>        -0.0878
     19 C15         6.2187    8.1565   -0.0154 C.ar      1 <0>        -0.0972
     20 C16         7.0430    7.0425   -0.0298 C.ar      1 <0>        -0.0417
     21 H1         -0.9271   -0.5545    0.0083 H         1 <0>         0.1306
     22 H2         -0.9599    1.9055    0.0169 H         1 <0>         0.1329
     23 H3          1.1510    3.1681    0.0077 H         1 <0>         0.1384
     24 H4          3.3360   -0.5206   -0.0337 H         1 <0>         0.1411
     25 H5          1.2144   -1.7652   -0.0190 H         1 <0>         0.1341
     26 H6          3.2045    6.6308    0.0063 H         1 <0>         0.1438
     27 H7          4.2105    8.8786    0.0084 H         1 <0>         0.1447
     28 H8          6.6513    9.1461   -0.0143 H         1 <0>         0.1458
     29 H9          8.1161    7.1640   -0.0393 H         1 <0>         0.1462
@<TRIPOS>BOND
     1    1    6 ar
     2    1    2 ar
     3    1   21 1
     4    2    3 ar
     5    2   22 1
     6    3    4 ar
     7    3   23 1
     8    4    5 ar
     9    4    7 1
    10    5    6 ar
    11    5   24 1
    12    6   25 1
    13    7   12 ar
    14    7    8 ar
    15    8    9 ar
    16    9   16 1
    17    9   10 ar
    18   10   11 ar
    19   10   13 1
    20   11   12 ar
    21   13   14 2
    22   13   15 1
    23   15   20 ar
    24   15   16 ar
    25   16   17 ar
    26   17   18 ar
    27   17   26 1
    28   18   19 ar
    29   18   27 1
    30   19   20 ar
    31   19   28 1
    32   20   29 1
@<TRIPOS>MOLECULE
ZINC02567727
   25    27     0     0     0
SMALL
USER_CHARGES

@<TRIPOS>ATOM
      1 C1         -0.0165    1.3621    0.0095 C.ar      1 <0>        -0.1271
      2 C2          1.1708    2.0817    0.0021 C.ar      1 <0>        -0.0509
      3 C3          2.3869    1.4339   -0.0135 C.ar      1 <0>        -0.1154
      4 C4          2.4308    0.0444   -0.0214 C.ar      1 <0>         0.0966
      5 C5          1.2245   -0.6798   -0.0133 C.ar      1 <0>        -0.1594
      6 C6          0.0021   -0.0041    0.0020 C.ar      1 <0>        -0.0464
      7 C7          1.6095   -2.0910   -0.0252 C.2       1 <0>        -0.0550
      8 C8          2.9664   -2.1104   -0.0390 C.2       1 <0>        -0.0509
      9 O1          3.4406   -0.8473   -0.0367 O.3       1 <0>        -0.1756
     10 C9          3.7956   -3.3261   -0.0543 C.cat     1 <0>         0.6037
     11 N1          3.4054   -4.4675    0.4958 N.pl3     1 <0>        -0.6279
     12 C10         4.4562   -5.4800    0.3082 C.3       1 <0>         0.0644
     13 C11         5.5545   -4.7211   -0.4633 C.3       1 <0>         0.0589
     14 N2          4.9919   -3.3713   -0.6242 N.pl3     1 <0>        -0.6267
     15 H1         -0.9609    1.8856    0.0259 H         1 <0>         0.1453
     16 H2          1.1408    3.1613    0.0082 H         1 <0>         0.1512
     17 H3          3.3039    2.0044   -0.0199 H         1 <0>         0.1456
     18 H4         -0.9244   -0.5591    0.0075 H         1 <0>         0.1418
     19 H5          0.9479   -2.9446   -0.0230 H         1 <0>         0.1798
     20 H6          4.8325   -5.8255    1.2710 H         1 <0>         0.1316
     21 H7          4.0817   -6.3169   -0.2813 H         1 <0>         0.1309
     22 H8          6.4775   -4.6888    0.1156 H         1 <0>         0.1306
     23 H9          5.7268   -5.1803   -1.4368 H         1 <0>         0.1310
     24 H10         5.4281   -2.6309   -1.0741 H         1 <0>         0.4630
     25 H11         2.5609   -4.6121    0.9504 H         1 <0>         0.4610
@<TRIPOS>BOND
     1    1    6 ar
     2    1    2 ar
     3    1   15 1
     4    2    3 ar
     5    2   16 1
     6    3    4 ar
     7    3   17 1
     8    4    9 1
     9    4    5 ar
    10    5    6 ar
    11    5    7 1
    12    6   18 1
    13    7    8 2
    14    7   19 1
    15    8    9 1
    16    8   10 1
    17   10   14 1
    18   10   11 2
    19   11   12 1
    20   11   25 1
    21   12   13 1
    22   12   20 1
    23   12   21 1
    24   13   14 1
    25   13   22 1
    26   13   23 1
    27   14   24 1
