@<TRIPOS>MOLECULE
ZINC01811469
   46    49     0     0     0
SMALL
USER_CHARGES

@<TRIPOS>ATOM
      1 C1         -0.0695    1.1390    0.1139 C.ar      1 <0>        -0.1313
      2 C2          1.0878    1.8935    0.0667 C.ar      1 <0>        -0.1160
      3 C3          2.3201    1.2678    0.0373 C.ar      1 <0>        -0.1210
      4 C4          2.3951   -0.1124    0.0555 C.ar      1 <0>        -0.0701
      5 C5          1.2378   -0.8669    0.1035 C.ar      1 <0>        -0.1135
      6 C6          0.0055   -0.2412    0.1315 C.ar      1 <0>        -0.1184
      7 C7          3.7385   -0.7945    0.0224 C.3       1 <0>        -0.0972
      8 C8          4.2395   -1.0039    1.4528 C.3       1 <0>         0.0536
      9 H1          3.4889   -1.5496    2.0245 H         1 <0>         0.1094
     10 C9          5.5224   -1.7941    1.4250 C.2       1 <0>         0.5027
     11 O1          6.5767   -1.2553    1.7161 O.co2     1 <0>        -0.6548
     12 O2          5.5061   -2.9722    1.1115 O.co2     1 <0>        -0.6812
     13 N1          4.4810    0.2974    2.0810 N.am      1 <0>        -0.4866
     14 C10         3.8148    0.6178    3.1777 C.2       1 <0>         0.5482
     15 O3          3.0066   -0.1376    3.6810 O.2       1 <0>        -0.4561
     16 C11         4.1101    1.9546    3.7617 C.2       1 <0>        -0.1396
     17 C12         3.5834    2.5610    4.8856 C.2       1 <0>         0.0236
     18 C13         2.4623    2.0851    5.7225 C.ar      1 <0>        -0.1419
     19 C14         1.6357    0.9661    5.6628 C.ar      1 <0>        -0.0374
     20 C15         0.6502    0.7923    6.6130 C.ar      1 <0>        -0.1696
     21 C16         0.4846    1.7277    7.6210 C.ar      1 <0>        -0.0619
     22 C17         1.2988    2.8406    7.6893 C.ar      1 <0>        -0.1512
     23 C18         2.2977    3.0339    6.7421 C.ar      1 <0>         0.2007
     24 N2          3.2363    4.0470    6.5824 N.am      1 <0>        -0.5122
     25 C19         4.0225    3.8228    5.5157 C.2       1 <0>         0.5587
     26 O4          4.9324    4.5348    5.1344 O.2       1 <0>        -0.4727
     27 C20         3.3575    5.2075    7.4682 C.3       1 <0>         0.0410
     28 C21         4.3134    4.8869    8.5882 C.2       1 <0>         0.4838
     29 O5          4.8443    3.7907    8.6416 O.co2     1 <0>        -0.6735
     30 O6          4.5559    5.7239    9.4410 O.co2     1 <0>        -0.6958
     31 S1          5.3352    2.5587    2.6085 S.3       1 <0>         0.0650
     32 C22         5.3806    1.1365    1.5302 C.2       1 <0>         0.2805
     33 S2          6.3363    0.8968    0.1301 S.2       1 <0>        -0.2761
     34 H2         -1.0321    1.6279    0.1414 H         1 <0>         0.1159
     35 H3          1.0293    2.9718    0.0525 H         1 <0>         0.1180
     36 H4          3.2243    1.8573   -0.0003 H         1 <0>         0.1131
     37 H5          1.2963   -1.9452    0.1174 H         1 <0>         0.1224
     38 H6         -0.8987   -0.8307    0.1687 H         1 <0>         0.1173
     39 H7          3.6435   -1.7601   -0.4743 H         1 <0>         0.0967
     40 H8          4.4481   -0.1732   -0.5239 H         1 <0>         0.1069
     41 H9          1.7651    0.2377    4.8760 H         1 <0>         0.1637
     42 H10         0.0069   -0.0742    6.5703 H         1 <0>         0.1260
     43 H11        -0.2893    1.5852    8.3608 H         1 <0>         0.1269
     44 H12         1.1591    3.5627    8.4802 H         1 <0>         0.1272
     45 H13         3.7340    6.0592    6.9017 H         1 <0>         0.0910
     46 H14         2.3796    5.4512    7.8836 H         1 <0>         0.0860
@<TRIPOS>BOND
     1    1    6 ar
     2    1    2 ar
     3    1   34 1
     4    2    3 ar
     5    2   35 1
     6    3    4 ar
     7    3   36 1
     8    4    5 ar
     9    4    7 1
    10    5    6 ar
    11    5   37 1
    12    6   38 1
    13    7    8 1
    14    7   39 1
    15    7   40 1
    16    8    9 1
    17    8   10 1
    18    8   13 1
    19   10   11 2
    20   10   12 1
    21   13   32 1
    22   13   14 am
    23   14   15 2
    24   14   16 1
    25   16   17 2
    26   16   31 1
    27   17   25 1
    28   17   18 1
    29   18   23 ar
    30   18   19 ar
    31   19   20 ar
    32   19   41 1
    33   20   21 ar
    34   20   42 1
    35   21   22 ar
    36   21   43 1
    37   22   23 ar
    38   22   44 1
    39   23   24 1
    40   24   25 am
    41   24   27 1
    42   25   26 2
    43   27   28 1
    44   27   45 1
    45   27   46 1
    46   28   29 2
    47   28   30 1
    48   31   32 1
    49   32   33 2
@<TRIPOS>MOLECULE
ZINC01811473
   46    49     0     0     0
SMALL
USER_CHARGES

@<TRIPOS>ATOM
      1 C1         -0.1858    1.1977   -0.0892 C.ar      1 <0>        -0.1292
      2 C2          0.9722    1.9519   -0.1236 C.ar      1 <0>        -0.1187
      3 C3          2.2048    1.3262   -0.1259 C.ar      1 <0>        -0.1150
      4 C4          2.2794   -0.0538   -0.0934 C.ar      1 <0>        -0.0723
      5 C5          1.1215   -0.8080   -0.0580 C.ar      1 <0>        -0.1199
      6 C6         -0.1112   -0.1823   -0.0571 C.ar      1 <0>        -0.1139
      7 C7          3.6232   -0.7360   -0.0969 C.3       1 <0>        -0.0984
      8 C8          4.0996   -0.9317    1.3438 C.3       1 <0>         0.0572
      9 H1          4.1010    0.0285    1.8596 H         1 <0>         0.1080
     10 C9          5.4948   -1.5012    1.3385 C.2       1 <0>         0.4979
     11 O1          6.4582   -0.7540    1.3372 O.co2     1 <0>        -0.6795
     12 O2          5.6602   -2.7091    1.3356 O.co2     1 <0>        -0.6409
     13 N1          3.1975   -1.8561    2.0352 N.am      1 <0>        -0.4892
     14 C10         2.5468   -1.4402    3.1089 C.2       1 <0>         0.5436
     15 O3          2.6753   -0.3111    3.5396 O.2       1 <0>        -0.4620
     16 C11         1.6479   -2.4318    3.7603 C.2       1 <0>        -0.1317
     17 C12         0.8489   -2.2953    4.8789 C.2       1 <0>         0.0137
     18 C13         0.7998   -1.1530    5.8152 C.ar      1 <0>        -0.1386
     19 C14         1.4821    0.0592    5.8772 C.ar      1 <0>        -0.0396
     20 C15         1.2110    0.9452    6.8999 C.ar      1 <0>        -0.1692
     21 C16         0.2643    0.6287    7.8603 C.ar      1 <0>        -0.0642
     22 C17        -0.4178   -0.5705    7.8080 C.ar      1 <0>        -0.1512
     23 C18        -0.1596   -1.4764    6.7856 C.ar      1 <0>         0.1984
     24 N2         -0.6930   -2.7291    6.5043 N.am      1 <0>        -0.5123
     25 C19        -0.1466   -3.2565    5.3955 C.2       1 <0>         0.5597
     26 O4         -0.4207   -4.3361    4.9060 O.2       1 <0>        -0.4762
     27 C20        -1.7244   -3.3873    7.3100 C.3       1 <0>         0.0411
     28 C21        -3.0869   -3.0050    6.7916 C.2       1 <0>         0.4846
     29 O5         -3.1870   -2.2525    5.8376 O.co2     1 <0>        -0.6748
     30 O6         -4.0890   -3.4482    7.3262 O.co2     1 <0>        -0.6961
     31 S1          1.8864   -3.8478    2.6954 S.3       1 <0>         0.0546
     32 C22         3.0468   -3.1077    1.5582 C.2       1 <0>         0.2294
     33 S2          3.7918   -3.8185    0.1904 S.2       1 <0>        -0.2010
     34 H2         -1.1487    1.6867   -0.0828 H         1 <0>         0.1170
     35 H3          0.9139    3.0300   -0.1490 H         1 <0>         0.1170
     36 H4          3.1095    1.9154   -0.1535 H         1 <0>         0.1210
     37 H5          1.1798   -1.8861   -0.0330 H         1 <0>         0.1128
     38 H6         -1.0158   -0.7715   -0.0299 H         1 <0>         0.1199
     39 H7          3.5367   -1.7063   -0.5860 H         1 <0>         0.1083
     40 H8          4.3421   -0.1197   -0.6368 H         1 <0>         0.0909
     41 H9          2.2206    0.3048    5.1284 H         1 <0>         0.1642
     42 H10         1.7379    1.8865    6.9518 H         1 <0>         0.1256
     43 H11         0.0580    1.3267    8.6581 H         1 <0>         0.1262
     44 H12        -1.1533   -0.8055    8.5631 H         1 <0>         0.1263
     45 H13        -1.6012   -4.4684    7.2452 H         1 <0>         0.0907
     46 H14        -1.6296   -3.0725    8.3492 H         1 <0>         0.0856
@<TRIPOS>BOND
     1    1    6 ar
     2    1    2 ar
     3    1   34 1
     4    2    3 ar
     5    2   35 1
     6    3    4 ar
     7    3   36 1
     8    4    5 ar
     9    4    7 1
    10    5    6 ar
    11    5   37 1
    12    6   38 1
    13    7    8 1
    14    7   39 1
    15    7   40 1
    16    8    9 1
    17    8   10 1
    18    8   13 1
    19   10   11 2
    20   10   12 1
    21   13   32 1
    22   13   14 am
    23   14   15 2
    24   14   16 1
    25   16   17 2
    26   16   31 1
    27   17   25 1
    28   17   18 1
    29   18   23 ar
    30   18   19 ar
    31   19   20 ar
    32   19   41 1
    33   20   21 ar
    34   20   42 1
    35   21   22 ar
    36   21   43 1
    37   22   23 ar
    38   22   44 1
    39   23   24 1
    40   24   25 am
    41   24   27 1
    42   25   26 2
    43   27   28 1
    44   27   45 1
    45   27   46 1
    46   28   29 2
    47   28   30 1
    48   31   32 1
    49   32   33 2
@<TRIPOS>MOLECULE
ZINC03142780
   56    61     0     0     0
SMALL
USER_CHARGES

@<TRIPOS>ATOM
      1 C1          2.8242   -0.9069   -6.4684 C.ar      1 <0>        -0.1232
      2 C2          2.4939   -1.9858   -5.6635 C.ar      1 <0>        -0.1216
      3 C3          3.1891   -2.2254   -4.4954 C.ar      1 <0>        -0.1149
      4 C4          4.2268   -1.3842   -4.1182 C.ar      1 <0>         0.1406
      5 C5          4.5648   -0.2905   -4.9308 C.ar      1 <0>        -0.1118
      6 C6          3.8511   -0.0611   -6.1114 C.ar      1 <0>        -0.0807
      7 C7          5.6627    0.6095   -4.5424 C.2       1 <0>         0.5219
      8 O1          5.9540    1.5614   -5.2534 O.co2     1 <0>        -0.6806
      9 O2          6.2840    0.4056   -3.5084 O.co2     1 <0>        -0.6774
     10 N1          4.9296   -1.6241   -2.9380 N.am      1 <0>        -0.4980
     11 C8          4.5916   -1.1234   -1.7362 C.2       1 <0>         0.5932
     12 O3          3.6410   -0.4026   -1.5104 O.2       1 <0>        -0.4692
     13 C9          5.5726   -1.5989   -0.7350 C.ar      1 <0>        -0.0851
     14 C10         5.7269   -1.4102    0.6297 C.ar      1 <0>        -0.0641
     15 C11         6.7819   -2.0107    1.2946 C.ar      1 <0>        -0.0394
     16 C12         7.6927   -2.8060    0.5972 C.ar      1 <0>        -0.1526
     17 C13         7.5440   -3.0013   -0.7801 C.ar      1 <0>        -0.0144
     18 C14         6.4892   -2.4017   -1.4458 C.ar      1 <0>        -0.1220
     19 C15         6.0311   -2.3911   -2.8511 C.2       1 <0>         0.5857
     20 O4          6.5620   -2.9756   -3.7737 O.2       1 <0>        -0.4438
     21 C16         8.8175   -3.4430    1.3156 C.2       1 <0>         0.4561
     22 O5          8.8709   -3.3913    2.5284 O.2       1 <0>        -0.4393
     23 C17         9.8773   -4.1428    0.5579 C.ar      1 <0>        -0.1455
     24 C18        10.4829   -5.2796    1.0957 C.ar      1 <0>        -0.0454
     25 C19        11.4752   -5.9408    0.3931 C.ar      1 <0>        -0.0594
     26 C20        11.8705   -5.4730   -0.8506 C.ar      1 <0>        -0.0904
     27 C21        11.2626   -4.3248   -1.3999 C.ar      1 <0>        -0.1197
     28 C22        10.2667   -3.6675   -0.6988 C.ar      1 <0>        -0.0195
     29 C23        11.9121   -4.1110   -2.7103 C.2       1 <0>         0.5880
     30 O6         11.6585   -3.2141   -3.4889 O.2       1 <0>        -0.4480
     31 N2         12.8313   -5.0752   -2.8965 N.am      1 <0>        -0.4982
     32 C24        12.8696   -5.9172   -1.8483 C.2       1 <0>         0.5937
     33 O7         13.6011   -6.8801   -1.7389 O.2       1 <0>        -0.4689
     34 C25        13.6383   -5.1874   -4.0281 C.ar      1 <0>         0.1402
     35 C26        14.8748   -4.5579   -4.0683 C.ar      1 <0>        -0.1153
     36 C27        15.6725   -4.6706   -5.1891 C.ar      1 <0>        -0.1225
     37 C28        15.2479   -5.4103   -6.2816 C.ar      1 <0>        -0.1232
     38 C29        14.0242   -6.0422   -6.2609 C.ar      1 <0>        -0.0806
     39 C30        13.2070   -5.9424   -5.1303 C.ar      1 <0>        -0.1108
     40 C31        11.9006   -6.6195   -5.0986 C.2       1 <0>         0.5210
     41 O8         11.5286   -7.2765   -6.0612 O.co2     1 <0>        -0.6797
     42 O9         11.1867   -6.5255   -4.1095 O.co2     1 <0>        -0.6763
     43 H1          2.2765   -0.7310   -7.3824 H         1 <0>         0.1213
     44 H2          1.6871   -2.6433   -5.9521 H         1 <0>         0.1229
     45 H3          2.9250   -3.0682   -3.8738 H         1 <0>         0.1202
     46 H4          4.1044    0.7782   -6.7421 H         1 <0>         0.1345
     47 H5          5.0251   -0.7952    1.1733 H         1 <0>         0.1479
     48 H6          6.9011   -1.8631    2.3578 H         1 <0>         0.1510
     49 H7          8.2484   -3.6161   -1.3207 H         1 <0>         0.1554
     50 H8         10.1761   -5.6447    2.0647 H         1 <0>         0.1482
     51 H9         11.9413   -6.8198    0.8133 H         1 <0>         0.1479
     52 H10         9.7959   -2.7904   -1.1177 H         1 <0>         0.1540
     53 H11        15.2130   -3.9790   -3.2216 H         1 <0>         0.1198
     54 H12        16.6337   -4.1788   -5.2151 H         1 <0>         0.1225
     55 H13        15.8796   -5.4913   -7.1538 H         1 <0>         0.1212
     56 H14        13.6980   -6.6174   -7.1148 H         1 <0>         0.1347
@<TRIPOS>BOND
     1    1    6 ar
     2    1    2 ar
     3    1   43 1
     4    2    3 ar
     5    2   44 1
     6    3    4 ar
     7    3   45 1
     8    4    5 ar
     9    4   10 1
    10    5    6 ar
    11    5    7 1
    12    6   46 1
    13    7    8 2
    14    7    9 1
    15   10   19 am
    16   10   11 am
    17   11   12 2
    18   11   13 1
    19   13   18 ar
    20   13   14 ar
    21   14   15 ar
    22   14   47 1
    23   15   16 ar
    24   15   48 1
    25   16   17 ar
    26   16   21 1
    27   17   18 ar
    28   17   49 1
    29   18   19 1
    30   19   20 2
    31   21   22 2
    32   21   23 1
    33   23   28 ar
    34   23   24 ar
    35   24   25 ar
    36   24   50 1
    37   25   26 ar
    38   25   51 1
    39   26   32 1
    40   26   27 ar
    41   27   28 ar
    42   27   29 1
    43   28   52 1
    44   29   30 2
    45   29   31 am
    46   31   32 am
    47   31   34 1
    48   32   33 2
    49   34   39 ar
    50   34   35 ar
    51   35   36 ar
    52   35   53 1
    53   36   37 ar
    54   36   54 1
    55   37   38 ar
    56   37   55 1
    57   38   39 ar
    58   38   56 1
    59   39   40 1
    60   40   41 2
    61   40   42 1
@<TRIPOS>MOLECULE
ZINC01011313
   38    41     0     0     0
SMALL
USER_CHARGES
2-[3-[3-(4-bromophenyl)-4-oxo-2-thioxo-thiazolidin-5-ylidene]-2-oxo-indolin-1-yl]acetic acid
@<TRIPOS>ATOM
      1 C1         -0.6392    3.2139    2.3411 C.ar      1 <0>        -0.1684
      2 C2          0.6846    3.5178    2.6127 C.ar      1 <0>        -0.0449
      3 C3          1.6875    2.6130    2.3271 C.ar      1 <0>        -0.1481
      4 C4          1.3767    1.3821    1.7609 C.ar      1 <0>         0.2094
      5 C5          0.0354    1.0777    1.4868 C.ar      1 <0>        -0.1637
      6 C6         -0.9690    1.9955    1.7833 C.ar      1 <0>        -0.0288
      7 C7          0.0261   -0.2779    0.8986 C.2       1 <0>         0.0783
      8 C8         -1.0702   -1.0007    0.4691 C.2       1 <0>        -0.1925
      9 C9         -2.5206   -0.7058    0.6223 C.2       1 <0>         0.5498
     10 O1         -2.9155    0.2921    1.1930 O.2       1 <0>        -0.4334
     11 N1         -3.3564   -1.5872    0.0989 N.am      1 <0>        -0.4839
     12 C10        -2.9134   -2.6960   -0.5266 C.2       1 <0>         0.2587
     13 S1         -3.8337   -3.9434   -1.2532 S.2       1 <0>        -0.3207
     14 S2         -1.1373   -2.5519   -0.4168 S.3       1 <0>         0.1475
     15 C11        -4.7362   -1.3665    0.2033 C.ar      1 <0>         0.1152
     16 C12        -5.4353   -1.8423    1.3045 C.ar      1 <0>        -0.0780
     17 C13        -6.7942   -1.6184    1.4077 C.ar      1 <0>        -0.0786
     18 C14        -7.4610   -0.9301    0.4096 C.ar      1 <0>        -0.0719
     19 C15        -6.7678   -0.4602   -0.6918 C.ar      1 <0>        -0.0779
     20 C16        -5.4078   -0.6764   -0.7971 C.ar      1 <0>        -0.0774
     21 Br1        -9.3229   -0.6316    0.5508 Br        1 <0>        -0.0389
     22 C17         1.4435   -0.6921    0.8695 C.2       1 <0>         0.5526
     23 O2          1.8711   -1.7533    0.4555 O.2       1 <0>        -0.4586
     24 N2          2.1773    0.3106    1.3817 N.am      1 <0>        -0.5151
     25 C18         3.6352    0.2790    1.5217 C.3       1 <0>         0.0639
     26 C19         4.2720    0.8302    0.2721 C.2       1 <0>         0.4519
     27 O3          3.5791    1.2104   -0.6418 O.co2     1 <0>        -0.6211
     28 H1         -1.4147    3.9300    2.5695 H         1 <0>         0.1319
     29 H2          0.9347    4.4720    3.0526 H         1 <0>         0.1349
     30 H3          2.7158    2.8619    2.5444 H         1 <0>         0.1351
     31 H4         -2.0013    1.7559    1.5753 H         1 <0>         0.1608
     32 H5         -4.9161   -2.3832    2.0818 H         1 <0>         0.1375
     33 H6         -7.3378   -1.9848    2.2660 H         1 <0>         0.1449
     34 H7         -7.2906    0.0765   -1.4696 H         1 <0>         0.1453
     35 H8         -4.8671   -0.3088   -1.6567 H         1 <0>         0.1386
     36 H9          3.9312    0.8850    2.3780 H         1 <0>         0.0978
     37 H10         3.9634   -0.7493    1.6736 H         1 <0>         0.1019
     38 O4          5.6090    0.8987    0.1742 O.co2     1 <0>        -0.7543
@<TRIPOS>BOND
     1    1    6 ar
     2    1    2 ar
     3    1   28 1
     4    2    3 ar
     5    2   29 1
     6    3    4 ar
     7    3   30 1
     8    4   24 1
     9    4    5 ar
    10    5    6 ar
    11    5    7 1
    12    6   31 1
    13    7    8 2
    14    7   22 1
    15    8   14 1
    16    8    9 1
    17    9   10 2
    18    9   11 am
    19   11   12 1
    20   11   15 1
    21   12   13 2
    22   12   14 1
    23   15   20 ar
    24   15   16 ar
    25   16   17 ar
    26   16   32 1
    27   17   18 ar
    28   17   33 1
    29   18   19 ar
    30   18   21 1
    31   19   20 ar
    32   19   34 1
    33   20   35 1
    34   22   23 2
    35   22   24 am
    36   24   25 1
    37   25   26 1
    38   25   36 1
    39   25   37 1
    40   26   27 2
    41   26   38 1
@<TRIPOS>MOLECULE
ZINC02371739
   42    44     0     0     0
SMALL
USER_CHARGES

@<TRIPOS>ATOM
      1 C1          4.0009    5.4608   -1.2513 C.ar      1 <0>        -0.0680
      2 C2          3.9398    4.0862   -1.2267 C.ar      1 <0>        -0.1487
      3 C3          3.5665    3.4253   -0.0613 C.ar      1 <0>         0.0621
      4 C4          3.2538    4.1496    1.0841 C.ar      1 <0>        -0.1361
      5 C5          3.3125    5.5245    1.0688 C.ar      1 <0>        -0.0750
      6 C6          3.6871    6.1935   -0.1015 C.ar      1 <0>        -0.1307
      7 C7          3.7514    7.6643   -0.1228 C.2       1 <0>         0.5212
      8 O1          4.0796    8.2475   -1.1469 O.co2     1 <0>        -0.6822
      9 O2          3.4767    8.3032    0.8837 O.co2     1 <0>        -0.6911
     10 O3          3.5069    2.0703   -0.0418 O.3       1 <0>        -0.2534
     11 C8          4.6708    1.3787   -0.1575 C.ar      1 <0>         0.1733
     12 C9          4.6491   -0.0036   -0.2764 C.ar      1 <0>        -0.1722
     13 C10         5.8338   -0.7042   -0.3938 C.ar      1 <0>         0.0127
     14 C11         7.0406   -0.0293   -0.3924 C.ar      1 <0>        -0.6867
     15 C12         7.0651    1.3481   -0.2740 C.ar      1 <0>         0.0220
     16 C13         5.8830    2.0541   -0.1625 C.ar      1 <0>        -0.2119
     17 S1          8.5500   -0.9261   -0.5412 S.o2      1 <0>         2.5879
     18 O4          9.5636   -0.1136    0.0347 O.2       1 <0>        -0.9488
     19 O5          8.2839   -2.2468   -0.0893 O.2       1 <0>        -0.9579
     20 C14         8.9172   -1.0464   -2.2603 C.ar      1 <0>        -0.6663
     21 C15         8.4390   -2.1185   -2.9918 C.ar      1 <0>        -0.0650
     22 C16         8.7194   -2.2259   -4.3420 C.ar      1 <0>        -0.1153
     23 C17         9.4875   -1.2511   -4.9730 C.ar      1 <0>        -0.0660
     24 C18         9.9747   -0.1591   -4.2279 C.ar      1 <0>        -0.0945
     25 C19         9.6772   -0.0653   -2.8710 C.ar      1 <0>        -0.0310
     26 C20        10.7916    0.8830   -4.8836 C.2       1 <0>         0.5606
     27 O6         12.0118    0.8156   -4.8481 O.co2     1 <0>        -0.6958
     28 O7         10.2473    1.8127   -5.4618 O.co2     1 <0>        -0.6869
     29 C21         9.7903   -1.3614   -6.4150 C.2       1 <0>         0.5121
     30 O8          9.2856   -2.2553   -7.0790 O.co2     1 <0>        -0.7114
     31 O9         10.5457   -0.5587   -6.9442 O.co2     1 <0>        -0.6316
     32 H1          4.2948    5.9730   -2.1556 H         1 <0>         0.1368
     33 H2          4.1818    3.5197   -2.1138 H         1 <0>         0.1272
     34 H3          2.9641    3.6324    1.9868 H         1 <0>         0.1232
     35 H4          3.0692    6.0861    1.9586 H         1 <0>         0.1338
     36 H5          3.7068   -0.5313   -0.2769 H         1 <0>         0.1376
     37 H6          5.8175   -1.7801   -0.4864 H         1 <0>         0.1471
     38 H7          8.0090    1.8729   -0.2728 H         1 <0>         0.1471
     39 H8          5.9024    3.1303   -0.0746 H         1 <0>         0.1422
     40 H9          7.8431   -2.8768   -2.5055 H         1 <0>         0.1239
     41 H10         8.3428   -3.0660   -4.9066 H         1 <0>         0.1283
     42 H11        10.0436    0.7712   -2.2944 H         1 <0>         0.1275
@<TRIPOS>BOND
     1    1    6 ar
     2    1    2 ar
     3    1   32 1
     4    2    3 ar
     5    2   33 1
     6    3    4 ar
     7    3   10 1
     8    4    5 ar
     9    4   34 1
    10    5    6 ar
    11    5   35 1
    12    6    7 1
    13    7    8 2
    14    7    9 1
    15   10   11 1
    16   11   16 ar
    17   11   12 ar
    18   12   13 ar
    19   12   36 1
    20   13   14 ar
    21   13   37 1
    22   14   15 ar
    23   14   17 1
    24   15   16 ar
    25   15   38 1
    26   16   39 1
    27   17   18 2
    28   17   19 2
    29   17   20 1
    30   20   25 ar
    31   20   21 ar
    32   21   22 ar
    33   21   40 1
    34   22   23 ar
    35   22   41 1
    36   23   24 ar
    37   23   29 1
    38   24   25 ar
    39   24   26 1
    40   25   42 1
    41   26   27 2
    42   26   28 1
    43   29   30 2
    44   29   31 1
@<TRIPOS>MOLECULE
ZINC03185216
   42    44     0     0     0
SMALL
USER_CHARGES

@<TRIPOS>ATOM
      1 C1         -0.1989    1.4156    0.1088 C.ar      1 <0>        -0.1065
      2 C2          1.0245    2.0524    0.0951 C.ar      1 <0>        -0.0380
      3 C3          2.1937    1.3124    0.1179 C.ar      1 <0>        -0.6625
      4 C4          2.1449   -0.0700    0.1552 C.ar      1 <0>        -0.0414
      5 C5          0.9288   -0.7204    0.1698 C.ar      1 <0>        -0.1094
      6 C6         -0.2558    0.0201    0.1464 C.ar      1 <0>        -0.0799
      7 C7         -1.5607   -0.6683    0.1619 C.2       1 <0>         0.5181
      8 O1         -2.5957   -0.0173    0.1418 O.co2     1 <0>        -0.6796
      9 O2         -1.6072   -1.8899    0.1948 O.co2     1 <0>        -0.6837
     10 S1          3.7520    2.1346    0.0989 S.o2      1 <0>         2.5869
     11 O3          4.6936    1.2080   -0.4247 O.2       1 <0>        -0.9520
     12 O4          3.5312    3.4099   -0.4875 O.2       1 <0>        -0.9444
     13 C8          4.2090    2.4237    1.7758 C.ar      1 <0>        -0.6716
     14 C9          3.8236    3.5940    2.4039 C.ar      1 <0>         0.0018
     15 C10         4.1796    3.8238    3.7181 C.ar      1 <0>        -0.1383
     16 C11         4.9260    2.8773    4.4097 C.ar      1 <0>        -0.0369
     17 C12         5.3114    1.7025    3.7754 C.ar      1 <0>        -0.1316
     18 C13         4.9474    1.4771    2.4626 C.ar      1 <0>        -0.0094
     19 S2          5.3830    3.1664    6.0867 S.3       1 <0>        -0.0100
     20 C14         4.8256    4.8076    6.4035 C.ar      1 <0>        -0.1689
     21 C15         3.5817    5.0159    6.9941 C.ar      1 <0>        -0.0993
     22 C16         3.1361    6.2956    7.2463 C.ar      1 <0>        -0.1051
     23 C17         3.9310    7.3922    6.9103 C.ar      1 <0>        -0.0830
     24 C18         5.1924    7.1857    6.3116 C.ar      1 <0>        -0.0856
     25 C19         5.6335    5.8921    6.0674 C.ar      1 <0>        -0.0692
     26 C20         6.0419    8.3403    5.9520 C.2       1 <0>         0.5619
     27 O5          6.0097    8.7928    4.8167 O.co2     1 <0>        -0.6932
     28 O6          6.7768    8.8430    6.7899 O.co2     1 <0>        -0.6932
     29 C21         3.4554    8.7600    7.1791 C.2       1 <0>         0.5121
     30 O7          2.4107    8.9351    7.7912 O.co2     1 <0>        -0.7122
     31 O8          4.1049    9.7210    6.7902 O.co2     1 <0>        -0.6353
     32 H1         -1.1106    1.9944    0.0951 H         1 <0>         0.1367
     33 H2          1.0701    3.1310    0.0660 H         1 <0>         0.1368
     34 H3          3.0614   -0.6411    0.1725 H         1 <0>         0.1335
     35 H4          0.8922   -1.7994    0.1985 H         1 <0>         0.1346
     36 H5          3.2439    4.3293    1.8657 H         1 <0>         0.1429
     37 H6          3.8786    4.7381    4.2079 H         1 <0>         0.1415
     38 H7          5.8919    0.9649    4.3097 H         1 <0>         0.1329
     39 H8          5.2428    0.5623    1.9704 H         1 <0>         0.1403
     40 H9          2.9628    4.1703    7.2555 H         1 <0>         0.1163
     41 H10         2.1702    6.4498    7.7042 H         1 <0>         0.1274
     42 H11         6.5996    5.7267    5.6140 H         1 <0>         0.1166
@<TRIPOS>BOND
     1    1    6 ar
     2    1    2 ar
     3    1   32 1
     4    2    3 ar
     5    2   33 1
     6    3    4 ar
     7    3   10 1
     8    4    5 ar
     9    4   34 1
    10    5    6 ar
    11    5   35 1
    12    6    7 1
    13    7    8 2
    14    7    9 1
    15   10   11 2
    16   10   12 2
    17   10   13 1
    18   13   18 ar
    19   13   14 ar
    20   14   15 ar
    21   14   36 1
    22   15   16 ar
    23   15   37 1
    24   16   17 ar
    25   16   19 1
    26   17   18 ar
    27   17   38 1
    28   18   39 1
    29   19   20 1
    30   20   25 ar
    31   20   21 ar
    32   21   22 ar
    33   21   40 1
    34   22   23 ar
    35   22   41 1
    36   23   24 ar
    37   23   29 1
    38   24   25 ar
    39   24   26 1
    40   25   42 1
    41   26   27 2
    42   26   28 1
    43   29   30 2
    44   29   31 1
@<TRIPOS>MOLECULE
ZINC04025276
   41    43     0     0     0
SMALL
USER_CHARGES
2-(1-carboxyethoxy-oxo-BLAHyl)oxypropanoic acid
@<TRIPOS>ATOM
      1 C1          7.5505    5.5079    0.2628 C.3       1 <0>        -0.1586
      2 C2          6.7542    5.6844    1.5572 C.3       1 <0>         0.0340
      3 H1          6.5421    4.7065    1.9895 H         1 <0>         0.0792
      4 C3          7.5590    6.5018    2.5346 C.2       1 <0>         0.4773
      5 O1          7.1248    7.5518    2.9454 O.co2     1 <0>        -0.6171
      6 O2          5.5255    6.3562    1.2728 O.3       1 <0>        -0.2734
      7 C4          4.4852    5.5886    0.8560 C.ar      1 <0>         0.2298
      8 C5          3.2363    6.1615    0.6779 C.ar      1 <0>        -0.2171
      9 C6          2.1654    5.3877    0.2519 C.ar      1 <0>         0.2061
     10 C7          2.3628    4.0215    0.0039 C.ar      1 <0>        -0.2140
     11 C8          1.2239    3.2022   -0.4484 C.ar      1 <0>         0.0395
     12 C9          1.3517    1.8432   -0.7121 C.ar      1 <0>        -0.1173
     13 C10         0.2517    1.1249   -1.1336 C.ar      1 <0>        -0.0719
     14 C11        -0.9768    1.7474   -1.3016 C.ar      1 <0>        -0.1512
     15 C12        -1.1256    3.0926   -1.0390 C.ar      1 <0>        -0.0491
     16 C13        -0.0265    3.8361   -0.6132 C.ar      1 <0>        -0.2015
     17 C14        -0.1270    5.2735   -0.3264 C.2       1 <0>         0.5373
     18 O3         -1.1923    5.8443   -0.4605 O.2       1 <0>        -0.4684
     19 O4          0.9520    5.9598    0.0827 O.3       1 <0>        -0.2715
     20 C15         3.6262    3.4489    0.1865 C.ar      1 <0>         0.2349
     21 C16         4.6818    4.2355    0.6111 C.ar      1 <0>        -0.3266
     22 O5          3.8156    2.1257   -0.0528 O.3       1 <0>        -0.2704
     23 C17         5.1545    1.6349    0.0393 C.3       1 <0>         0.0272
     24 H2          5.8461    2.3961   -0.3219 H         1 <0>         0.0803
     25 C18         5.4771    1.3034    1.4977 C.3       1 <0>        -0.1584
     26 C19         5.2926    0.3915   -0.8009 C.2       1 <0>         0.4788
     27 O6          4.3420   -0.0310   -1.4154 O.co2     1 <0>        -0.6179
     28 H3          8.4878    4.9955    0.4798 H         1 <0>         0.0819
     29 H4          6.9684    4.9167   -0.4442 H         1 <0>         0.0534
     30 H5          7.7627    6.4858   -0.1695 H         1 <0>         0.0602
     31 H6          3.0954    7.2147    0.8711 H         1 <0>         0.1473
     32 H7          2.3058    1.3528   -0.5874 H         1 <0>         0.1792
     33 H8          0.3489    0.0691   -1.3390 H         1 <0>         0.1307
     34 H9         -1.8265    1.1711   -1.6369 H         1 <0>         0.1256
     35 H10        -2.0865    3.5685   -1.1681 H         1 <0>         0.1325
     36 H11         5.6588    3.7975    0.7526 H         1 <0>         0.1530
     37 H12         6.4984    0.9291    1.5678 H         1 <0>         0.0820
     38 H13         5.3772    2.2028    2.1053 H         1 <0>         0.0539
     39 H14         4.7855    0.5423    1.8588 H         1 <0>         0.0598
     40 O7          8.7581    6.0632    2.9488 O.co2     1 <0>        -0.7509
     41 O8          6.4717   -0.2466   -0.8666 O.co2     1 <0>        -0.7487
@<TRIPOS>BOND
     1    1    2 1
     2    1   28 1
     3    1   29 1
     4    1   30 1
     5    2    3 1
     6    2    4 1
     7    2    6 1
     8    4    5 2
     9    4   40 1
    10    6    7 1
    11    7   21 ar
    12    7    8 ar
    13    8    9 ar
    14    8   31 1
    15    9   19 1
    16    9   10 ar
    17   10   11 1
    18   10   20 ar
    19   11   16 ar
    20   11   12 ar
    21   12   13 ar
    22   12   32 1
    23   13   14 ar
    24   13   33 1
    25   14   15 ar
    26   14   34 1
    27   15   16 ar
    28   15   35 1
    29   16   17 1
    30   17   18 2
    31   17   19 1
    32   20   21 ar
    33   20   22 1
    34   21   36 1
    35   22   23 1
    36   23   24 1
    37   23   25 1
    38   23   26 1
    39   25   37 1
    40   25   38 1
    41   25   39 1
    42   26   27 2
    43   26   41 1
@<TRIPOS>MOLECULE
ZINC04025278
   41    43     0     0     0
SMALL
USER_CHARGES
2-(1-carboxyethoxy-oxo-BLAHyl)oxypropanoic acid
@<TRIPOS>ATOM
      1 C1         -2.9627    1.0036    4.4330 C.3       1 <0>        -0.1538
      2 C2         -1.5193    1.4872    4.5868 C.3       1 <0>         0.0303
      3 H1         -0.9673    1.2807    3.6699 H         1 <0>         0.0863
      4 C3         -0.8680    0.7661    5.7386 C.2       1 <0>         0.4801
      5 O1         -0.5233    1.3816    6.7196 O.co2     1 <0>        -0.6211
      6 O2         -1.5126    2.8936    4.8404 O.3       1 <0>        -0.2732
      7 C4         -1.5743    3.7151    3.7605 C.ar      1 <0>         0.2319
      8 C5         -1.4711    5.0860    3.9328 C.ar      1 <0>        -0.2172
      9 C6         -1.5322    5.9359    2.8369 C.ar      1 <0>         0.2030
     10 C7         -1.6936    5.3911    1.5546 C.ar      1 <0>        -0.2204
     11 C8         -1.7644    6.2970    0.3937 C.ar      1 <0>         0.0526
     12 C9         -1.9296    5.8237   -0.9030 C.ar      1 <0>        -0.1247
     13 C10        -1.9836    6.7177   -1.9527 C.ar      1 <0>        -0.0765
     14 C11        -1.8747    8.0821   -1.7256 C.ar      1 <0>        -0.1551
     15 C12        -1.7104    8.5713   -0.4472 C.ar      1 <0>        -0.0443
     16 C13        -1.6534    7.6847    0.6266 C.ar      1 <0>        -0.2017
     17 C14        -1.4801    8.1524    2.0085 C.2       1 <0>         0.5369
     18 O3         -1.3823    9.3428    2.2369 O.2       1 <0>        -0.4696
     19 O4         -1.4296    7.2715    3.0204 O.3       1 <0>        -0.2698
     20 C15        -1.8024    4.0062    1.3881 C.ar      1 <0>         0.2535
     21 C16        -1.7399    3.1746    2.4917 C.ar      1 <0>        -0.3120
     22 O5         -1.9633    3.4799    0.1466 O.3       1 <0>        -0.2819
     23 C17        -2.1856    2.0707    0.0632 C.3       1 <0>         0.0221
     24 H2         -2.7883    1.7471    0.9118 H         1 <0>         0.0784
     25 C18        -2.9218    1.7466   -1.2383 C.3       1 <0>        -0.1231
     26 C19        -0.8616    1.3512    0.0840 C.2       1 <0>         0.4475
     27 O6          0.1689    1.9818    0.0659 O.co2     1 <0>        -0.6154
     28 H3         -2.9678   -0.0691    4.2396 H         1 <0>         0.0813
     29 H4         -3.5148    1.2101    5.3499 H         1 <0>         0.0584
     30 H5         -3.4339    1.5253    3.6000 H         1 <0>         0.0502
     31 H6         -1.3430    5.4952    4.9240 H         1 <0>         0.1473
     32 H7         -2.0155    4.7631   -1.0876 H         1 <0>         0.1651
     33 H8         -2.1116    6.3518   -2.9607 H         1 <0>         0.1273
     34 H9         -1.9187    8.7678   -2.5588 H         1 <0>         0.1253
     35 H10        -1.6260    9.6348   -0.2789 H         1 <0>         0.1333
     36 H11        -1.8194    2.1048    2.3667 H         1 <0>         0.1531
     37 H12        -3.0913    0.6718   -1.3019 H         1 <0>         0.0836
     38 H13        -3.8794    2.2670   -1.2533 H         1 <0>         0.0527
     39 H14        -2.3191    2.0703   -2.0869 H         1 <0>         0.0591
     40 O7         -0.6706   -0.5601    5.6748 O.co2     1 <0>        -0.7483
     41 O8         -0.8272    0.0098    0.1170 O.co2     1 <0>        -0.7514
@<TRIPOS>BOND
     1    1    2 1
     2    1   28 1
     3    1   29 1
     4    1   30 1
     5    2    3 1
     6    2    4 1
     7    2    6 1
     8    4    5 2
     9    4   40 1
    10    6    7 1
    11    7   21 ar
    12    7    8 ar
    13    8    9 ar
    14    8   31 1
    15    9   19 1
    16    9   10 ar
    17   10   11 1
    18   10   20 ar
    19   11   16 ar
    20   11   12 ar
    21   12   13 ar
    22   12   32 1
    23   13   14 ar
    24   13   33 1
    25   14   15 ar
    26   14   34 1
    27   15   16 ar
    28   15   35 1
    29   16   17 1
    30   17   18 2
    31   17   19 1
    32   20   21 ar
    33   20   22 1
    34   21   36 1
    35   22   23 1
    36   23   24 1
    37   23   25 1
    38   23   26 1
    39   25   37 1
    40   25   38 1
    41   25   39 1
    42   26   27 2
    43   26   41 1
@<TRIPOS>MOLECULE
ZINC04025279
   41    43     0     0     0
SMALL
USER_CHARGES
2-(1-carboxyethoxy-oxo-BLAHyl)oxypropanoic acid
@<TRIPOS>ATOM
      1 C1          7.1498    5.8867   -2.9751 C.3       1 <0>        -0.1559
      2 C2          7.0006    6.1954   -1.4840 C.3       1 <0>         0.0323
      3 H1          7.0503    5.2676   -0.9141 H         1 <0>         0.0802
      4 C3          8.1132    7.1134   -1.0474 C.2       1 <0>         0.4770
      5 O1          7.8541    8.1993   -0.5854 O.co2     1 <0>        -0.6171
      6 O2          5.7412    6.8297   -1.2526 O.3       1 <0>        -0.2729
      7 C4          4.6649    6.0192   -1.0810 C.ar      1 <0>         0.2305
      8 C5          3.4269    6.5718   -0.7945 C.ar      1 <0>        -0.2178
      9 C6          2.3193    5.7540   -0.6175 C.ar      1 <0>         0.2065
     10 C7          2.4682    4.3641   -0.7318 C.ar      1 <0>        -0.2148
     11 C8          1.2904    3.4981   -0.5429 C.ar      1 <0>         0.0399
     12 C9          1.3696    2.1136   -0.6418 C.ar      1 <0>        -0.1181
     13 C10         0.2347    1.3516   -0.4548 C.ar      1 <0>        -0.0718
     14 C11        -0.9832    1.9544   -0.1748 C.ar      1 <0>        -0.1514
     15 C12        -1.0815    3.3254   -0.0682 C.ar      1 <0>        -0.0489
     16 C13         0.0534    4.1130   -0.2528 C.ar      1 <0>        -0.2017
     17 C14         0.0046    5.5780   -0.1549 C.2       1 <0>         0.5374
     18 O3         -1.0482    6.1332    0.0939 O.2       1 <0>        -0.4683
     19 O4          1.1173    6.3067   -0.3384 O.3       1 <0>        -0.2716
     20 C15         3.7210    3.8124   -1.0208 C.ar      1 <0>         0.2353
     21 C16         4.8137    4.6427   -1.1940 C.ar      1 <0>        -0.3275
     22 O5          3.8639    2.4664   -1.1303 O.3       1 <0>        -0.2699
     23 C17         5.1817    1.9718   -1.3770 C.3       1 <0>         0.0262
     24 H2          5.9051    2.5770   -0.8307 H         1 <0>         0.0808
     25 C18         5.4822    2.0466   -2.8753 C.3       1 <0>        -0.1578
     26 C19         5.2751    0.5398   -0.9168 C.2       1 <0>         0.4793
     27 O6          4.2898   -0.0300   -0.5116 O.co2     1 <0>        -0.6179
     28 H3          6.3451    5.2227   -3.2910 H         1 <0>         0.0527
     29 H4          7.1001    6.8145   -3.5450 H         1 <0>         0.0595
     30 H5          8.1104    5.4029   -3.1517 H         1 <0>         0.0814
     31 H6          3.3232    7.6434   -0.7094 H         1 <0>         0.1471
     32 H7          2.3134    1.6377   -0.8632 H         1 <0>         0.1792
     33 H8          0.2940    0.2759   -0.5316 H         1 <0>         0.1309
     34 H9         -1.8625    1.3431   -0.0354 H         1 <0>         0.1256
     35 H10        -2.0325    3.7864    0.1542 H         1 <0>         0.1325
     36 H11         5.7826    4.2208   -1.4168 H         1 <0>         0.1531
     37 H12         6.4874    1.6694   -3.0636 H         1 <0>         0.0807
     38 H13         4.7588    1.4414   -3.4217 H         1 <0>         0.0596
     39 H14         5.4146    3.0823   -3.2082 H         1 <0>         0.0546
     40 O7          9.3919    6.7245   -1.1717 O.co2     1 <0>        -0.7504
     41 O8          6.4530   -0.1025   -0.9571 O.co2     1 <0>        -0.7483
@<TRIPOS>BOND
     1    1    2 1
     2    1   28 1
     3    1   29 1
     4    1   30 1
     5    2    3 1
     6    2    4 1
     7    2    6 1
     8    4    5 2
     9    4   40 1
    10    6    7 1
    11    7   21 ar
    12    7    8 ar
    13    8    9 ar
    14    8   31 1
    15    9   19 1
    16    9   10 ar
    17   10   11 1
    18   10   20 ar
    19   11   16 ar
    20   11   12 ar
    21   12   13 ar
    22   12   32 1
    23   13   14 ar
    24   13   33 1
    25   14   15 ar
    26   14   34 1
    27   15   16 ar
    28   15   35 1
    29   16   17 1
    30   17   18 2
    31   17   19 1
    32   20   21 ar
    33   20   22 1
    34   21   36 1
    35   22   23 1
    36   23   24 1
    37   23   25 1
    38   23   26 1
    39   25   37 1
    40   25   38 1
    41   25   39 1
    42   26   27 2
    43   26   41 1
@<TRIPOS>MOLECULE
ZINC04025280
   41    43     0     0     0
SMALL
USER_CHARGES
2-(1-carboxyethoxy-oxo-BLAHyl)oxypropanoic acid
@<TRIPOS>ATOM
      1 C1          8.0695    7.2095    0.6823 C.3       1 <0>        -0.1589
      2 C2          7.2344    7.2502   -0.5990 C.3       1 <0>         0.0339
      3 H1          7.2174    6.2596   -1.0533 H         1 <0>         0.0795
      4 C3          7.8426    8.2351   -1.5639 C.2       1 <0>         0.4773
      5 O1          7.2340    9.2318   -1.8738 O.co2     1 <0>        -0.6169
      6 O2          5.8998    7.6532   -0.2851 O.3       1 <0>        -0.2734
      7 C4          5.0394    6.6804    0.1127 C.ar      1 <0>         0.2296
      8 C5          3.7051    6.9876    0.3252 C.ar      1 <0>        -0.2172
      9 C6          2.8160    6.0022    0.7322 C.ar      1 <0>         0.2061
     10 C7          3.2838    4.6941    0.9245 C.ar      1 <0>        -0.2140
     11 C8          2.3374    3.6497    1.3567 C.ar      1 <0>         0.0394
     12 C9          2.7359    2.3343    1.5656 C.ar      1 <0>        -0.1177
     13 C10         1.8072    1.3976    1.9706 C.ar      1 <0>        -0.0717
     14 C11         0.4811    1.7557    2.1656 C.ar      1 <0>        -0.1513
     15 C12         0.0671    3.0559    1.9681 C.ar      1 <0>        -0.0491
     16 C13         0.9898    4.0172    1.5597 C.ar      1 <0>        -0.2015
     17 C14         0.6023    5.4156    1.3304 C.2       1 <0>         0.5373
     18 O3         -0.5522    5.7589    1.4975 O.2       1 <0>        -0.4683
     19 O4          1.5169    6.3163    0.9367 O.3       1 <0>        -0.2715
     20 C15         4.6321    4.3903    0.7078 C.ar      1 <0>         0.2347
     21 C16         5.5038    5.3851    0.3028 C.ar      1 <0>        -0.3265
     22 O5          5.0835    3.1231    0.8939 O.3       1 <0>        -0.2705
     23 C17         6.4914    2.9113    0.7714 C.3       1 <0>         0.0273
     24 H2          7.0244    3.7807    1.1564 H         1 <0>         0.0803
     25 C18         6.8497    2.7045   -0.7016 C.3       1 <0>        -0.1593
     26 C19         6.8863    1.6898    1.5607 C.2       1 <0>         0.4791
     27 O6          6.0376    1.0132    2.0915 O.co2     1 <0>        -0.6179
     28 H3          9.0875    6.9021    0.4429 H         1 <0>         0.0811
     29 H4          8.0865    8.2001    1.1367 H         1 <0>         0.0606
     30 H5          7.6296    6.4972    1.3803 H         1 <0>         0.0542
     31 H6          3.3552    7.9980    0.1735 H         1 <0>         0.1472
     32 H7          3.7657    2.0475    1.4121 H         1 <0>         0.1797
     33 H8          2.1147    0.3751    2.1331 H         1 <0>         0.1309
     34 H9         -0.2336    1.0091    2.4789 H         1 <0>         0.1255
     35 H10        -0.9663    3.3272    2.1262 H         1 <0>         0.1325
     36 H11         6.5453    5.1546    0.1341 H         1 <0>         0.1531
     37 H12         6.5641    3.5881   -1.2726 H         1 <0>         0.0549
     38 H13         7.9236    2.5430   -0.7951 H         1 <0>         0.0813
     39 H14         6.3167    1.8352   -1.0866 H         1 <0>         0.0603
     40 O7          9.0606    8.0050   -2.0791 O.co2     1 <0>        -0.7512
     41 O8          8.1808    1.3536    1.6741 O.co2     1 <0>        -0.7489
@<TRIPOS>BOND
     1    1    2 1
     2    1   28 1
     3    1   29 1
     4    1   30 1
     5    2    3 1
     6    2    4 1
     7    2    6 1
     8    4    5 2
     9    4   40 1
    10    6    7 1
    11    7   21 ar
    12    7    8 ar
    13    8    9 ar
    14    8   31 1
    15    9   19 1
    16    9   10 ar
    17   10   11 1
    18   10   20 ar
    19   11   16 ar
    20   11   12 ar
    21   12   13 ar
    22   12   32 1
    23   13   14 ar
    24   13   33 1
    25   14   15 ar
    26   14   34 1
    27   15   16 ar
    28   15   35 1
    29   16   17 1
    30   17   18 2
    31   17   19 1
    32   20   21 ar
    33   20   22 1
    34   21   36 1
    35   22   23 1
    36   23   24 1
    37   23   25 1
    38   23   26 1
    39   25   37 1
    40   25   38 1
    41   25   39 1
    42   26   27 2
    43   26   41 1
@<TRIPOS>MOLECULE
ZINC02276490
   40    41     0     0     0
SMALL
USER_CHARGES

@<TRIPOS>ATOM
      1 C1         -0.0184    1.5028    0.0103 C.3       1 <0>        -0.0477
      2 C2          0.0021   -0.0041    0.0020 C.2       1 <0>         0.0178
      3 C3         -1.0952   -0.8189    0.0026 C.2       1 <0>        -0.2285
      4 C4         -0.5670   -2.1921   -0.0078 C.2       1 <0>        -0.1343
      5 C5          0.7688   -2.0728   -0.0136 C.2       1 <0>        -0.0459
      6 O1          1.0954   -0.7708   -0.0130 O.3       1 <0>        -0.1847
      7 C6          1.7477   -3.2185   -0.0249 C.3       1 <0>         0.0110
      8 S1          2.1322   -3.6684   -1.7396 S.3       1 <0>        -0.2397
      9 C7          3.3060   -5.0423   -1.5802 C.3       1 <0>        -0.0753
     10 C8          3.7184   -5.5248   -2.9723 C.3       1 <0>        -0.0754
     11 S2          4.8922   -6.8987   -2.8128 S.3       1 <0>        -0.2395
     12 C9          5.2767   -7.3486   -4.5276 C.3       1 <0>         0.0109
     13 C10         6.2556   -8.4943   -4.5389 C.2       1 <0>        -0.0454
     14 C11         5.9293   -9.7951   -4.5501 C.2       1 <0>        -0.1348
     15 C12         7.2032  -10.5311   -4.5586 C.2       1 <0>        -0.2281
     16 C13         8.1793   -9.5746   -4.5514 C.2       1 <0>         0.0188
     17 O2          7.5926   -8.3749   -4.5451 O.3       1 <0>        -0.1855
     18 C14         9.6645   -9.8300   -4.5558 C.3       1 <0>        -0.0612
     19 C15         7.3874  -11.9891   -4.5713 C.2       1 <0>         0.5477
     20 O3          6.4127  -12.7289   -4.5764 O.co2     1 <0>        -0.6890
     21 O4          8.5155  -12.4632   -4.5769 O.co2     1 <0>        -0.6905
     22 C16        -2.5065   -0.4093    0.0122 C.2       1 <0>         0.5469
     23 O5         -3.3895   -1.2566    0.0115 O.co2     1 <0>        -0.6901
     24 O6         -2.7987    0.7789    0.0208 O.co2     1 <0>        -0.6905
     25 H1          1.0042    1.8801    0.0026 H         1 <0>         0.0567
     26 H2         -0.5455    1.8639   -0.8728 H         1 <0>         0.0871
     27 H3         -0.5286    1.8543    0.9071 H         1 <0>         0.0863
     28 H4         -1.1382   -3.1086   -0.0103 H         1 <0>         0.1490
     29 H5          2.6628   -2.9196    0.4863 H         1 <0>         0.0939
     30 H6          1.3095   -4.0758    0.4862 H         1 <0>         0.1070
     31 H7          4.1884   -4.7050   -1.0363 H         1 <0>         0.0894
     32 H8          2.8351   -5.8612   -1.0365 H         1 <0>         0.0917
     33 H9          2.8361   -5.8621   -3.5161 H         1 <0>         0.0917
     34 H10         4.1894   -4.7059   -3.5160 H         1 <0>         0.0894
     35 H11         4.3616   -7.6475   -5.0387 H         1 <0>         0.1070
     36 H12         5.7149   -6.4913   -5.0386 H         1 <0>         0.0939
     37 H13         4.9348  -10.2161   -4.5522 H         1 <0>         0.1490
     38 H14        10.0211   -9.8823   -5.5845 H         1 <0>         0.0722
     39 H15        10.1742   -9.0191   -4.0354 H         1 <0>         0.0585
     40 H16         9.8725  -10.7733   -4.0508 H         1 <0>         0.1102
@<TRIPOS>BOND
     1    1    2 1
     2    1   25 1
     3    1   26 1
     4    1   27 1
     5    2    6 1
     6    2    3 2
     7    3    4 1
     8    3   22 1
     9    4    5 2
    10    4   28 1
    11    5    6 1
    12    5    7 1
    13    7    8 1
    14    7   29 1
    15    7   30 1
    16    8    9 1
    17    9   10 1
    18    9   31 1
    19    9   32 1
    20   10   11 1
    21   10   33 1
    22   10   34 1
    23   11   12 1
    24   12   13 1
    25   12   35 1
    26   12   36 1
    27   13   17 1
    28   13   14 2
    29   14   15 1
    30   14   37 1
    31   15   16 2
    32   15   19 1
    33   16   17 1
    34   16   18 1
    35   18   38 1
    36   18   39 1
    37   18   40 1
    38   19   20 2
    39   19   21 1
    40   22   23 2
    41   22   24 1
@<TRIPOS>MOLECULE
ZINC19720693
   27    29     0     0     0
SMALL
USER_CHARGES
2-[(3Z)-2-oxo-3-(4-oxo-2-thioxo-thiazolidin-5-ylidene)indolin-1-yl]acetic acid
@<TRIPOS>ATOM
      1 C1          3.4247   -1.7032   -0.3365 C.ar      1 <0>        -0.1694
      2 C2          2.9503   -3.0039   -0.2950 C.ar      1 <0>        -0.0756
      3 C3          1.5993   -3.2567   -0.1649 C.ar      1 <0>        -0.1521
      4 C4          0.6975   -2.2027   -0.0739 C.ar      1 <0>         0.1863
      5 C5          1.1811   -0.8870   -0.1162 C.ar      1 <0>        -0.1192
      6 C6          2.5457   -0.6430   -0.2483 C.ar      1 <0>        -0.0496
      7 C7          0.0021   -0.0041    0.0020 C.2       1 <0>        -0.0322
      8 C8         -0.0167    1.3772    0.0096 C.2       1 <0>        -0.1201
      9 C9          1.1158    2.3417    0.0622 C.2       1 <0>         0.5332
     10 O1          2.2723    1.9711    0.1077 O.3       1 <0>        -0.4806
     11 N1          0.7935    3.6245    0.0562 N.2       1 <0>        -0.6478
     12 C10        -0.4908    4.0302    0.0057 C.2       1 <0>         0.3789
     13 S1         -1.0978    5.6309   -0.0105 S.2       1 <0>        -0.5697
     14 S2         -1.4073    2.4990   -0.0490 S.3       1 <0>        -0.0919
     15 C11        -1.1515   -0.9195    0.1168 C.2       1 <0>         0.5575
     16 O2         -2.3168   -0.5914    0.2376 O.2       1 <0>        -0.4819
     17 N2         -0.6860   -2.1791    0.0611 N.am      1 <0>        -0.5206
     18 C12        -1.5286   -3.3750    0.1396 C.3       1 <0>         0.0672
     19 C13        -1.6796   -3.7894    1.5806 C.2       1 <0>         0.4525
     20 O3         -1.1389   -3.1512    2.4526 O.co2     1 <0>        -0.6179
     21 O4         -2.4148   -4.8674    1.8954 O.co2     1 <0>        -0.7689
     22 H1          4.4838   -1.5184   -0.4389 H         1 <0>         0.1223
     23 H2          3.6442   -3.8285   -0.3648 H         1 <0>         0.1226
     24 H3          1.2423   -4.2755   -0.1335 H         1 <0>         0.1232
     25 H4          2.9146    0.3715   -0.2808 H         1 <0>         0.1670
     26 H5         -2.5194   -3.1539   -0.2841 H         1 <0>         0.0961
     27 H6         -1.0603   -4.1915   -0.4296 H         1 <0>         0.0906
@<TRIPOS>BOND
     1    1    6 ar
     2    1    2 ar
     3    1   22 1
     4    2    3 ar
     5    2   23 1
     6    3    4 ar
     7    3   24 1
     8    4   17 1
     9    4    5 ar
    10    5    6 ar
    11    5    7 1
    12    6   25 1
    13    7    8 2
    14    7   15 1
    15    8   14 1
    16    8    9 1
    17    9   10 1
    18    9   11 2
    19   11   12 1
    20   12   13 2
    21   12   14 1
    22   15   16 2
    23   15   17 am
    24   17   18 1
    25   18   19 1
    26   18   26 1
    27   18   27 1
    28   19   20 2
    29   19   21 1
@<TRIPOS>MOLECULE
ZINC01811552
   36    38     0     0     0
SMALL
USER_CHARGES
3-[5-[1-(carboxymethyl)-2-oxo-indolin-3-ylidene]-4-oxo-2-thioxo-thiazolidin-3-yl]propanoic acid
@<TRIPOS>ATOM
      1 C1         -1.7428    8.4387   -0.2493 C.ar      1 <0>        -0.1663
      2 C2         -0.8514    9.4980   -0.2073 C.ar      1 <0>        -0.0544
      3 C3          0.5055    9.2720   -0.0889 C.ar      1 <0>        -0.1500
      4 C4          0.9934    7.9719   -0.0231 C.ar      1 <0>         0.2012
      5 C5          0.0883    6.9016   -0.0694 C.ar      1 <0>        -0.1509
      6 C6         -1.2789    7.1408   -0.1809 C.ar      1 <0>        -0.0324
      7 C7          0.8955    5.6673    0.0240 C.2       1 <0>         0.0490
      8 C8          0.4405    4.3629    0.0213 C.2       1 <0>        -0.1657
      9 C9         -0.9525    3.8432    0.0916 C.2       1 <0>         0.5457
     10 O1         -1.9114    4.5863    0.1645 O.2       1 <0>        -0.4358
     11 N1         -1.0891    2.5279    0.0640 N.am      1 <0>        -0.5171
     12 C10        -0.0219    1.7081   -0.0114 C.2       1 <0>         0.2761
     13 S1          0.0003   -0.0033   -0.0514 S.2       1 <0>        -0.3412
     14 S2          1.3626    2.8340   -0.0675 S.3       1 <0>         0.1065
     15 C11        -2.4331    1.9478    0.1224 C.3       1 <0>         0.1014
     16 C12        -2.8246    1.7138    1.5828 C.3       1 <0>        -0.1686
     17 C13        -4.2071    1.1171    1.6429 C.2       1 <0>         0.4753
     18 O2         -4.8167    0.9011    0.6223 O.co2     1 <0>        -0.6369
     19 C14         2.2950    6.1311    0.1142 C.2       1 <0>         0.5566
     20 O3          3.2800    5.4225    0.2025 O.2       1 <0>        -0.4665
     21 N2          2.2874    7.4747    0.0821 N.am      1 <0>        -0.5168
     22 C15         3.4897    8.3091    0.1494 C.3       1 <0>         0.0662
     23 C16         4.0047    8.5614   -1.2442 C.2       1 <0>         0.4526
     24 O4          3.4268    8.0924   -2.1959 O.co2     1 <0>        -0.6191
     25 H1         -2.8024    8.6287   -0.3362 H         1 <0>         0.1306
     26 H2         -1.2219   10.5110   -0.2614 H         1 <0>         0.1308
     27 H3          1.1902   10.1066   -0.0590 H         1 <0>         0.1308
     28 H4         -1.9732    6.3142   -0.2132 H         1 <0>         0.1638
     29 H5         -3.1447    2.6324   -0.3393 H         1 <0>         0.1069
     30 H6         -2.4426    0.9984   -0.4130 H         1 <0>         0.1162
     31 H7         -2.1130    1.0293    2.0445 H         1 <0>         0.0756
     32 H8         -2.8151    2.6633    2.1181 H         1 <0>         0.0700
     33 H9          3.2463    9.2595    0.6245 H         1 <0>         0.0951
     34 H10         4.2552    7.7970    0.7325 H         1 <0>         0.0995
     35 O5         -4.7612    0.8255    2.8302 O.co2     1 <0>        -0.7673
     36 O6          5.1055    9.3072   -1.4281 O.co2     1 <0>        -0.7611
@<TRIPOS>BOND
     1    1    6 ar
     2    1    2 ar
     3    1   25 1
     4    2    3 ar
     5    2   26 1
     6    3    4 ar
     7    3   27 1
     8    4   21 1
     9    4    5 ar
    10    5    6 ar
    11    5    7 1
    12    6   28 1
    13    7    8 2
    14    7   19 1
    15    8   14 1
    16    8    9 1
    17    9   10 2
    18    9   11 am
    19   11   12 1
    20   11   15 1
    21   12   13 2
    22   12   14 1
    23   15   16 1
    24   15   29 1
    25   15   30 1
    26   16   17 1
    27   16   31 1
    28   16   32 1
    29   17   18 2
    30   17   35 1
    31   19   20 2
    32   19   21 am
    33   21   22 1
    34   22   23 1
    35   22   33 1
    36   22   34 1
    37   23   24 2
    38   23   36 1
@<TRIPOS>MOLECULE
ZINC00094777
   33    34     0     0     0
SMALL
USER_CHARGES

@<TRIPOS>ATOM
      1 C1          1.1732   -0.6041    0.5021 C.ar      1 <0>        -0.0986
      2 C2          2.3542    0.1084    0.5093 C.ar      1 <0>        -0.1426
      3 C3          2.3795    1.4173    0.0549 C.ar      1 <0>         0.0685
      4 C4          1.2198    2.0174   -0.4089 C.ar      1 <0>        -0.1516
      5 C5          0.0332    1.3142   -0.4200 C.ar      1 <0>        -0.0902
      6 C6          0.0023   -0.0044    0.0361 C.ar      1 <0>         0.0096
      7 C7         -1.2667   -0.7636    0.0256 C.2       1 <0>         0.0185
      8 C8         -2.5202   -0.2301    0.0293 C.2       1 <0>        -0.1771
      9 C9         -3.4304   -1.2998    0.0152 C.2       1 <0>        -0.2256
     10 C10        -2.7164   -2.4460    0.0034 C.2       1 <0>         0.0779
     11 N1         -1.3902   -2.1291    0.0044 N.pl3     1 <0>        -0.3891
     12 C11        -0.2822   -3.0874   -0.0115 C.3       1 <0>         0.0140
     13 C12         0.0300   -3.5177    1.3987 C.2       1 <0>         0.4871
     14 O1         -0.6133   -3.0657    2.3305 O.co2     1 <0>        -0.6664
     15 O2          0.9259   -4.3178    1.6076 O.co2     1 <0>        -0.6939
     16 C13        -3.2887   -3.8400   -0.0138 C.3       1 <0>        -0.0315
     17 C14        -3.5953   -4.2476   -1.4563 C.3       1 <0>        -0.1711
     18 C15        -4.1677   -5.6416   -1.4735 C.2       1 <0>         0.4920
     19 O3         -4.3165   -6.2524   -0.4289 O.co2     1 <0>        -0.6949
     20 O4         -4.4818   -6.1586   -2.5321 O.co2     1 <0>        -0.7160
     21 F1          3.5388    2.1108    0.0645 F         1 <0>        -0.1508
     22 H1          1.1555   -1.6255    0.8523 H         1 <0>         0.1478
     23 H2          3.2608   -0.3545    0.8700 H         1 <0>         0.1321
     24 H3          1.2449    3.0378   -0.7619 H         1 <0>         0.1298
     25 H4         -0.8701    1.7830   -0.7813 H         1 <0>         0.1341
     26 H5         -2.7683    0.8209    0.0413 H         1 <0>         0.1256
     27 H6         -4.5075   -1.2201    0.0143 H         1 <0>         0.1281
     28 H7         -0.5637   -3.9584   -0.6032 H         1 <0>         0.0900
     29 H8          0.5977   -2.6182   -0.4514 H         1 <0>         0.0864
     30 H9         -2.5661   -4.5347    0.4143 H         1 <0>         0.0698
     31 H10        -4.2068   -3.8631    0.5732 H         1 <0>         0.0791
     32 H11        -4.3179   -3.5529   -1.8844 H         1 <0>         0.0580
     33 H12        -2.6772   -4.2245   -2.0434 H         1 <0>         0.0510
@<TRIPOS>BOND
     1    1    6 ar
     2    1    2 ar
     3    1   22 1
     4    2    3 ar
     5    2   23 1
     6    3    4 ar
     7    3   21 1
     8    4    5 ar
     9    4   24 1
    10    5    6 ar
    11    5   25 1
    12    6    7 1
    13    7   11 1
    14    7    8 2
    15    8    9 1
    16    8   26 1
    17    9   10 2
    18    9   27 1
    19   10   11 1
    20   10   16 1
    21   11   12 1
    22   12   13 1
    23   12   28 1
    24   12   29 1
    25   13   14 2
    26   13   15 1
    27   16   17 1
    28   16   30 1
    29   16   31 1
    30   17   18 1
    31   17   32 1
    32   17   33 1
    33   18   19 2
    34   18   20 1
@<TRIPOS>MOLECULE
ZINC04535247
   50    53     0     0     0
SMALL
USER_CHARGES
2-[2-[4-[1-(carboxymethyl)benzoimidazol-2-yl]butyl]benzoimidazol-1-yl]acetic acid
@<TRIPOS>ATOM
      1 C1         -1.2264    1.7485    0.0174 C.ar      1 <0>        -0.1391
      2 C2         -0.0126    1.0758    0.0080 C.ar      1 <0>        -0.1214
      3 C3          1.1745    1.7766    0.0004 C.ar      1 <0>        -0.0985
      4 C4          1.1536    3.1647    0.0080 C.ar      1 <0>         0.0570
      5 C5         -0.0755    3.8453    0.0234 C.ar      1 <0>         0.0473
      6 C6         -1.2662    3.1139    0.0305 C.ar      1 <0>        -0.0713
      7 N1          0.2078    5.1733    0.0279 N.2       1 <0>        -0.5072
      8 C7          1.4974    5.3454    0.0165 C.2       1 <0>         0.3041
      9 N2          2.1298    4.1410    0.0040 N.pl3     1 <0>        -0.4508
     10 C8          3.5780    3.9207   -0.0106 C.3       1 <0>         0.0581
     11 C9          4.0615    3.8531   -1.4363 C.2       1 <0>         0.4522
     12 O1          3.2769    3.9762   -2.3469 O.co2     1 <0>        -0.6165
     13 C10         2.1898    6.6840    0.0166 C.3       1 <0>        -0.0439
     14 C11         2.4383    7.1295    1.4590 C.3       1 <0>        -0.1106
     15 C12         3.1412    8.4884    1.4592 C.3       1 <0>        -0.1106
     16 C13         3.3898    8.9339    2.9016 C.3       1 <0>        -0.0439
     17 C14         4.0821   10.2725    2.9017 C.2       1 <0>         0.3040
     18 N3          5.3718   10.4446    2.8956 N.2       1 <0>        -0.5071
     19 C15         5.6550   11.7726    2.8948 C.ar      1 <0>         0.0472
     20 C16         6.8457   12.5039    2.8874 C.ar      1 <0>        -0.0712
     21 C17         6.8059   13.8694    2.8952 C.ar      1 <0>        -0.1392
     22 C18         5.5922   14.5421    2.9108 C.ar      1 <0>        -0.1213
     23 C19         4.4051   13.8413    2.9179 C.ar      1 <0>        -0.0986
     24 C20         4.4259   12.4532    2.9102 C.ar      1 <0>         0.0571
     25 N4          3.4498   11.4769    2.9143 N.pl3     1 <0>        -0.4507
     26 C21         2.0015   11.6971    2.9297 C.3       1 <0>         0.0581
     27 C22         1.5190   11.7653    4.3557 C.2       1 <0>         0.4523
     28 O2          2.3042   11.6424    5.2657 O.co2     1 <0>        -0.6164
     29 H1         -2.1488    1.1868    0.0187 H         1 <0>         0.1194
     30 H2          0.0021   -0.0041    0.0020 H         1 <0>         0.1205
     31 H3          2.1164    1.2482   -0.0118 H         1 <0>         0.1161
     32 H4         -2.2163    3.6273    0.0423 H         1 <0>         0.1212
     33 H5          4.0758    4.7431    0.5032 H         1 <0>         0.1009
     34 H6          3.8081    2.9834    0.4959 H         1 <0>         0.0929
     35 H7          3.1421    6.6005   -0.5071 H         1 <0>         0.0876
     36 H8          1.5612    7.4182   -0.4872 H         1 <0>         0.0982
     37 H9          1.4860    7.2129    1.9827 H         1 <0>         0.0751
     38 H10         3.0669    6.3952    1.9629 H         1 <0>         0.0659
     39 H11         4.0935    8.4050    0.9355 H         1 <0>         0.0751
     40 H12         2.5126    9.2227    0.9553 H         1 <0>         0.0659
     41 H13         2.4375    9.0174    3.4253 H         1 <0>         0.0876
     42 H14         4.0184    8.1997    3.4054 H         1 <0>         0.0982
     43 H15         7.7958   11.9906    2.8752 H         1 <0>         0.1212
     44 H16         7.7283   14.4311    2.8894 H         1 <0>         0.1194
     45 H17         5.5776   15.6219    2.9168 H         1 <0>         0.1205
     46 H18         3.4632   14.3697    2.9293 H         1 <0>         0.1161
     47 H19         1.7711   12.6343    2.4230 H         1 <0>         0.0928
     48 H20         1.5034   10.8746    2.4164 H         1 <0>         0.1010
     49 O3          5.3639    3.6560   -1.6947 O.co2     1 <0>        -0.7573
     50 O4          0.2168   11.9624    4.6149 O.co2     1 <0>        -0.7573
@<TRIPOS>BOND
     1    1    6 ar
     2    1    2 ar
     3    1   29 1
     4    2    3 ar
     5    2   30 1
     6    3    4 ar
     7    3   31 1
     8    4    9 1
     9    4    5 ar
    10    5    6 ar
    11    5    7 1
    12    6   32 1
    13    7    8 2
    14    8    9 1
    15    8   13 1
    16    9   10 1
    17   10   11 1
    18   10   33 1
    19   10   34 1
    20   11   12 2
    21   11   49 1
    22   13   14 1
    23   13   35 1
    24   13   36 1
    25   14   15 1
    26   14   37 1
    27   14   38 1
    28   15   16 1
    29   15   39 1
    30   15   40 1
    31   16   17 1
    32   16   41 1
    33   16   42 1
    34   17   25 1
    35   17   18 2
    36   18   19 1
    37   19   24 ar
    38   19   20 ar
    39   20   21 ar
    40   20   43 1
    41   21   22 ar
    42   21   44 1
    43   22   23 ar
    44   22   45 1
    45   23   24 ar
    46   23   46 1
    47   24   25 1
    48   25   26 1
    49   26   27 1
    50   26   47 1
    51   26   48 1
    52   27   28 2
    53   27   50 1
@<TRIPOS>MOLECULE
ZINC04713641
   33    34     0     0     0
SMALL
USER_CHARGES
4-[(2-carboxyphenoxy)methyl]-2,5-dimethyl-furan-3-carboxylic acid
@<TRIPOS>ATOM
      1 C1          5.2879   -0.9974   -1.5668 C.3       1 <0>        -0.0643
      2 C2          4.2303   -0.3308   -0.7252 C.2       1 <0>        -0.0051
      3 C3          3.1646    0.3332   -1.1978 C.2       1 <0>        -0.1561
      4 C4          2.4268    0.8060   -0.0168 C.2       1 <0>        -0.1478
      5 C5          3.1351    0.3597    1.0614 C.2       1 <0>        -0.0365
      6 O1          4.2011   -0.3122    0.6165 O.3       1 <0>        -0.1842
      7 C6          2.7760    0.5862    2.5073 C.3       1 <0>        -0.0518
      8 C7          1.1813    1.5910   -0.0007 C.2       1 <0>         0.5201
      9 O2          1.2285    2.8054    0.0054 O.co2     1 <0>        -0.6130
     10 C8          2.7999    0.5525   -2.6434 C.3       1 <0>         0.1304
     11 O3          3.4022    1.7620   -3.1085 O.3       1 <0>        -0.2554
     12 C9          3.1714    2.1081   -4.3995 C.ar      1 <0>         0.1670
     13 C10         2.3861    1.2995   -5.2079 C.ar      1 <0>        -0.2351
     14 C11         2.1477    1.6558   -6.5202 C.ar      1 <0>        -0.0865
     15 C12         2.6977    2.8151   -7.0431 C.ar      1 <0>        -0.1904
     16 C13         3.4848    3.6274   -6.2566 C.ar      1 <0>        -0.0440
     17 C14         3.7302    3.2817   -4.9247 C.ar      1 <0>        -0.1507
     18 C15         4.5718    4.1457   -4.0774 C.2       1 <0>         0.4895
     19 O4          4.7831    3.8416   -2.9202 O.co2     1 <0>        -0.5982
     20 H1          6.0286   -1.4637   -0.9172 H         1 <0>         0.0692
     21 H2          4.8256   -1.7584   -2.1955 H         1 <0>         0.0765
     22 H3          5.7743   -0.2523   -2.1963 H         1 <0>         0.0866
     23 H4          2.1415   -0.2285    2.8560 H         1 <0>         0.0712
     24 H5          3.6858    0.6203    3.1066 H         1 <0>         0.0649
     25 H6          2.2409    1.5308    2.6051 H         1 <0>         0.0854
     26 H7          3.1600   -0.2856   -3.2402 H         1 <0>         0.0582
     27 H8          1.7165    0.6266   -2.7376 H         1 <0>         0.0686
     28 H9          1.9572    0.3921   -4.8090 H         1 <0>         0.1207
     29 H10         1.5325    1.0247   -7.1444 H         1 <0>         0.1115
     30 H11         2.5087    3.0831   -8.0721 H         1 <0>         0.1113
     31 H12         3.9120    4.5297   -6.6686 H         1 <0>         0.1314
     32 O5         -0.0110    0.9628    0.0073 O.co2     1 <0>        -0.7661
     33 O6          5.1069    5.2729   -4.5863 O.co2     1 <0>        -0.7772
@<TRIPOS>BOND
     1    1    2 1
     2    1   20 1
     3    1   21 1
     4    1   22 1
     5    2    6 1
     6    2    3 2
     7    3    4 1
     8    3   10 1
     9    4    5 2
    10    4    8 1
    11    5    6 1
    12    5    7 1
    13    7   23 1
    14    7   24 1
    15    7   25 1
    16    8    9 2
    17    8   32 1
    18   10   11 1
    19   10   26 1
    20   10   27 1
    21   11   12 1
    22   12   17 ar
    23   12   13 ar
    24   13   14 ar
    25   13   28 1
    26   14   15 ar
    27   14   29 1
    28   15   16 ar
    29   15   30 1
    30   16   17 ar
    31   16   31 1
    32   17   18 1
    33   18   19 2
    34   18   33 1
@<TRIPOS>MOLECULE
ZINC00094779
   33    34     0     0     0
SMALL
USER_CHARGES

@<TRIPOS>ATOM
      1 C1          1.1737   -0.6036    0.5009 C.ar      1 <0>        -0.1146
      2 C2          2.3544    0.1096    0.5075 C.ar      1 <0>        -0.1005
      3 C3          2.3787    1.4177    0.0539 C.ar      1 <0>        -0.0541
      4 C4          1.2197    2.0177   -0.4086 C.ar      1 <0>        -0.1095
      5 C5          0.0330    1.3145   -0.4200 C.ar      1 <0>        -0.1065
      6 C6          0.0023   -0.0044    0.0354 C.ar      1 <0>         0.0250
      7 C7         -1.2665   -0.7638    0.0253 C.2       1 <0>         0.0153
      8 C8         -2.5202   -0.2306    0.0292 C.2       1 <0>        -0.1747
      9 C9         -3.4300   -1.3005    0.0163 C.2       1 <0>        -0.2260
     10 C10        -2.7156   -2.4465    0.0050 C.2       1 <0>         0.0794
     11 N1         -1.3897   -2.1294    0.0044 N.pl3     1 <0>        -0.3884
     12 C11        -0.2816   -3.0875   -0.0122 C.3       1 <0>         0.0142
     13 C12         0.0316   -3.5178    1.3977 C.2       1 <0>         0.4872
     14 O1         -0.6112   -3.0660    2.3300 O.co2     1 <0>        -0.6665
     15 O2          0.9279   -4.3177    1.6061 O.co2     1 <0>        -0.6936
     16 C13        -3.2876   -3.8407   -0.0101 C.3       1 <0>        -0.0317
     17 C14        -3.5955   -4.2500   -1.4519 C.3       1 <0>        -0.1711
     18 C15        -4.1675   -5.6441   -1.4670 C.2       1 <0>         0.4919
     19 O3         -4.3152   -6.2538   -0.4216 O.co2     1 <0>        -0.6948
     20 O4         -4.4826   -6.1623   -2.5247 O.co2     1 <0>        -0.7158
     21 Cl1         3.8683    2.3092    0.0658 Cl        1 <0>        -0.0936
     22 H1          1.1567   -1.6251    0.8510 H         1 <0>         0.1475
     23 H2          3.2615   -0.3530    0.8674 H         1 <0>         0.1302
     24 H3          1.2447    3.0383   -0.7608 H         1 <0>         0.1281
     25 H4         -0.8706    1.7837   -0.7804 H         1 <0>         0.1334
     26 H5         -2.7685    0.8204    0.0404 H         1 <0>         0.1258
     27 H6         -4.5071   -1.2210    0.0155 H         1 <0>         0.1284
     28 H7         -0.5632   -3.9586   -0.6038 H         1 <0>         0.0899
     29 H8          0.5981   -2.6181   -0.4527 H         1 <0>         0.0866
     30 H9         -2.5645   -4.5348    0.4181 H         1 <0>         0.0700
     31 H10        -4.2052   -3.8634    0.5778 H         1 <0>         0.0793
     32 H11        -4.3187   -3.5559   -1.8801 H         1 <0>         0.0580
     33 H12        -2.6780   -4.2273   -2.0398 H         1 <0>         0.0510
@<TRIPOS>BOND
     1    1    6 ar
     2    1    2 ar
     3    1   22 1
     4    2    3 ar
     5    2   23 1
     6    3    4 ar
     7    3   21 1
     8    4    5 ar
     9    4   24 1
    10    5    6 ar
    11    5   25 1
    12    6    7 1
    13    7   11 1
    14    7    8 2
    15    8    9 1
    16    8   26 1
    17    9   10 2
    18    9   27 1
    19   10   11 1
    20   10   16 1
    21   11   12 1
    22   12   13 1
    23   12   28 1
    24   12   29 1
    25   13   14 2
    26   13   15 1
    27   16   17 1
    28   16   30 1
    29   16   31 1
    30   17   18 1
    31   17   32 1
    32   17   33 1
    33   18   19 2
    34   18   20 1
@<TRIPOS>MOLECULE
ZINC00094783
   30    31     0     0     0
SMALL
USER_CHARGES
3-[1-(carboxymethyl)-5-(2-thienyl)pyrrol-2-yl]propanoic acid
@<TRIPOS>ATOM
      1 C1         -2.8329    0.7948   -4.8557 C.2       1 <0>        -0.1414
      2 C2         -3.3317    0.3646   -3.6456 C.2       1 <0>        -0.1913
      3 C3         -2.7067    0.7710   -2.4944 C.2       1 <0>        -0.0310
      4 S1         -1.3871    1.7900   -3.1330 S.3       1 <0>         0.0766
      5 C4         -1.7430    1.6040   -4.8724 C.2       1 <0>        -0.2283
      6 C5         -3.0411    0.4544   -1.0954 C.2       1 <0>         0.0585
      7 C6         -4.0114   -0.4092   -0.6764 C.2       1 <0>        -0.1583
      8 C7         -3.9946   -0.4083    0.7278 C.2       1 <0>        -0.2185
      9 C8         -3.0234    0.4406    1.1272 C.2       1 <0>         0.0772
     10 N1         -2.4300    0.9727    0.0189 N.pl3     1 <0>        -0.3980
     11 C9         -1.3295    1.9397    0.0189 C.3       1 <0>         0.0446
     12 C10        -0.0143    1.2041    0.0087 C.2       1 <0>         0.4596
     13 O1          0.0021   -0.0041    0.0020 O.co2     1 <0>        -0.6057
     14 C11        -2.6566    0.7492    2.5560 C.3       1 <0>        -0.0325
     15 C12        -1.6733   -0.3048    3.0691 C.3       1 <0>        -0.1509
     16 C13        -1.3066    0.0038    4.4979 C.2       1 <0>         0.4667
     17 O2         -1.7828    0.9677    5.0492 O.co2     1 <0>        -0.6509
     18 H1         -3.3029    0.4916   -5.7796 H         1 <0>         0.1235
     19 H2         -4.1974   -0.2799   -3.6044 H         1 <0>         0.1301
     20 H3         -1.2264    2.0292   -5.7201 H         1 <0>         0.1760
     21 H4         -4.6727   -0.9837   -1.3080 H         1 <0>         0.1301
     22 H5         -4.6424   -0.9836    1.3727 H         1 <0>         0.1337
     23 H6         -1.3915    2.5607    0.9126 H         1 <0>         0.0988
     24 H7         -1.4000    2.5704   -0.8673 H         1 <0>         0.0868
     25 H8         -2.1929    1.7343    2.6075 H         1 <0>         0.0642
     26 H9         -3.5555    0.7380    3.1724 H         1 <0>         0.0794
     27 H10        -2.1370   -1.2899    3.0176 H         1 <0>         0.0633
     28 H11        -0.7744   -0.2937    2.4527 H         1 <0>         0.0796
     29 O3          1.1389    1.8910    0.0013 O.co2     1 <0>        -0.7607
     30 O4         -0.4509   -0.7923    5.1580 O.co2     1 <0>        -0.7811
@<TRIPOS>BOND
     1    1    5 2
     2    1    2 1
     3    1   18 1
     4    2    3 2
     5    2   19 1
     6    3    4 1
     7    3    6 1
     8    4    5 1
     9    5   20 1
    10    6   10 1
    11    6    7 2
    12    7    8 1
    13    7   21 1
    14    8    9 2
    15    8   22 1
    16    9   10 1
    17    9   14 1
    18   10   11 1
    19   11   12 1
    20   11   23 1
    21   11   24 1
    22   12   13 2
    23   12   29 1
    24   14   15 1
    25   14   25 1
    26   14   26 1
    27   15   16 1
    28   15   27 1
    29   15   28 1
    30   16   17 2
    31   16   30 1
@<TRIPOS>MOLECULE
ZINC02915127
   35    37     0     0     0
SMALL
USER_CHARGES
3-[5-[[3-(carboxymethyl)-4-oxo-2-thioxo-thiazolidin-5-ylidene]methyl]-2-furyl]benzoic acid
@<TRIPOS>ATOM
      1 C1          3.7222    2.2598   -1.1741 C.ar      1 <0>        -0.1468
      2 C2          3.6967    3.6029   -0.8552 C.ar      1 <0>        -0.0951
      3 C3          2.4841    4.2984   -0.8422 C.ar      1 <0>        -0.0688
      4 C4          1.2987    3.6319   -1.1520 C.ar      1 <0>        -0.0447
      5 C5          1.3326    2.2764   -1.4722 C.ar      1 <0>        -0.1116
      6 C6          2.5516    1.5928   -1.4760 C.ar      1 <0>        -0.0613
      7 C7          0.0819    1.5619   -1.8012 C.2       1 <0>         0.4794
      8 O1         -0.9768    2.1573   -1.7975 O.co2     1 <0>        -0.5954
      9 C8          2.4583    5.7342   -0.5012 C.2       1 <0>         0.1055
     10 C9          3.5458    6.4945   -0.1757 C.2       1 <0>        -0.2308
     11 C10         3.0840    7.7900    0.0706 C.2       1 <0>        -0.1356
     12 C11         1.7121    7.7649   -0.1083 C.2       1 <0>        -0.0443
     13 O2          1.3593    6.5088   -0.4539 O.3       1 <0>        -0.1049
     14 C12         0.8355    8.8607    0.0436 C.2       1 <0>         0.0887
     15 C13        -0.5134    8.6733   -0.0472 C.2       1 <0>        -0.2266
     16 C14        -1.2871    7.4211   -0.0739 C.2       1 <0>         0.5239
     17 O3         -0.7434    6.3330   -0.0119 O.2       1 <0>        -0.4102
     18 N1         -2.6014    7.5354   -0.1642 N.am      1 <0>        -0.4833
     19 C15        -3.1992    8.7421   -0.2405 C.2       1 <0>         0.3185
     20 S1         -4.8694    9.0959   -0.3688 S.2       1 <0>        -0.3857
     21 S2         -1.8254    9.8808   -0.1744 S.3       1 <0>         0.0277
     22 C16        -3.4257    6.3246   -0.1891 C.3       1 <0>         0.0352
     23 C17        -3.6070    5.8695   -1.6143 C.2       1 <0>         0.4710
     24 O4         -3.0996    6.4927   -2.5166 O.co2     1 <0>        -0.6294
     25 H1          4.6617    1.7273   -1.1826 H         1 <0>         0.1214
     26 H2          4.6155    4.1174   -0.6156 H         1 <0>         0.1194
     27 H3          0.3589    4.1640   -1.1432 H         1 <0>         0.1431
     28 H4          2.5786    0.5411   -1.7202 H         1 <0>         0.1335
     29 H5          4.5705    6.1578   -0.1213 H         1 <0>         0.1534
     30 H6          3.6817    8.6448    0.3509 H         1 <0>         0.1565
     31 H7          1.2322    9.8475    0.2317 H         1 <0>         0.1744
     32 H8         -2.9339    5.5383    0.3836 H         1 <0>         0.1094
     33 H9         -4.3998    6.5391    0.2505 H         1 <0>         0.1138
     34 O5          0.1165    0.2513   -2.1107 O.co2     1 <0>        -0.7653
     35 O6         -4.3321    4.7719   -1.8813 O.co2     1 <0>        -0.7350
@<TRIPOS>BOND
     1    1    6 ar
     2    1    2 ar
     3    1   25 1
     4    2    3 ar
     5    2   26 1
     6    3    4 ar
     7    3    9 1
     8    4    5 ar
     9    4   27 1
    10    5    6 ar
    11    5    7 1
    12    6   28 1
    13    7    8 2
    14    7   34 1
    15    9   13 1
    16    9   10 2
    17   10   11 1
    18   10   29 1
    19   11   12 2
    20   11   30 1
    21   12   13 1
    22   12   14 1
    23   14   15 2
    24   14   31 1
    25   15   21 1
    26   15   16 1
    27   16   17 2
    28   16   18 am
    29   18   19 1
    30   18   22 1
    31   19   20 2
    32   19   21 1
    33   22   23 1
    34   22   32 1
    35   22   33 1
    36   23   24 2
    37   23   35 1
@<TRIPOS>MOLECULE
ZINC14252145
   56    56     0     0     0
SMALL
USER_CHARGES
(2E)-2-[(4,5-dimethoxy-2-methyl-3,6-dioxo-1-cyclohexa-1,4-dienyl)methylene]undecanoic acid
@<TRIPOS>ATOM
      1 C1         -5.1840   -6.4954    3.6590 C.3       1 <0>        -0.1530
      2 C2         -5.0983   -5.0109    4.0192 C.3       1 <0>        -0.1261
      3 C3         -4.7742   -4.1993    2.7634 C.3       1 <0>        -0.1207
      4 C4         -4.6884   -2.7147    3.1236 C.3       1 <0>        -0.1208
      5 C5         -4.3643   -1.9031    1.8677 C.3       1 <0>        -0.1194
      6 C6         -4.2786   -0.4186    2.2279 C.3       1 <0>        -0.1191
      7 C7         -3.9545    0.3930    0.9721 C.3       1 <0>        -0.1164
      8 C8         -3.8687    1.8775    1.3323 C.3       1 <0>        -0.1072
      9 C9         -3.5446    2.6891    0.0764 C.3       1 <0>        -0.0753
     10 C10        -3.4601    4.1513    0.4312 C.2       1 <0>        -0.0740
     11 C11        -2.2621    4.7095    0.7178 C.2       1 <0>        -0.1503
     12 C12        -1.0336    3.9213    0.5772 C.2       1 <0>        -0.0407
     13 C13        -0.3027    3.5967    1.6760 C.2       1 <0>        -0.1407
     14 C14         0.9317    2.8043    1.5312 C.2       1 <0>         0.4384
     15 O1          1.5850    2.5143    2.5142 O.2       1 <0>        -0.4012
     16 C15         1.3759    2.3631    0.1959 C.2       1 <0>         0.0755
     17 C16         0.6519    2.6833   -0.9030 C.2       1 <0>        -0.0666
     18 C17        -0.5811    3.4797   -0.7680 C.2       1 <0>         0.4001
     19 O2         -1.2279    3.7714   -1.7535 O.2       1 <0>        -0.3967
     20 O3          1.0650    2.2752   -2.1300 O.3       1 <0>        -0.3069
     21 C18         1.4465    3.2930   -3.0577 C.3       1 <0>         0.0144
     22 O4          2.5130    1.6338    0.0680 O.3       1 <0>        -0.2868
     23 C19         2.8909    1.2480   -1.2550 C.3       1 <0>         0.0317
     24 C20        -0.7537    4.0471    3.0416 C.3       1 <0>        -0.1066
     25 C21        -4.6762    4.9684    0.4656 C.2       1 <0>         0.4832
     26 O5         -4.6080    6.1481    0.7519 O.co2     1 <0>        -0.6300
     27 H1         -5.9688   -6.6446    2.9175 H         1 <0>         0.0528
     28 H2         -4.2295   -6.8256    3.2493 H         1 <0>         0.0524
     29 H3         -5.4149   -7.0736    4.5537 H         1 <0>         0.0514
     30 H4         -4.3135   -4.8617    4.7608 H         1 <0>         0.0597
     31 H5         -6.0528   -4.6807    4.4290 H         1 <0>         0.0603
     32 H6         -5.5590   -4.3484    2.0218 H         1 <0>         0.0602
     33 H7         -3.8196   -4.5295    2.3537 H         1 <0>         0.0594
     34 H8         -3.9036   -2.5655    3.8652 H         1 <0>         0.0597
     35 H9         -5.6430   -2.3845    3.5333 H         1 <0>         0.0610
     36 H10        -5.1491   -2.0523    1.1261 H         1 <0>         0.0605
     37 H11        -3.4098   -2.2333    1.4580 H         1 <0>         0.0582
     38 H12        -3.4938   -0.2694    2.9695 H         1 <0>         0.0586
     39 H13        -5.2331   -0.0884    2.6376 H         1 <0>         0.0629
     40 H14        -4.7393    0.2438    0.2305 H         1 <0>         0.0630
     41 H15        -2.9999    0.0628    0.5624 H         1 <0>         0.0539
     42 H16        -3.0839    2.0267    2.0738 H         1 <0>         0.0526
     43 H17        -4.8233    2.2077    1.7420 H         1 <0>         0.0742
     44 H18        -4.3294    2.5399   -0.6652 H         1 <0>         0.0812
     45 H19        -2.5900    2.3589   -0.3333 H         1 <0>         0.0458
     46 H20        -2.2102    5.7358    1.0501 H         1 <0>         0.1445
     47 H21         0.6267    4.0013   -3.1774 H         1 <0>         0.0647
     48 H22         2.3263    3.8155   -2.6823 H         1 <0>         0.0485
     49 H23         1.6774    2.8384   -4.0211 H         1 <0>         0.0999
     50 H24         3.0250    2.1387   -1.8689 H         1 <0>         0.0629
     51 H25         3.8257    0.6887   -1.2173 H         1 <0>         0.0923
     52 H26         2.1104    0.6224   -1.6880 H         1 <0>         0.0763
     53 H27        -0.0462    3.6951    3.7923 H         1 <0>         0.0766
     54 H28        -0.8001    5.1358    3.0681 H         1 <0>         0.0844
     55 H29        -1.7412    3.6362    3.2519 H         1 <0>         0.0850
     56 O6         -5.8710    4.4117    0.1798 O.co2     1 <0>        -0.7477
@<TRIPOS>BOND
     1    1    2 1
     2    1   27 1
     3    1   28 1
     4    1   29 1
     5    2    3 1
     6    2   30 1
     7    2   31 1
     8    3    4 1
     9    3   32 1
    10    3   33 1
    11    4    5 1
    12    4   34 1
    13    4   35 1
    14    5    6 1
    15    5   36 1
    16    5   37 1
    17    6    7 1
    18    6   38 1
    19    6   39 1
    20    7    8 1
    21    7   40 1
    22    7   41 1
    23    8    9 1
    24    8   42 1
    25    8   43 1
    26    9   10 1
    27    9   44 1
    28    9   45 1
    29   10   11 2
    30   10   25 1
    31   11   12 1
    32   11   46 1
    33   12   18 1
    34   12   13 2
    35   13   14 1
    36   13   24 1
    37   14   15 2
    38   14   16 1
    39   16   17 2
    40   16   22 1
    41   17   18 1
    42   17   20 1
    43   18   19 2
    44   20   21 1
    45   21   47 1
    46   21   48 1
    47   21   49 1
    48   22   23 1
    49   23   50 1
    50   23   51 1
    51   23   52 1
    52   24   53 1
    53   24   54 1
    54   24   55 1
    55   25   26 2
    56   25   56 1
