@<TRIPOS>MOLECULE
ZINC00895081
   18    17     0     0     0
SMALL
USER_CHARGES

@<TRIPOS>ATOM
      1 C1         -0.0184    1.5028    0.0103 C.3       1 <0>        -0.1911
      2 C2          0.0021   -0.0041    0.0020 C.2       1 <0>         0.4909
      3 O1          1.0661   -0.5992   -0.0113 O.co2     1 <0>        -0.6418
      4 O2         -1.0454   -0.6280    0.0087 O.co2     1 <0>        -0.7598
      5 C3          1.4170    2.0324   -0.0006 C.3       1 <0>         0.1037
      6 C4          1.3994    3.5564    0.1335 C.3       1 <0>        -0.1923
      7 C5          2.8132    4.0780    0.1228 C.2       1 <0>         0.4911
      8 O3          3.7482    3.3027    0.0177 O.co2     1 <0>        -0.6435
      9 O4          3.0220    5.2753    0.2193 O.co2     1 <0>        -0.7595
     10 C6          2.1814    1.4354    1.1529 C.2       1 <0>         0.5668
     11 O5          3.1755    0.7618    0.9419 O.co2     1 <0>        -0.6655
     12 O6          1.8058    1.6261    2.2970 O.co2     1 <0>        -0.7555
     13 O7          2.0493    1.6696   -1.2297 O.3       1 <0>        -0.5014
     14 H1         -0.5455    1.8639   -0.8728 H         1 <0>         0.0253
     15 H2         -0.5286    1.8543    0.9071 H         1 <0>         0.0509
     16 H3          0.8465    3.9881   -0.7007 H         1 <0>         0.0248
     17 H4          0.9171    3.8331    1.0711 H         1 <0>         0.0525
     18 H5          1.6098    2.0202   -2.0165 H         1 <0>         0.3045
@<TRIPOS>BOND
     1    1    2 1
     2    1    5 1
     3    1   14 1
     4    1   15 1
     5    2    3 2
     6    2    4 1
     7    5    6 1
     8    5   10 1
     9    5   13 1
    10    6    7 1
    11    6   16 1
    12    6   17 1
    13    7    8 2
    14    7    9 1
    15   10   11 2
    16   10   12 1
    17   13   18 1
@<TRIPOS>MOLECULE
ZINC00895081
   19    18     0     0     0
SMALL
USER_CHARGES

@<TRIPOS>ATOM
      1 C1         -0.0184    1.5028    0.0103 C.3       1 <0>        -0.1234
      2 C2          0.0021   -0.0041    0.0020 C.2       1 <0>         0.4548
      3 O1          1.0565   -0.5939   -0.0112 O.2       1 <0>        -0.4540
      4 O2         -1.1511   -0.6910    0.0093 O.3       1 <0>        -0.5313
      5 C3          1.4170    2.0324   -0.0006 C.3       1 <0>         0.0901
      6 C4          1.3994    3.5564    0.1335 C.3       1 <0>        -0.1924
      7 C5          2.8132    4.0780    0.1228 C.2       1 <0>         0.4906
      8 O3          3.7482    3.3027    0.0177 O.co2     1 <0>        -0.6439
      9 O4          3.0220    5.2753    0.2193 O.co2     1 <0>        -0.7413
     10 C6          2.1814    1.4354    1.1529 C.2       1 <0>         0.5440
     11 O5          3.1755    0.7618    0.9419 O.co2     1 <0>        -0.6492
     12 O6          1.8058    1.6261    2.2970 O.co2     1 <0>        -0.7335
     13 O7          2.0493    1.6696   -1.2297 O.3       1 <0>        -0.5036
     14 H1         -0.5455    1.8639   -0.8728 H         1 <0>         0.0801
     15 H2         -0.5286    1.8543    0.9071 H         1 <0>         0.1031
     16 H3          0.8465    3.9881   -0.7007 H         1 <0>         0.0380
     17 H4          0.9171    3.8331    1.0711 H         1 <0>         0.0632
     18 H5          1.6098    2.0202   -2.0165 H         1 <0>         0.3211
     19 H6         -1.0370   -1.6512    0.0031 H         1 <0>         0.3877
@<TRIPOS>BOND
     1    1    2 1
     2    1    5 1
     3    1   14 1
     4    1   15 1
     5    2    3 2
     6    2    4 1
     7    4   19 1
     8    5    6 1
     9    5   10 1
    10    5   13 1
    11    6    7 1
    12    6   16 1
    13    6   17 1
    14    7    8 2
    15    7    9 1
    16   10   11 2
    17   10   12 1
    18   13   18 1
