@<TRIPOS>MOLECULE
ZINC03875959
   61    65     0     0     0
SMALL
USER_CHARGES

@<TRIPOS>ATOM
      1 C1         -0.1412    1.4640    0.0296 C.3       1 <0>        -0.1488
      2 C2         -0.0601   -0.0639    0.0229 C.3       1 <0>        -0.0443
      3 C3         -1.4735   -0.6492    0.0337 C.3       1 <0>        -0.1058
      4 C4         -1.3929   -2.1771    0.0281 C.3       1 <0>        -0.1540
      5 C5         -0.6340   -2.6524    1.2686 C.3       1 <0>         0.1045
      6 H1         -0.5767   -3.7409    1.2646 H         1 <0>         0.0504
      7 C6          0.7797   -2.0673    1.2567 C.3       1 <0>        -0.1093
      8 C7          0.6988   -0.5394    1.2632 C.3       1 <0>        -0.0694
      9 H2          0.1750   -0.2071    2.1595 H         1 <0>         0.0783
     10 C8          2.1121    0.0464    1.2515 C.3       1 <0>        -0.1169
     11 C9          2.8475   -0.4193   -0.0065 C.3       1 <0>        -0.1187
     12 C10         2.0877    0.0545   -1.2476 C.3       1 <0>        -0.1002
     13 H3          2.0154    1.1416   -1.2169 H         1 <0>         0.0827
     14 C11         0.6750   -0.5298   -1.2357 C.3       1 <0>        -0.0685
     15 H4          0.7278   -1.6184   -1.2476 H         1 <0>         0.0778
     16 C12        -0.0711   -0.0222   -2.4742 C.3       1 <0>        -0.1216
     17 C13         0.6353   -0.5522   -3.7191 C.3       1 <0>        -0.1105
     18 C14         2.0669   -0.0169   -3.7991 C.3       1 <0>        -0.0306
     19 C15         2.8255   -0.3440   -2.5023 C.3       1 <0>         0.1501
     20 C16         3.0775   -1.8609   -2.5847 C.3       1 <0>        -0.1487
     21 C17         3.4037   -2.0908   -4.0784 C.3       1 <0>        -0.1135
     22 C18         2.8066   -0.8784   -4.8571 C.3       1 <0>        -0.0381
     23 H5          2.0978   -1.2567   -5.5937 H         1 <0>         0.0911
     24 C19         3.8732   -0.0594   -5.5374 C.2       1 <0>        -0.0514
     25 C20         3.8949    0.3101   -6.8162 C.2       1 <0>        -0.2530
     26 C21         5.1073    1.0960   -7.0658 C.2       1 <0>         0.4942
     27 O1          5.4187    1.5794   -8.1365 O.2       1 <0>        -0.4622
     28 O2          5.8229    1.2023   -5.9311 O.3       1 <0>        -0.3260
     29 C22         5.1195    0.5053   -4.8976 C.3       1 <0>         0.0604
     30 O3          4.0868    0.3269   -2.5383 O.3       1 <0>        -0.5595
     31 C23         2.0931    1.4701   -4.1582 C.3       1 <0>        -0.1387
     32 O4         -1.3204   -2.2158    2.4434 O.3       1 <0>        -0.5629
     33 H6          0.8658    1.8813    0.0218 H         1 <0>         0.0607
     34 H7         -0.6819    1.8030   -0.8540 H         1 <0>         0.0566
     35 H8         -0.6651    1.7961    0.9259 H         1 <0>         0.0533
     36 H9         -1.9978   -0.3163    0.9295 H         1 <0>         0.0678
     37 H10        -2.0138   -0.3106   -0.8504 H         1 <0>         0.0636
     38 H11        -2.4000   -2.5940    0.0363 H         1 <0>         0.0621
     39 H12        -0.8692   -2.5100   -0.8680 H         1 <0>         0.0724
     40 H13         1.3208   -2.4063    2.1401 H         1 <0>         0.0662
     41 H14         1.3030   -2.3997    0.3602 H         1 <0>         0.0777
     42 H15         2.0542    1.1349    1.2564 H         1 <0>         0.0663
     43 H16         2.6532   -0.2925    2.1349 H         1 <0>         0.0619
     44 H17         3.8539   -0.0006   -0.0149 H         1 <0>         0.0603
     45 H18         2.9070   -1.5076   -0.0106 H         1 <0>         0.0663
     46 H19        -1.0995   -0.3832   -2.4554 H         1 <0>         0.0694
     47 H20        -0.0633    1.0677   -2.4850 H         1 <0>         0.0704
     48 H21         0.6609   -1.6412   -3.6810 H         1 <0>         0.0671
     49 H22         0.0845   -0.2377   -4.6056 H         1 <0>         0.0684
     50 H23         3.9238   -2.1441   -1.9589 H         1 <0>         0.0753
     51 H24         2.1837   -2.4147   -2.2972 H         1 <0>         0.0784
     52 H25         4.4834   -2.1011   -4.2275 H         1 <0>         0.0683
     53 H26         2.9709   -3.0332   -4.4143 H         1 <0>         0.0743
     54 H27         3.1411    0.0697   -7.5512 H         1 <0>         0.1630
     55 H28         4.8500    1.1931   -4.0961 H         1 <0>         0.1464
     56 H29         5.7380   -0.3023   -4.5061 H         1 <0>         0.1112
     57 H30         4.6581    0.1310   -1.7831 H         1 <0>         0.3746
     58 H31         1.4877    2.0272   -3.4433 H         1 <0>         0.0609
     59 H32         3.1202    1.8337   -4.1257 H         1 <0>         0.0680
     60 H33         1.6902    1.6088   -5.1615 H         1 <0>         0.0568
     61 H34        -2.2251   -2.5493    2.5172 H         1 <0>         0.3754
@<TRIPOS>BOND
     1    1    2 1
     2    1   33 1
     3    1   34 1
     4    1   35 1
     5    2    8 1
     6    2   14 1
     7    2    3 1
     8    3    4 1
     9    3   36 1
    10    3   37 1
    11    4    5 1
    12    4   38 1
    13    4   39 1
    14    5    6 1
    15    5    7 1
    16    5   32 1
    17    7    8 1
    18    7   40 1
    19    7   41 1
    20    8    9 1
    21    8   10 1
    22   10   11 1
    23   10   42 1
    24   10   43 1
    25   11   12 1
    26   11   44 1
    27   11   45 1
    28   12   13 1
    29   12   19 1
    30   12   14 1
    31   14   15 1
    32   14   16 1
    33   16   17 1
    34   16   46 1
    35   16   47 1
    36   17   18 1
    37   17   48 1
    38   17   49 1
    39   18   22 1
    40   18   19 1
    41   18   31 1
    42   19   20 1
    43   19   30 1
    44   20   21 1
    45   20   50 1
    46   20   51 1
    47   21   22 1
    48   21   52 1
    49   21   53 1
    50   22   23 1
    51   22   24 1
    52   24   29 1
    53   24   25 2
    54   25   26 1
    55   25   54 1
    56   26   27 2
    57   26   28 1
    58   28   29 1
    59   29   55 1
    60   29   56 1
    61   30   57 1
    62   31   58 1
    63   31   59 1
    64   31   60 1
    65   32   61 1
@<TRIPOS>MOLECULE
ZINC03897189
   61    65     0     0     0
SMALL
USER_CHARGES
4-(3,14-dihydroxy-10,13-dimethyl-1,2,3,4,5,6,7,8,9,11,12,15,16,17-tetradecahydrocyclopenta[a]phenanthren-17-yl)-5H-furan-2-one
@<TRIPOS>ATOM
      1 C1         -0.7284    3.1088    2.0991 C.3       1 <0>        -0.1485
      2 C2         -0.0419    2.7542    0.7718 C.3       1 <0>        -0.0425
      3 C3          1.3523    3.3674    0.7296 C.3       1 <0>        -0.1011
      4 C4          2.2076    2.8270    1.8730 C.3       1 <0>        -0.1519
      5 C5          2.3060    1.3075    1.8048 C.3       1 <0>         0.1129
      6 H1          2.8216    0.9583    2.7151 H         1 <0>         0.0425
      7 C6          0.9338    0.6515    1.7522 C.3       1 <0>        -0.1073
      8 C7          0.0459    1.2312    0.6574 C.3       1 <0>        -0.0658
      9 H2         -0.9715    0.8268    0.8011 H         1 <0>         0.0599
     10 C8          0.5339    0.7739   -0.7132 C.3       1 <0>        -0.1142
     11 C9         -0.3632    1.3509   -1.8221 C.3       1 <0>        -0.1128
     12 C10        -0.2725    2.8683   -1.7008 C.3       1 <0>        -0.1019
     13 H3          0.8112    3.1127   -1.6378 H         1 <0>         0.0777
     14 C11        -0.9056    3.2909   -0.3747 C.3       1 <0>        -0.0659
     15 H4         -1.8773    2.8057   -0.2534 H         1 <0>         0.0741
     16 C12        -1.0818    4.7978   -0.3404 C.3       1 <0>        -0.1065
     17 C13        -2.0798    5.2754   -1.4118 C.3       1 <0>        -0.1053
     18 C14        -2.1811    4.2963   -2.5478 C.3       1 <0>        -0.0272
     19 C15        -0.8170    3.6472   -2.8572 C.3       1 <0>         0.1508
     20 C16        -1.1301    2.8529   -4.1356 C.3       1 <0>        -0.1456
     21 C17        -2.0428    3.8204   -4.9362 C.3       1 <0>        -0.1179
     22 C18        -2.5985    4.8501   -3.9191 C.3       1 <0>        -0.0307
     23 H5         -3.6930    4.8612   -3.9755 H         1 <0>         0.0905
     24 C19        -2.0541    6.2266   -4.2021 C.2       1 <0>        -0.0655
     25 C20        -1.0128    6.5228   -4.9755 C.2       1 <0>        -0.2114
     26 C21        -0.8109    7.9741   -4.9902 C.2       1 <0>         0.4940
     27 O1          0.0611    8.5509   -5.6099 O.2       1 <0>        -0.4620
     28 O2         -1.7312    8.5737   -4.2120 O.3       1 <0>        -0.3275
     29 C22        -2.5826    7.5325   -3.6562 C.3       1 <0>         0.0589
     30 O3          0.1476    4.6682   -3.1962 O.3       1 <0>        -0.5556
     31 C23        -3.2424    3.2282   -2.2143 C.3       1 <0>        -0.1550
     32 O4          3.0972    0.9163    0.6826 O.3       1 <0>        -0.5621
     33 H6         -1.7173    2.6514    2.1302 H         1 <0>         0.0535
     34 H7         -0.1290    2.7353    2.9293 H         1 <0>         0.0567
     35 H8         -0.8261    4.1914    2.1797 H         1 <0>         0.0571
     36 H9          1.8382    3.1311   -0.2189 H         1 <0>         0.0691
     37 H10         1.2748    4.4544    0.8217 H         1 <0>         0.0602
     38 H11         1.8035    3.1354    2.8350 H         1 <0>         0.0719
     39 H12         3.2170    3.2510    1.7824 H         1 <0>         0.0595
     40 H13         0.4422    0.7460    2.7232 H         1 <0>         0.0745
     41 H14         1.0667   -0.4237    1.5611 H         1 <0>         0.0666
     42 H15         0.5092   -0.3141   -0.7688 H         1 <0>         0.0569
     43 H16         1.5522    1.1221   -0.8828 H         1 <0>         0.0806
     44 H17         0.0091    1.0280   -2.7908 H         1 <0>         0.0647
     45 H18        -1.3844    1.0164   -1.6723 H         1 <0>         0.0623
     46 H19        -1.4500    5.1201    0.6379 H         1 <0>         0.0619
     47 H20        -0.1149    5.2842   -0.5125 H         1 <0>         0.0649
     48 H21        -3.0703    5.3907   -0.9416 H         1 <0>         0.0590
     49 H22        -1.7684    6.2683   -1.7465 H         1 <0>         0.0668
     50 H23        -1.6408    1.9212   -3.9126 H         1 <0>         0.0808
     51 H24        -0.2095    2.6543   -4.6900 H         1 <0>         0.0696
     52 H25        -2.8635    3.2688   -5.3940 H         1 <0>         0.0707
     53 H26        -1.4634    4.3321   -5.7041 H         1 <0>         0.0747
     54 H27        -0.4105    5.8044   -5.5118 H         1 <0>         0.1639
     55 H28        -3.6145    7.6820   -3.9739 H         1 <0>         0.1154
     56 H29        -2.5198    7.5374   -2.5680 H         1 <0>         0.1194
     57 H30         1.0175    4.3225   -3.4388 H         1 <0>         0.3718
     58 H31        -4.1714    3.7179   -1.9226 H         1 <0>         0.0624
     59 H32        -3.4196    2.6058   -3.0915 H         1 <0>         0.0616
     60 H33        -2.8862    2.6060   -1.3933 H         1 <0>         0.0721
     61 H34         3.9814    1.3075    0.6693 H         1 <0>         0.3744
@<TRIPOS>BOND
     1    1    2 1
     2    1   33 1
     3    1   34 1
     4    1   35 1
     5    2    8 1
     6    2   14 1
     7    2    3 1
     8    3    4 1
     9    3   36 1
    10    3   37 1
    11    4    5 1
    12    4   38 1
    13    4   39 1
    14    5    6 1
    15    5    7 1
    16    5   32 1
    17    7    8 1
    18    7   40 1
    19    7   41 1
    20    8    9 1
    21    8   10 1
    22   10   11 1
    23   10   42 1
    24   10   43 1
    25   11   12 1
    26   11   44 1
    27   11   45 1
    28   12   13 1
    29   12   19 1
    30   12   14 1
    31   14   15 1
    32   14   16 1
    33   16   17 1
    34   16   46 1
    35   16   47 1
    36   17   18 1
    37   17   48 1
    38   17   49 1
    39   18   22 1
    40   18   19 1
    41   18   31 1
    42   19   20 1
    43   19   30 1
    44   20   21 1
    45   20   50 1
    46   20   51 1
    47   21   22 1
    48   21   52 1
    49   21   53 1
    50   22   23 1
    51   22   24 1
    52   24   29 1
    53   24   25 2
    54   25   26 1
    55   25   54 1
    56   26   27 2
    57   26   28 1
    58   28   29 1
    59   29   55 1
    60   29   56 1
    61   30   57 1
    62   31   58 1
    63   31   59 1
    64   31   60 1
    65   32   61 1
@<TRIPOS>MOLECULE
ZINC03897190
   61    65     0     0     0
SMALL
USER_CHARGES
4-(3,14-dihydroxy-10,13-dimethyl-1,2,3,4,5,6,7,8,9,11,12,15,16,17-tetradecahydrocyclopenta[a]phenanthren-17-yl)-5H-furan-2-one
@<TRIPOS>ATOM
      1 C1          1.6705    0.6276    3.8216 C.3       1 <0>        -0.1436
      2 C2          1.1121   -0.7504    3.4957 C.3       1 <0>        -0.0464
      3 C3          0.2473   -1.2442    4.6598 C.3       1 <0>        -0.1066
      4 C4          1.0944   -1.4676    5.9101 C.3       1 <0>        -0.1513
      5 C5          2.2172   -2.4643    5.6253 C.3       1 <0>         0.1053
      6 H1          1.7869   -3.4234    5.3332 H         1 <0>         0.0518
      7 C6          3.0945   -1.9374    4.4853 C.3       1 <0>        -0.1069
      8 C7          2.2292   -1.7654    3.2413 C.3       1 <0>        -0.0709
      9 H2          1.7526   -2.7375    3.0266 H         1 <0>         0.0646
     10 C8          3.0747   -1.3853    2.0316 C.3       1 <0>        -0.1139
     11 C9          2.1866   -1.3000    0.7803 C.3       1 <0>        -0.1113
     12 C10         1.1029   -0.2566    1.0455 C.3       1 <0>        -0.0982
     13 H3          1.6343    0.6764    1.3256 H         1 <0>         0.0777
     14 C11         0.2484   -0.7059    2.2249 C.3       1 <0>        -0.0667
     15 H4         -0.0390   -1.7589    2.0846 H         1 <0>         0.0732
     16 C12        -0.9997    0.1317    2.3933 C.3       1 <0>        -0.1057
     17 C13        -1.8681    0.1898    1.1237 C.3       1 <0>        -0.1038
     18 C14        -1.1701   -0.4344   -0.0535 C.3       1 <0>        -0.0283
     19 C15         0.2763    0.0931   -0.1565 C.3       1 <0>         0.1477
     20 C16         0.7272   -0.4900   -1.5045 C.3       1 <0>        -0.1440
     21 C17        -0.5215   -0.2756   -2.4030 C.3       1 <0>        -0.1176
     22 C18        -1.7312   -0.1092   -1.4490 C.3       1 <0>        -0.0315
     23 H5         -2.4944   -0.8560   -1.6995 H         1 <0>         0.0905
     24 C19        -2.3160    1.2761   -1.5498 C.2       1 <0>        -0.0655
     25 C20        -1.7487    2.3356   -2.1207 C.2       1 <0>        -0.2127
     26 C21        -2.6434    3.4906   -2.0074 C.2       1 <0>         0.4939
     27 O1         -2.4034    4.6033   -2.4333 O.2       1 <0>        -0.4615
     28 O2         -3.7702    3.1371   -1.3612 O.3       1 <0>        -0.3273
     29 C22        -3.6608    1.7248   -1.0275 C.3       1 <0>         0.0596
     30 O3          0.2654    1.5328   -0.2764 O.3       1 <0>        -0.5554
     31 C23        -1.2258   -1.9676    0.0366 C.3       1 <0>        -0.1542
     32 O4          3.0141   -2.6380    6.7980 O.3       1 <0>        -0.5689
     33 H6          0.8478    1.3245    3.9814 H         1 <0>         0.0563
     34 H7          2.2779    0.5692    4.7248 H         1 <0>         0.0574
     35 H8          2.2857    0.9759    2.9919 H         1 <0>         0.0579
     36 H9         -0.5221   -0.4993    4.8750 H         1 <0>         0.0680
     37 H10        -0.2359   -2.1805    4.3750 H         1 <0>         0.0614
     38 H11         0.4558   -1.8726    6.7035 H         1 <0>         0.0600
     39 H12         1.5161   -0.5266    6.2580 H         1 <0>         0.0726
     40 H13         3.8824   -2.6680    4.2789 H         1 <0>         0.0664
     41 H14         3.5535   -0.9979    4.7754 H         1 <0>         0.0731
     42 H15         3.5676   -0.4297    2.1922 H         1 <0>         0.0655
     43 H16         3.8362   -2.1525    1.8678 H         1 <0>         0.0629
     44 H17         2.7912   -0.9963   -0.0717 H         1 <0>         0.0671
     45 H18         1.7316   -2.2691    0.5930 H         1 <0>         0.0650
     46 H19        -0.7307    1.1585    2.6738 H         1 <0>         0.0627
     47 H20        -1.6088   -0.2789    3.2109 H         1 <0>         0.0613
     48 H21        -2.1162    1.2403    0.9351 H         1 <0>         0.0690
     49 H22        -2.8122   -0.3423    1.3133 H         1 <0>         0.0591
     50 H23         1.5765    0.0756   -1.8953 H         1 <0>         0.0701
     51 H24         0.9804   -1.5421   -1.4238 H         1 <0>         0.0808
     52 H25        -0.6709   -1.1429   -3.0463 H         1 <0>         0.0704
     53 H26        -0.3968    0.6209   -3.0088 H         1 <0>         0.0753
     54 H27        -0.7784    2.3432   -2.5949 H         1 <0>         0.1639
     55 H28        -4.4584    1.1601   -1.5103 H         1 <0>         0.1156
     56 H29        -3.7071    1.5919    0.0533 H         1 <0>         0.1182
     57 H30         1.1451    1.9284   -0.3453 H         1 <0>         0.3726
     58 H31        -0.4862   -2.3164    0.7573 H         1 <0>         0.0727
     59 H32        -2.2203   -2.2768    0.3581 H         1 <0>         0.0636
     60 H33        -1.0104   -2.3972   -0.9418 H         1 <0>         0.0614
     61 H34         2.5227   -2.9701    7.5618 H         1 <0>         0.3779
@<TRIPOS>BOND
     1    1    2 1
     2    1   33 1
     3    1   34 1
     4    1   35 1
     5    2    8 1
     6    2   14 1
     7    2    3 1
     8    3    4 1
     9    3   36 1
    10    3   37 1
    11    4    5 1
    12    4   38 1
    13    4   39 1
    14    5    6 1
    15    5    7 1
    16    5   32 1
    17    7    8 1
    18    7   40 1
    19    7   41 1
    20    8    9 1
    21    8   10 1
    22   10   11 1
    23   10   42 1
    24   10   43 1
    25   11   12 1
    26   11   44 1
    27   11   45 1
    28   12   13 1
    29   12   19 1
    30   12   14 1
    31   14   15 1
    32   14   16 1
    33   16   17 1
    34   16   46 1
    35   16   47 1
    36   17   18 1
    37   17   48 1
    38   17   49 1
    39   18   22 1
    40   18   19 1
    41   18   31 1
    42   19   20 1
    43   19   30 1
    44   20   21 1
    45   20   50 1
    46   20   51 1
    47   21   22 1
    48   21   52 1
    49   21   53 1
    50   22   23 1
    51   22   24 1
    52   24   29 1
    53   24   25 2
    54   25   26 1
    55   25   54 1
    56   26   27 2
    57   26   28 1
    58   28   29 1
    59   29   55 1
    60   29   56 1
    61   30   57 1
    62   31   58 1
    63   31   59 1
    64   31   60 1
    65   32   61 1
@<TRIPOS>MOLECULE
ZINC03897191
   61    65     0     0     0
SMALL
USER_CHARGES
4-(3,14-dihydroxy-10,13-dimethyl-1,2,3,4,5,6,7,8,9,11,12,15,16,17-tetradecahydrocyclopenta[a]phenanthren-17-yl)-5H-furan-2-one
@<TRIPOS>ATOM
      1 C1         -2.4476    0.1903    1.6648 C.3       1 <0>        -0.1486
      2 C2         -1.1228    0.9182    1.3900 C.3       1 <0>        -0.0434
      3 C3         -0.4709    0.3431    0.1401 C.3       1 <0>        -0.1034
      4 C4         -1.3437    0.5907   -1.0904 C.3       1 <0>        -0.1525
      5 C5         -1.5774    2.0914   -1.2648 C.3       1 <0>         0.1065
      6 H1         -0.6214    2.5932   -1.4156 H         1 <0>         0.0535
      7 C6         -2.2660    2.6573   -0.0242 C.3       1 <0>        -0.1082
      8 C7         -1.4102    2.4106    1.2181 C.3       1 <0>        -0.0694
      9 H2         -1.9763    2.7534    2.0969 H         1 <0>         0.0712
     10 C8         -0.1325    3.2402    1.1223 C.3       1 <0>        -0.1184
     11 C9          0.7590    3.0012    2.3503 C.3       1 <0>        -0.1111
     12 C10         1.0834    1.5118    2.3730 C.3       1 <0>        -0.1035
     13 H3          1.4408    1.2534    1.3529 H         1 <0>         0.0773
     14 C11        -0.2108    0.7320    2.6087 C.3       1 <0>        -0.0667
     15 H4         -0.7630    1.1694    3.4448 H         1 <0>         0.0756
     16 C12         0.1043   -0.7208    2.9124 C.3       1 <0>        -0.1065
     17 C13         0.8873   -0.8655    4.2310 C.3       1 <0>        -0.1046
     18 C14         1.6202    0.3995    4.5803 C.3       1 <0>        -0.0270
     19 C15         2.1673    1.0993    3.3201 C.3       1 <0>         0.1502
     20 C16         3.0131    2.2297    3.9295 C.3       1 <0>        -0.1456
     21 C17         3.7081    1.5362    5.1315 C.3       1 <0>        -0.1176
     22 C18         2.8788    0.2668    5.4531 C.3       1 <0>        -0.0305
     23 H5          2.5786    0.2875    6.5072 H         1 <0>         0.0904
     24 C19         3.6776   -0.9793    5.1698 C.2       1 <0>        -0.0675
     25 C20         4.7746   -1.0639    4.4218 C.2       1 <0>        -0.2096
     26 C21         5.2473   -2.4508    4.4008 C.2       1 <0>         0.4936
     27 O1          6.2308   -2.8436    3.8047 O.2       1 <0>        -0.4615
     28 O2          4.4283   -3.2262    5.1357 O.3       1 <0>        -0.3274
     29 C22         3.3815   -2.3717    5.6759 C.3       1 <0>         0.0596
     30 O3          3.0590    0.2105    2.6120 O.3       1 <0>        -0.5544
     31 C23         0.6878    1.3338    5.3772 C.3       1 <0>        -0.1549
     32 O4         -2.4070    2.3112   -2.4095 O.3       1 <0>        -0.5714
     33 H6         -2.2543   -0.8720    1.8143 H         1 <0>         0.0579
     34 H7         -2.9110    0.6048    2.5601 H         1 <0>         0.0545
     35 H8         -3.1174    0.3216    0.8150 H         1 <0>         0.0589
     36 H9         -0.3297   -0.7345    0.2638 H         1 <0>         0.0656
     37 H10         0.5035    0.8050   -0.0257 H         1 <0>         0.0648
     38 H11        -0.8262    0.2070   -1.9757 H         1 <0>         0.0596
     39 H12        -2.2957    0.0750   -0.9957 H         1 <0>         0.0725
     40 H13        -2.3934    3.7386   -0.1539 H         1 <0>         0.0654
     41 H14        -3.2495    2.2090    0.0935 H         1 <0>         0.0724
     42 H15         0.4201    2.9624    0.2249 H         1 <0>         0.0624
     43 H16        -0.3895    4.2991    1.0719 H         1 <0>         0.0638
     44 H17         0.2222    3.2871    3.2499 H         1 <0>         0.0668
     45 H18         1.6731    3.5822    2.2519 H         1 <0>         0.0669
     46 H19        -0.8161   -1.3062    2.9968 H         1 <0>         0.0630
     47 H20         0.6998   -1.1456    2.0967 H         1 <0>         0.0651
     48 H21         1.5619   -1.7205    4.1305 H         1 <0>         0.0665
     49 H22         0.1764   -1.1088    5.0372 H         1 <0>         0.0596
     50 H23         3.7579    2.5721    3.2066 H         1 <0>         0.0696
     51 H24         2.3959    3.0618    4.2544 H         1 <0>         0.0812
     52 H25         4.7275    1.2582    4.8659 H         1 <0>         0.0749
     53 H26         3.7161    2.2030    5.9940 H         1 <0>         0.0707
     54 H27         5.2455   -0.2373    3.9105 H         1 <0>         0.1641
     55 H28         3.4081   -2.3887    6.7655 H         1 <0>         0.1156
     56 H29         2.4060   -2.7015    5.3185 H         1 <0>         0.1185
     57 H30         3.4667    0.6045    1.8286 H         1 <0>         0.3716
     58 H31        -0.0682    1.7479    4.7101 H         1 <0>         0.0719
     59 H32         0.2007    0.7691    6.1722 H         1 <0>         0.0632
     60 H33         1.2716    2.1447    5.8127 H         1 <0>         0.0615
     61 H34        -2.0308    1.9815   -3.2371 H         1 <0>         0.3775
@<TRIPOS>BOND
     1    1    2 1
     2    1   33 1
     3    1   34 1
     4    1   35 1
     5    2    8 1
     6    2   14 1
     7    2    3 1
     8    3    4 1
     9    3   36 1
    10    3   37 1
    11    4    5 1
    12    4   38 1
    13    4   39 1
    14    5    6 1
    15    5    7 1
    16    5   32 1
    17    7    8 1
    18    7   40 1
    19    7   41 1
    20    8    9 1
    21    8   10 1
    22   10   11 1
    23   10   42 1
    24   10   43 1
    25   11   12 1
    26   11   44 1
    27   11   45 1
    28   12   13 1
    29   12   19 1
    30   12   14 1
    31   14   15 1
    32   14   16 1
    33   16   17 1
    34   16   46 1
    35   16   47 1
    36   17   18 1
    37   17   48 1
    38   17   49 1
    39   18   22 1
    40   18   19 1
    41   18   31 1
    42   19   20 1
    43   19   30 1
    44   20   21 1
    45   20   50 1
    46   20   51 1
    47   21   22 1
    48   21   52 1
    49   21   53 1
    50   22   23 1
    51   22   24 1
    52   24   29 1
    53   24   25 2
    54   25   26 1
    55   25   54 1
    56   26   27 2
    57   26   28 1
    58   28   29 1
    59   29   55 1
    60   29   56 1
    61   30   57 1
    62   31   58 1
    63   31   59 1
    64   31   60 1
    65   32   61 1
@<TRIPOS>MOLECULE
ZINC03897192
   61    65     0     0     0
SMALL
USER_CHARGES
4-(3,14-dihydroxy-10,13-dimethyl-1,2,3,4,5,6,7,8,9,11,12,15,16,17-tetradecahydrocyclopenta[a]phenanthren-17-yl)-5H-furan-2-one
@<TRIPOS>ATOM
      1 C1          0.3614    2.0586   -2.7150 C.3       1 <0>        -0.1432
      2 C2          1.2397    1.4357   -1.6370 C.3       1 <0>        -0.0424
      3 C3          2.6924    1.8833   -1.8359 C.3       1 <0>        -0.1040
      4 C4          3.2339    1.3743   -3.1689 C.3       1 <0>        -0.1508
      5 C5          3.1356   -0.1468   -3.2541 C.3       1 <0>         0.1063
      6 H1          3.4697   -0.4747   -4.2421 H         1 <0>         0.0502
      7 C6          1.6884   -0.5968   -3.0418 C.3       1 <0>        -0.1068
      8 C7          1.1948   -0.0943   -1.6889 C.3       1 <0>        -0.0709
      9 H2          1.8835   -0.4726   -0.9143 H         1 <0>         0.0736
     10 C8         -0.1935   -0.6394   -1.3780 C.3       1 <0>        -0.1150
     11 C9         -0.6467   -0.1653    0.0134 C.3       1 <0>        -0.1105
     12 C10        -0.6490    1.3592   -0.0046 C.3       1 <0>        -0.0972
     13 H3         -1.2754    1.6590   -0.8703 H         1 <0>         0.0772
     14 C11         0.7753    1.8595   -0.2409 C.3       1 <0>        -0.0691
     15 H4          1.4628    1.3460    0.4427 H         1 <0>         0.0744
     16 C12         0.8603    3.3536    0.0040 C.3       1 <0>        -0.1062
     17 C13         0.6034    3.6854    1.4867 C.3       1 <0>        -0.1031
     18 C14        -0.2241    2.6209    2.1527 C.3       1 <0>        -0.0298
     19 C15        -1.2683    2.0203    1.1916 C.3       1 <0>         0.1463
     20 C16        -2.0798    1.1146    2.1327 C.3       1 <0>        -0.1445
     21 C17        -2.2122    1.9798    3.4152 C.3       1 <0>        -0.1114
     22 C18        -1.0919    3.0488    3.3472 C.3       1 <0>        -0.0343
     23 H5         -0.4849    2.9951    4.2580 H         1 <0>         0.0900
     24 C19        -1.6776    4.4294    3.1990 C.2       1 <0>        -0.0512
     25 C20        -1.5832    5.4279    4.0734 C.2       1 <0>        -0.2540
     26 C21        -2.2884    6.6024    3.5534 C.2       1 <0>         0.4941
     27 O1         -2.3799    7.6709    4.1252 O.2       1 <0>        -0.4659
     28 O2         -2.8207    6.3227    2.3489 O.3       1 <0>        -0.3350
     29 C22        -2.4784    4.9455    2.0264 C.3       1 <0>         0.0742
     30 O3         -2.1493    3.0599    0.7090 O.3       1 <0>        -0.5617
     31 C23         0.7055    1.5290    2.7211 C.3       1 <0>        -0.1546
     32 O4          3.9719   -0.7397   -2.2579 O.3       1 <0>        -0.5645
     33 H6         -0.6709    1.7394   -2.5719 H         1 <0>         0.0567
     34 H7          0.4185    3.1450   -2.6472 H         1 <0>         0.0554
     35 H8          0.7084    1.7371   -3.6970 H         1 <0>         0.0550
     36 H9          2.7364    2.9740   -1.8202 H         1 <0>         0.0622
     37 H10         3.3012    1.4912   -1.0195 H         1 <0>         0.0649
     38 H11         2.6943    1.8276   -3.9987 H         1 <0>         0.0721
     39 H12         4.2890    1.6640   -3.2538 H         1 <0>         0.0595
     40 H13         1.6548   -1.6920   -3.0503 H         1 <0>         0.0656
     41 H14         1.0617   -0.2263   -3.8479 H         1 <0>         0.0761
     42 H15        -0.1625   -1.7322   -1.3790 H         1 <0>         0.0605
     43 H16        -0.9118   -0.3071   -2.1238 H         1 <0>         0.0618
     44 H17         0.0479   -0.5339    0.7631 H         1 <0>         0.0654
     45 H18        -1.6485   -0.5376    0.2123 H         1 <0>         0.0654
     46 H19         1.8566    3.7169   -0.2682 H         1 <0>         0.0620
     47 H20         0.1259    3.8816   -0.6101 H         1 <0>         0.0659
     48 H21         1.5744    3.7664    2.0012 H         1 <0>         0.0601
     49 H22         0.1317    4.6693    1.5371 H         1 <0>         0.0638
     50 H23        -1.5685    0.1798    2.3333 H         1 <0>         0.0831
     51 H24        -3.0663    0.9202    1.7036 H         1 <0>         0.0711
     52 H25        -2.0855    1.3592    4.3020 H         1 <0>         0.0731
     53 H26        -3.1881    2.4669    3.4346 H         1 <0>         0.0702
     54 H27        -1.0661    5.3801    5.0203 H         1 <0>         0.1606
     55 H28        -1.8786    4.9087    1.1170 H         1 <0>         0.1421
     56 H29        -3.3859    4.3545    1.9024 H         1 <0>         0.1198
     57 H30        -2.8549    2.7402    0.1302 H         1 <0>         0.3742
     58 H31         1.4832    1.9934    3.3274 H         1 <0>         0.0630
     59 H32         0.1252    0.8428    3.3379 H         1 <0>         0.0617
     60 H33         1.1649    0.9792    1.8996 H         1 <0>         0.0727
     61 H34         4.9076   -0.5109   -2.3430 H         1 <0>         0.3758
@<TRIPOS>BOND
     1    1    2 1
     2    1   33 1
     3    1   34 1
     4    1   35 1
     5    2    8 1
     6    2   14 1
     7    2    3 1
     8    3    4 1
     9    3   36 1
    10    3   37 1
    11    4    5 1
    12    4   38 1
    13    4   39 1
    14    5    6 1
    15    5    7 1
    16    5   32 1
    17    7    8 1
    18    7   40 1
    19    7   41 1
    20    8    9 1
    21    8   10 1
    22   10   11 1
    23   10   42 1
    24   10   43 1
    25   11   12 1
    26   11   44 1
    27   11   45 1
    28   12   13 1
    29   12   19 1
    30   12   14 1
    31   14   15 1
    32   14   16 1
    33   16   17 1
    34   16   46 1
    35   16   47 1
    36   17   18 1
    37   17   48 1
    38   17   49 1
    39   18   22 1
    40   18   19 1
    41   18   31 1
    42   19   20 1
    43   19   30 1
    44   20   21 1
    45   20   50 1
    46   20   51 1
    47   21   22 1
    48   21   52 1
    49   21   53 1
    50   22   23 1
    51   22   24 1
    52   24   29 1
    53   24   25 2
    54   25   26 1
    55   25   54 1
    56   26   27 2
    57   26   28 1
    58   28   29 1
    59   29   55 1
    60   29   56 1
    61   30   57 1
    62   31   58 1
    63   31   59 1
    64   31   60 1
    65   32   61 1
