@<TRIPOS>MOLECULE
ZINC26663529
   90    92     0     0     0
SMALL
USER_CHARGES
[(3S,3aR,4S,6S,6aR,7S,8S,9bS)-6-acetoxy-4-butanoyloxy-3,3a-dihydroxy-3,6,9-trimethyl-8-[(Z)-2-methylbut-2-enoyl]oxy-2-oxo-4,5,6a,7,8,9b-hexahydroazuleno[4,5-b]furan-7-yl] hexanoate
@<TRIPOS>ATOM
      1 C1          8.0602   -4.8703   -7.3873 C.3       1 <0>        -0.1555
      2 C2          6.7893   -4.3761   -6.6935 C.3       1 <0>        -0.1257
      3 C3          6.7383   -4.9294   -5.2680 C.3       1 <0>        -0.1212
      4 C4          5.4674   -4.4351   -4.5742 C.3       1 <0>        -0.1104
      5 C5          5.4164   -4.9885   -3.1487 C.3       1 <0>        -0.1160
      6 C6          4.1646   -4.5017   -2.4653 C.2       1 <0>         0.4586
      7 O1          3.3925   -3.7856   -3.0576 O.2       1 <0>        -0.5012
      8 O2          3.9075   -4.8636   -1.1985 O.3       1 <0>        -0.3455
      9 C7          2.6834   -4.3573   -0.6039 C.3       1 <0>         0.1001
     10 H1          2.0141   -4.3204   -1.4761 H         1 <0>         0.1183
     11 C8          2.2245   -5.2465    0.5745 C.3       1 <0>        -0.0759
     12 H2          2.5012   -6.3057    0.4674 H         1 <0>         0.1416
     13 C9          2.8748   -4.6542    1.7925 C.2       1 <0>        -0.0902
     14 C10         3.2484   -3.4182    1.5554 C.2       1 <0>        -0.1006
     15 C11         2.9316   -3.0177    0.1330 C.3       1 <0>         0.0994
     16 H3          3.7115   -2.3848   -0.3155 H         1 <0>         0.1113
     17 O3          1.7399   -2.1890    0.0933 O.3       1 <0>        -0.3030
     18 C12         1.9211   -0.8540    0.1373 C.2       1 <0>         0.4779
     19 O4          3.0444   -0.3952    0.2069 O.2       1 <0>        -0.4959
     20 C13         0.7605    0.0466    0.1010 C.2       1 <0>        -0.1809
     21 C14         0.9394    1.3646    0.1444 C.2       1 <0>        -0.0529
     22 C15         2.3322    1.9336    0.2307 C.3       1 <0>        -0.1341
     23 C16        -0.6323   -0.5223    0.0147 C.3       1 <0>        -0.1136
     24 C17         3.9067   -2.5172    2.5683 C.3       1 <0>        -0.1228
     25 C18         3.1251   -5.4099    3.0555 C.3       1 <0>         0.1346
     26 H4          3.3855   -4.5332    3.6667 H         1 <0>         0.1060
     27 C19         1.9459   -6.3878    3.2783 C.3       1 <0>         0.1500
     28 C20         0.5976   -5.8745    3.0820 C.3       1 <0>         0.0991
     29 H5         -0.0471   -6.3694    3.8232 H         1 <0>         0.1084
     30 C21         0.1035   -6.1397    1.6634 C.3       1 <0>        -0.1620
     31 C22         0.7068   -5.1645    0.6930 C.3       1 <0>         0.1585
     32 C23         0.3306   -3.7480    1.1321 C.3       1 <0>        -0.2601
     33 O5          0.1295   -5.4030   -0.6178 O.3       1 <0>        -0.3495
     34 C24         0.3977   -6.5843   -1.1960 C.2       1 <0>         0.4527
     35 O6          1.0442   -7.4146   -0.6023 O.2       1 <0>        -0.4991
     36 C25        -0.1075   -6.8750   -2.5858 C.3       1 <0>        -0.1570
     37 O7          0.5936   -4.4433    3.3268 O.3       1 <0>        -0.3223
     38 C26        -0.5311   -3.9149    3.8342 C.2       1 <0>         0.4609
     39 O8         -1.4809   -4.6248    4.0662 O.2       1 <0>        -0.4994
     40 C27        -0.6093   -2.4363    4.1146 C.3       1 <0>        -0.1217
     41 C28        -1.9883   -2.0974    4.6842 C.3       1 <0>        -0.1140
     42 C29        -2.0676   -0.5963    4.9689 C.3       1 <0>        -0.1550
     43 C30         2.3817   -6.8387    4.7005 C.3       1 <0>         0.0736
     44 C31         3.9092   -6.7598    4.5964 C.2       1 <0>         0.4658
     45 O9          4.6895   -7.1157    5.4474 O.2       1 <0>        -0.4285
     46 O10         4.2487   -6.2177    3.3776 O.3       1 <0>        -0.3163
     47 C32         1.9251   -8.2710    4.9852 C.3       1 <0>        -0.1780
     48 O11         1.8894   -5.9393    5.6959 O.3       1 <0>        -0.5555
     49 O12         2.1401   -7.4893    2.3890 O.3       1 <0>        -0.5421
     50 H6          8.0968   -4.4725   -8.4122 H         1 <0>         0.0548
     51 H7          8.0558   -5.9698   -7.4207 H         1 <0>         0.0544
     52 H8          8.9417   -4.5240   -6.8278 H         1 <0>         0.0544
     53 H9          6.7937   -3.2766   -6.6601 H         1 <0>         0.0626
     54 H10         5.9078   -4.7224   -7.2530 H         1 <0>         0.0627
     55 H11         6.7339   -6.0289   -5.3014 H         1 <0>         0.0658
     56 H12         7.6198   -4.5831   -4.7085 H         1 <0>         0.0655
     57 H13         5.4719   -3.3356   -4.5408 H         1 <0>         0.0729
     58 H14         4.5859   -4.7813   -5.1337 H         1 <0>         0.0731
     59 H15         5.4120   -6.0880   -3.1822 H         1 <0>         0.1095
     60 H16         6.2979   -4.6423   -2.5892 H         1 <0>         0.1091
     61 H17         0.0706    2.0388    0.1173 H         1 <0>         0.1384
     62 H18         2.2786    3.0320    0.2565 H         1 <0>         0.0598
     63 H19         2.9133    1.6153   -0.6474 H         1 <0>         0.0840
     64 H20         2.8212    1.5688    1.1460 H         1 <0>         0.0845
     65 H21        -1.3636    0.2993   -0.0016 H         1 <0>         0.0710
     66 H22        -0.8210   -1.1639    0.8880 H         1 <0>         0.0708
     67 H23        -0.7289   -1.1175   -0.9053 H         1 <0>         0.0741
     68 H24         4.1139   -1.5393    2.1092 H         1 <0>         0.0822
     69 H25         4.8502   -2.9716    2.9048 H         1 <0>         0.0782
     70 H26         3.2364   -2.3831    3.4301 H         1 <0>         0.0794
     71 H27         0.3861   -7.1590    1.3613 H         1 <0>         0.1188
     72 H28        -0.9913   -6.0380    1.6314 H         1 <0>         0.0910
     73 H29        -0.7629   -3.6705    1.2229 H         1 <0>         0.0530
     74 H30         0.6886   -3.0251    0.3843 H         1 <0>         0.1500
     75 H31         0.7957   -3.5300    2.1048 H         1 <0>         0.1384
     76 H32         0.2096   -7.8841   -2.8876 H         1 <0>         0.1034
     77 H33         0.3051   -6.1357   -3.2880 H         1 <0>         0.0990
     78 H34        -1.2059   -6.8174   -2.5961 H         1 <0>         0.1015
     79 H35         0.1666   -2.1598    4.8437 H         1 <0>         0.1074
     80 H36        -0.4508   -1.8771    3.1807 H         1 <0>         0.1056
     81 H37        -2.7642   -2.3738    3.9551 H         1 <0>         0.0727
     82 H38        -2.1468   -2.6566    5.6181 H         1 <0>         0.0726
     83 H39        -3.0590   -0.3527    5.3784 H         1 <0>         0.0622
     84 H40        -1.9091   -0.0371    4.0350 H         1 <0>         0.0577
     85 H41        -1.2917   -0.3199    5.6980 H         1 <0>         0.0573
     86 H42         2.2458   -8.5640    5.9958 H         1 <0>         0.0804
     87 H43         2.3727   -8.9522    4.2465 H         1 <0>         0.0848
     88 H44         0.8286   -8.3265    4.9180 H         1 <0>         0.0812
     89 H45         2.1119   -6.1191    6.7580 H         1 <0>         0.4259
     90 H46         1.4159   -8.3171    2.3724 H         1 <0>         0.4192
@<TRIPOS>BOND
     1    1    2 1
     2    1   50 1
     3    1   51 1
     4    1   52 1
     5    2    3 1
     6    2   53 1
     7    2   54 1
     8    3    4 1
     9    3   55 1
    10    3   56 1
    11    4    5 1
    12    4   57 1
    13    4   58 1
    14    5    6 1
    15    5   59 1
    16    5   60 1
    17    6    7 2
    18    6    8 1
    19    8    9 1
    20    9   10 1
    21    9   15 1
    22    9   11 1
    23   11   12 1
    24   11   31 1
    25   11   13 1
    26   13   14 2
    27   13   25 1
    28   14   15 1
    29   14   24 1
    30   15   16 1
    31   15   17 1
    32   17   18 1
    33   18   19 2
    34   18   20 1
    35   20   21 2
    36   20   23 1
    37   21   22 1
    38   21   61 1
    39   22   62 1
    40   22   63 1
    41   22   64 1
    42   23   65 1
    43   23   66 1
    44   23   67 1
    45   24   68 1
    46   24   69 1
    47   24   70 1
    48   25   26 1
    49   25   46 1
    50   25   27 1
    51   27   28 1
    52   27   43 1
    53   27   49 1
    54   28   29 1
    55   28   30 1
    56   28   37 1
    57   30   31 1
    58   30   71 1
    59   30   72 1
    60   31   32 1
    61   31   33 1
    62   32   73 1
    63   32   74 1
    64   32   75 1
    65   33   34 1
    66   34   35 2
    67   34   36 1
    68   36   76 1
    69   36   77 1
    70   36   78 1
    71   37   38 1
    72   38   39 2
    73   38   40 1
    74   40   41 1
    75   40   79 1
    76   40   80 1
    77   41   42 1
    78   41   81 1
    79   41   82 1
    80   42   83 1
    81   42   84 1
    82   42   85 1
    83   43   44 1
    84   43   47 1
    85   43   48 1
    86   44   45 2
    87   44   46 1
    88   47   86 1
    89   47   87 1
    90   47   88 1
    91   48   89 1
    92   49   90 1
@<TRIPOS>MOLECULE
ZINC08195655
   96    98     0     0     0
SMALL
USER_CHARGES
[acetoxy-butanoyloxy-dihydroxy-trimethyl-(2-methylbut-2-enoyloxy)-oxo-BLAHyl] octanoate
@<TRIPOS>ATOM
      1 C1          9.3821   -4.8112   -9.5066 C.3       1 <0>        -0.1543
      2 C2          8.1111   -4.3170   -8.8128 C.3       1 <0>        -0.1262
      3 C3          8.0602   -4.8703   -7.3873 C.3       1 <0>        -0.1210
      4 C4          6.7893   -4.3761   -6.6935 C.3       1 <0>        -0.1205
      5 C5          6.7383   -4.9294   -5.2680 C.3       1 <0>        -0.1201
      6 C6          5.4674   -4.4351   -4.5742 C.3       1 <0>        -0.1092
      7 C7          5.4164   -4.9885   -3.1487 C.3       1 <0>        -0.1144
      8 C8          4.1646   -4.5017   -2.4653 C.2       1 <0>         0.4571
      9 O1          3.3925   -3.7856   -3.0576 O.2       1 <0>        -0.4987
     10 O2          3.9075   -4.8636   -1.1985 O.3       1 <0>        -0.3332
     11 C9          2.6834   -4.3573   -0.6039 C.3       1 <0>         0.0924
     12 H1          1.8973   -4.2554   -1.3521 H         1 <0>         0.1214
     13 C10         2.2245   -5.2465    0.5745 C.3       1 <0>        -0.0713
     14 H2          2.5411   -6.2804    0.4369 H         1 <0>         0.1382
     15 C11         2.8748   -4.6542    1.7925 C.2       1 <0>        -0.0779
     16 C12         3.2484   -3.4182    1.5554 C.2       1 <0>        -0.0986
     17 C13         2.9316   -3.0177    0.1330 C.3       1 <0>         0.1032
     18 H3          3.7758   -2.4901   -0.3108 H         1 <0>         0.1058
     19 O3          1.7399   -2.1890    0.0933 O.3       1 <0>        -0.3159
     20 C14         1.9211   -0.8540    0.1373 C.2       1 <0>         0.4886
     21 O4          3.0444   -0.3952    0.2069 O.2       1 <0>        -0.4982
     22 C15         0.7605    0.0466    0.1010 C.2       1 <0>        -0.1770
     23 C16         0.9394    1.3646    0.1444 C.2       1 <0>        -0.0517
     24 C17         2.3322    1.9336    0.2307 C.3       1 <0>        -0.1320
     25 C18        -0.6323   -0.5223    0.0147 C.3       1 <0>        -0.1176
     26 C19         3.9067   -2.5172    2.5683 C.3       1 <0>        -0.1187
     27 C20         3.1251   -5.4099    3.0555 C.3       1 <0>         0.1503
     28 H4          3.0437   -4.6868    3.8671 H         1 <0>         0.0947
     29 C21         1.9459   -6.3878    3.2783 C.3       1 <0>         0.1102
     30 C22         0.5976   -5.8745    3.0820 C.3       1 <0>         0.1028
     31 H5         -0.0750   -6.3583    3.7903 H         1 <0>         0.1066
     32 C23         0.1035   -6.1397    1.6634 C.3       1 <0>        -0.1611
     33 C24         0.7068   -5.1645    0.6930 C.3       1 <0>         0.1552
     34 C25         0.3306   -3.7480    1.1321 C.3       1 <0>        -0.1650
     35 O5          0.1295   -5.4030   -0.6178 O.3       1 <0>        -0.3482
     36 C26         0.3977   -6.5843   -1.1960 C.2       1 <0>         0.4526
     37 O6          1.0442   -7.4146   -0.6023 O.2       1 <0>        -0.4966
     38 C27        -0.1075   -6.8750   -2.5858 C.3       1 <0>        -0.1520
     39 O7          0.5936   -4.4433    3.3268 O.3       1 <0>        -0.3334
     40 C28        -0.5311   -3.9149    3.8342 C.2       1 <0>         0.4644
     41 O8         -1.4809   -4.6248    4.0662 O.2       1 <0>        -0.5020
     42 C29        -0.6093   -2.4363    4.1146 C.3       1 <0>        -0.1184
     43 C30        -1.9883   -2.0974    4.6842 C.3       1 <0>        -0.1132
     44 C31        -2.0676   -0.5963    4.9689 C.3       1 <0>        -0.1534
     45 C32         2.3817   -6.8387    4.7005 C.3       1 <0>         0.0591
     46 C33         3.9092   -6.7598    4.5964 C.2       1 <0>         0.4637
     47 O9          4.6895   -7.1157    5.4474 O.2       1 <0>        -0.4198
     48 O10         4.2487   -6.2177    3.3776 O.3       1 <0>        -0.2986
     49 C34         1.9251   -8.2710    4.9852 C.3       1 <0>        -0.1794
     50 O11         1.8894   -5.9393    5.6959 O.3       1 <0>        -0.5243
     51 O12         2.1401   -7.4893    2.3890 O.3       1 <0>        -0.5134
     52 H6         10.2556   -4.4681   -8.9523 H         1 <0>         0.0534
     53 H7          9.3777   -5.9007   -9.5398 H         1 <0>         0.0534
     54 H8          9.4184   -4.4170  -10.5222 H         1 <0>         0.0534
     55 H9          7.2376   -4.6601   -9.3672 H         1 <0>         0.0606
     56 H10         8.1155   -3.2275   -8.7797 H         1 <0>         0.0605
     57 H11         8.9337   -4.5272   -6.8329 H         1 <0>         0.0614
     58 H12         8.0558   -5.9598   -7.4204 H         1 <0>         0.0614
     59 H13         5.9158   -4.7192   -7.2479 H         1 <0>         0.0627
     60 H14         6.7937   -3.2866   -6.6604 H         1 <0>         0.0626
     61 H15         7.6118   -4.5863   -4.7136 H         1 <0>         0.0652
     62 H16         6.7339   -6.0189   -5.3011 H         1 <0>         0.0654
     63 H17         4.5939   -4.7783   -5.1286 H         1 <0>         0.0727
     64 H18         5.4718   -3.3457   -4.5410 H         1 <0>         0.0724
     65 H19         6.2899   -4.6454   -2.5943 H         1 <0>         0.1081
     66 H20         5.4120   -6.0780   -3.1818 H         1 <0>         0.1085
     67 H21         0.0866    2.0266    0.1133 H         1 <0>         0.1357
     68 H22         2.2791    3.0220    0.2562 H         1 <0>         0.0591
     69 H23         2.8168    1.5721    1.1377 H         1 <0>         0.0839
     70 H24         2.9081    1.6182   -0.6393 H         1 <0>         0.0831
     71 H25        -0.9154   -0.6329   -1.0321 H         1 <0>         0.0732
     72 H26        -0.6577   -1.4966    0.5028 H         1 <0>         0.0752
     73 H27        -1.3312    0.1510    0.5110 H         1 <0>         0.0708
     74 H28         4.1117   -1.5480    2.1136 H         1 <0>         0.0800
     75 H29         3.2427   -2.3847    3.4225 H         1 <0>         0.0779
     76 H30         4.8418   -2.9673    2.9015 H         1 <0>         0.0780
     77 H31        -0.9820   -6.0444    1.6386 H         1 <0>         0.0912
     78 H32         0.3799   -7.1529    1.3715 H         1 <0>         0.1190
     79 H33         0.2181   -3.1130    0.2533 H         1 <0>         0.0980
     80 H34        -0.6095   -3.7760    1.6829 H         1 <0>         0.0517
     81 H35         1.1154   -3.3458    1.7729 H         1 <0>         0.1068
     82 H36        -0.6653   -6.0151   -2.9568 H         1 <0>         0.0910
     83 H37         0.7374   -7.0722   -3.2456 H         1 <0>         0.1035
     84 H38        -0.7600   -7.7477   -2.5600 H         1 <0>         0.1060
     85 H39         0.1596   -2.1624    4.8371 H         1 <0>         0.1058
     86 H40        -0.4522   -1.8822    3.1892 H         1 <0>         0.1053
     87 H41        -2.7571   -2.3714    3.9618 H         1 <0>         0.0722
     88 H42        -2.1453   -2.6515    5.6096 H         1 <0>         0.0718
     89 H43        -1.9106   -0.0421    4.0435 H         1 <0>         0.0574
     90 H44        -3.0500   -0.3548    5.3747 H         1 <0>         0.0616
     91 H45        -1.2988   -0.3223    5.6914 H         1 <0>         0.0568
     92 H46         2.3686   -8.9460    4.2533 H         1 <0>         0.0863
     93 H47         2.2429   -8.5613    5.9866 H         1 <0>         0.0838
     94 H48         0.8385   -8.3259    4.9187 H         1 <0>         0.0843
     95 H49         2.1359   -6.1795    6.5995 H         1 <0>         0.3951
     96 H50         1.5153   -8.2156    2.5201 H         1 <0>         0.3829
@<TRIPOS>BOND
     1    1    2 1
     2    1   52 1
     3    1   53 1
     4    1   54 1
     5    2    3 1
     6    2   55 1
     7    2   56 1
     8    3    4 1
     9    3   57 1
    10    3   58 1
    11    4    5 1
    12    4   59 1
    13    4   60 1
    14    5    6 1
    15    5   61 1
    16    5   62 1
    17    6    7 1
    18    6   63 1
    19    6   64 1
    20    7    8 1
    21    7   65 1
    22    7   66 1
    23    8    9 2
    24    8   10 1
    25   10   11 1
    26   11   12 1
    27   11   17 1
    28   11   13 1
    29   13   14 1
    30   13   33 1
    31   13   15 1
    32   15   16 2
    33   15   27 1
    34   16   17 1
    35   16   26 1
    36   17   18 1
    37   17   19 1
    38   19   20 1
    39   20   21 2
    40   20   22 1
    41   22   23 2
    42   22   25 1
    43   23   24 1
    44   23   67 1
    45   24   68 1
    46   24   69 1
    47   24   70 1
    48   25   71 1
    49   25   72 1
    50   25   73 1
    51   26   74 1
    52   26   75 1
    53   26   76 1
    54   27   28 1
    55   27   48 1
    56   27   29 1
    57   29   30 1
    58   29   45 1
    59   29   51 1
    60   30   31 1
    61   30   32 1
    62   30   39 1
    63   32   33 1
    64   32   77 1
    65   32   78 1
    66   33   34 1
    67   33   35 1
    68   34   79 1
    69   34   80 1
    70   34   81 1
    71   35   36 1
    72   36   37 2
    73   36   38 1
    74   38   82 1
    75   38   83 1
    76   38   84 1
    77   39   40 1
    78   40   41 2
    79   40   42 1
    80   42   43 1
    81   42   85 1
    82   42   86 1
    83   43   44 1
    84   43   87 1
    85   43   88 1
    86   44   89 1
    87   44   90 1
    88   44   91 1
    89   45   46 1
    90   45   49 1
    91   45   50 1
    92   46   47 2
    93   46   48 1
    94   49   92 1
    95   49   93 1
    96   49   94 1
    97   50   95 1
    98   51   96 1
