@<TRIPOS>MOLECULE
ZINC08195655
   96    98     0     0     0
SMALL
USER_CHARGES
[acetoxy-butanoyloxy-dihydroxy-trimethyl-(2-methylbut-2-enoyloxy)-oxo-BLAHyl] octanoate
@<TRIPOS>ATOM
      1 C1          9.3821   -4.8112   -9.5066 C.3       1 <0>        -0.1543
      2 C2          8.1111   -4.3170   -8.8128 C.3       1 <0>        -0.1262
      3 C3          8.0602   -4.8703   -7.3873 C.3       1 <0>        -0.1210
      4 C4          6.7893   -4.3761   -6.6935 C.3       1 <0>        -0.1205
      5 C5          6.7383   -4.9294   -5.2680 C.3       1 <0>        -0.1201
      6 C6          5.4674   -4.4351   -4.5742 C.3       1 <0>        -0.1092
      7 C7          5.4164   -4.9885   -3.1487 C.3       1 <0>        -0.1144
      8 C8          4.1646   -4.5017   -2.4653 C.2       1 <0>         0.4571
      9 O1          3.3925   -3.7856   -3.0576 O.2       1 <0>        -0.4987
     10 O2          3.9075   -4.8636   -1.1985 O.3       1 <0>        -0.3332
     11 C9          2.6834   -4.3573   -0.6039 C.3       1 <0>         0.0924
     12 H1          1.8973   -4.2554   -1.3521 H         1 <0>         0.1214
     13 C10         2.2245   -5.2465    0.5745 C.3       1 <0>        -0.0713
     14 H2          2.5411   -6.2804    0.4369 H         1 <0>         0.1382
     15 C11         2.8748   -4.6542    1.7925 C.2       1 <0>        -0.0779
     16 C12         3.2484   -3.4182    1.5554 C.2       1 <0>        -0.0986
     17 C13         2.9316   -3.0177    0.1330 C.3       1 <0>         0.1032
     18 H3          3.7758   -2.4901   -0.3108 H         1 <0>         0.1058
     19 O3          1.7399   -2.1890    0.0933 O.3       1 <0>        -0.3159
     20 C14         1.9211   -0.8540    0.1373 C.2       1 <0>         0.4886
     21 O4          3.0444   -0.3952    0.2069 O.2       1 <0>        -0.4982
     22 C15         0.7605    0.0466    0.1010 C.2       1 <0>        -0.1770
     23 C16         0.9394    1.3646    0.1444 C.2       1 <0>        -0.0517
     24 C17         2.3322    1.9336    0.2307 C.3       1 <0>        -0.1320
     25 C18        -0.6323   -0.5223    0.0147 C.3       1 <0>        -0.1176
     26 C19         3.9067   -2.5172    2.5683 C.3       1 <0>        -0.1187
     27 C20         3.1251   -5.4099    3.0555 C.3       1 <0>         0.1503
     28 H4          3.0437   -4.6868    3.8671 H         1 <0>         0.0947
     29 C21         1.9459   -6.3878    3.2783 C.3       1 <0>         0.1102
     30 C22         0.5976   -5.8745    3.0820 C.3       1 <0>         0.1028
     31 H5         -0.0750   -6.3583    3.7903 H         1 <0>         0.1066
     32 C23         0.1035   -6.1397    1.6634 C.3       1 <0>        -0.1611
     33 C24         0.7068   -5.1645    0.6930 C.3       1 <0>         0.1552
     34 C25         0.3306   -3.7480    1.1321 C.3       1 <0>        -0.1650
     35 O5          0.1295   -5.4030   -0.6178 O.3       1 <0>        -0.3482
     36 C26         0.3977   -6.5843   -1.1960 C.2       1 <0>         0.4526
     37 O6          1.0442   -7.4146   -0.6023 O.2       1 <0>        -0.4966
     38 C27        -0.1075   -6.8750   -2.5858 C.3       1 <0>        -0.1520
     39 O7          0.5936   -4.4433    3.3268 O.3       1 <0>        -0.3334
     40 C28        -0.5311   -3.9149    3.8342 C.2       1 <0>         0.4644
     41 O8         -1.4809   -4.6248    4.0662 O.2       1 <0>        -0.5020
     42 C29        -0.6093   -2.4363    4.1146 C.3       1 <0>        -0.1184
     43 C30        -1.9883   -2.0974    4.6842 C.3       1 <0>        -0.1132
     44 C31        -2.0676   -0.5963    4.9689 C.3       1 <0>        -0.1534
     45 C32         2.3817   -6.8387    4.7005 C.3       1 <0>         0.0591
     46 C33         3.9092   -6.7598    4.5964 C.2       1 <0>         0.4637
     47 O9          4.6895   -7.1157    5.4474 O.2       1 <0>        -0.4198
     48 O10         4.2487   -6.2177    3.3776 O.3       1 <0>        -0.2986
     49 C34         1.9251   -8.2710    4.9852 C.3       1 <0>        -0.1794
     50 O11         1.8894   -5.9393    5.6959 O.3       1 <0>        -0.5243
     51 O12         2.1401   -7.4893    2.3890 O.3       1 <0>        -0.5134
     52 H6         10.2556   -4.4681   -8.9523 H         1 <0>         0.0534
     53 H7          9.3777   -5.9007   -9.5398 H         1 <0>         0.0534
     54 H8          9.4184   -4.4170  -10.5222 H         1 <0>         0.0534
     55 H9          7.2376   -4.6601   -9.3672 H         1 <0>         0.0606
     56 H10         8.1155   -3.2275   -8.7797 H         1 <0>         0.0605
     57 H11         8.9337   -4.5272   -6.8329 H         1 <0>         0.0614
     58 H12         8.0558   -5.9598   -7.4204 H         1 <0>         0.0614
     59 H13         5.9158   -4.7192   -7.2479 H         1 <0>         0.0627
     60 H14         6.7937   -3.2866   -6.6604 H         1 <0>         0.0626
     61 H15         7.6118   -4.5863   -4.7136 H         1 <0>         0.0652
     62 H16         6.7339   -6.0189   -5.3011 H         1 <0>         0.0654
     63 H17         4.5939   -4.7783   -5.1286 H         1 <0>         0.0727
     64 H18         5.4718   -3.3457   -4.5410 H         1 <0>         0.0724
     65 H19         6.2899   -4.6454   -2.5943 H         1 <0>         0.1081
     66 H20         5.4120   -6.0780   -3.1818 H         1 <0>         0.1085
     67 H21         0.0866    2.0266    0.1133 H         1 <0>         0.1357
     68 H22         2.2791    3.0220    0.2562 H         1 <0>         0.0591
     69 H23         2.8168    1.5721    1.1377 H         1 <0>         0.0839
     70 H24         2.9081    1.6182   -0.6393 H         1 <0>         0.0831
     71 H25        -0.9154   -0.6329   -1.0321 H         1 <0>         0.0732
     72 H26        -0.6577   -1.4966    0.5028 H         1 <0>         0.0752
     73 H27        -1.3312    0.1510    0.5110 H         1 <0>         0.0708
     74 H28         4.1117   -1.5480    2.1136 H         1 <0>         0.0800
     75 H29         3.2427   -2.3847    3.4225 H         1 <0>         0.0779
     76 H30         4.8418   -2.9673    2.9015 H         1 <0>         0.0780
     77 H31        -0.9820   -6.0444    1.6386 H         1 <0>         0.0912
     78 H32         0.3799   -7.1529    1.3715 H         1 <0>         0.1190
     79 H33         0.2181   -3.1130    0.2533 H         1 <0>         0.0980
     80 H34        -0.6095   -3.7760    1.6829 H         1 <0>         0.0517
     81 H35         1.1154   -3.3458    1.7729 H         1 <0>         0.1068
     82 H36        -0.6653   -6.0151   -2.9568 H         1 <0>         0.0910
     83 H37         0.7374   -7.0722   -3.2456 H         1 <0>         0.1035
     84 H38        -0.7600   -7.7477   -2.5600 H         1 <0>         0.1060
     85 H39         0.1596   -2.1624    4.8371 H         1 <0>         0.1058
     86 H40        -0.4522   -1.8822    3.1892 H         1 <0>         0.1053
     87 H41        -2.7571   -2.3714    3.9618 H         1 <0>         0.0722
     88 H42        -2.1453   -2.6515    5.6096 H         1 <0>         0.0718
     89 H43        -1.9106   -0.0421    4.0435 H         1 <0>         0.0574
     90 H44        -3.0500   -0.3548    5.3747 H         1 <0>         0.0616
     91 H45        -1.2988   -0.3223    5.6914 H         1 <0>         0.0568
     92 H46         2.3686   -8.9460    4.2533 H         1 <0>         0.0863
     93 H47         2.2429   -8.5613    5.9866 H         1 <0>         0.0838
     94 H48         0.8385   -8.3259    4.9187 H         1 <0>         0.0843
     95 H49         2.1359   -6.1795    6.5995 H         1 <0>         0.3951
     96 H50         1.5153   -8.2156    2.5201 H         1 <0>         0.3829
@<TRIPOS>BOND
     1    1    2 1
     2    1   52 1
     3    1   53 1
     4    1   54 1
     5    2    3 1
     6    2   55 1
     7    2   56 1
     8    3    4 1
     9    3   57 1
    10    3   58 1
    11    4    5 1
    12    4   59 1
    13    4   60 1
    14    5    6 1
    15    5   61 1
    16    5   62 1
    17    6    7 1
    18    6   63 1
    19    6   64 1
    20    7    8 1
    21    7   65 1
    22    7   66 1
    23    8    9 2
    24    8   10 1
    25   10   11 1
    26   11   12 1
    27   11   17 1
    28   11   13 1
    29   13   14 1
    30   13   33 1
    31   13   15 1
    32   15   16 2
    33   15   27 1
    34   16   17 1
    35   16   26 1
    36   17   18 1
    37   17   19 1
    38   19   20 1
    39   20   21 2
    40   20   22 1
    41   22   23 2
    42   22   25 1
    43   23   24 1
    44   23   67 1
    45   24   68 1
    46   24   69 1
    47   24   70 1
    48   25   71 1
    49   25   72 1
    50   25   73 1
    51   26   74 1
    52   26   75 1
    53   26   76 1
    54   27   28 1
    55   27   48 1
    56   27   29 1
    57   29   30 1
    58   29   45 1
    59   29   51 1
    60   30   31 1
    61   30   32 1
    62   30   39 1
    63   32   33 1
    64   32   77 1
    65   32   78 1
    66   33   34 1
    67   33   35 1
    68   34   79 1
    69   34   80 1
    70   34   81 1
    71   35   36 1
    72   36   37 2
    73   36   38 1
    74   38   82 1
    75   38   83 1
    76   38   84 1
    77   39   40 1
    78   40   41 2
    79   40   42 1
    80   42   43 1
    81   42   85 1
    82   42   86 1
    83   43   44 1
    84   43   87 1
    85   43   88 1
    86   44   89 1
    87   44   90 1
    88   44   91 1
    89   45   46 1
    90   45   49 1
    91   45   50 1
    92   46   47 2
    93   46   48 1
    94   49   92 1
    95   49   93 1
    96   49   94 1
    97   50   95 1
    98   51   96 1
