@<TRIPOS>MOLECULE
ZINC16052819
   53    55     0     0     0
SMALL
USER_CHARGES
2,2-diphenyl-N-[(1R)-2,2,2-trichloro-1-[(4-fluoro-3-nitro-phenyl)carbamothioylamino]ethyl]acetamide
@<TRIPOS>ATOM
      1 C1          4.5566    1.5531    0.1988 C.ar      1 <0>        -0.1123
      2 C2          3.5052    2.4176    0.4401 C.ar      1 <0>        -0.1156
      3 C3          2.2067    1.9433    0.4408 C.ar      1 <0>        -0.1081
      4 C4          1.9597    0.6046    0.2007 C.ar      1 <0>        -0.0836
      5 C5          3.0115   -0.2609   -0.0350 C.ar      1 <0>        -0.1039
      6 C6          4.3096    0.2144   -0.0413 C.ar      1 <0>        -0.1129
      7 C7          0.5442    0.0875    0.2019 C.3       1 <0>        -0.0178
      8 C8          0.1544   -0.3127   -1.1977 C.ar      1 <0>        -0.0716
      9 C9          0.7858   -1.3772   -1.8134 C.ar      1 <0>        -0.0780
     10 C10         0.4245   -1.7477   -3.0952 C.ar      1 <0>        -0.1200
     11 C11        -0.5605   -1.0467   -3.7655 C.ar      1 <0>        -0.1131
     12 C12        -1.1879    0.0214   -3.1520 C.ar      1 <0>        -0.1228
     13 C13        -0.8306    0.3882   -1.8680 C.ar      1 <0>        -0.1079
     14 C14         0.4475   -1.1097    1.1121 C.2       1 <0>         0.5223
     15 O1          0.0966   -2.1823    0.6679 O.2       1 <0>        -0.4610
     16 N1          0.7510   -0.9885    2.4196 N.am      1 <0>        -0.7297
     17 C15         0.6570   -2.1523    3.3044 C.3       1 <0>         0.3588
     18 H1          0.5923   -3.0603    2.7048 H         1 <0>         0.1994
     19 C16         1.8991   -2.2171    4.1955 C.3       1 <0>         0.1070
     20 Cl1         2.0062   -0.7153    5.1873 Cl        1 <0>        -0.0871
     21 Cl2         1.7834   -3.6495    5.2844 Cl        1 <0>        -0.0558
     22 Cl3         3.3712   -2.3630    3.1648 Cl        1 <0>        -0.0432
     23 N2         -0.5392   -2.0338    4.1418 N.pl3     1 <0>        -0.6876
     24 C17        -1.6242   -2.7883    3.8776 C.2       1 <0>         0.5430
     25 S1         -1.6047   -3.8852    2.5633 S.2       1 <0>        -0.5220
     26 N3         -2.7247   -2.6793    4.6480 N.pl3     1 <0>        -0.6270
     27 C18        -3.8081   -3.5430    4.4473 C.ar      1 <0>         0.1196
     28 C19        -5.1069   -3.0545    4.5054 C.ar      1 <0>        -0.0430
     29 C20        -6.1739   -3.9070    4.3010 C.ar      1 <0>        -0.1465
     30 C21        -5.9500   -5.2504    4.0500 C.ar      1 <0>         0.1767
     31 C22        -4.6562   -5.7406    3.9978 C.ar      1 <0>        -0.0748
     32 C23        -3.5858   -4.8901    4.1956 C.ar      1 <0>         0.0132
     33 N4         -4.4198   -7.1769    3.7293 N.pl3     1 <0>         0.0307
     34 O2         -3.2818   -7.6085    3.6829 O.2       1 <0>        -0.1409
     35 O3         -5.3633   -7.9272    3.5549 O.3       1 <0>        -0.1477
     36 F1         -6.9954   -6.0837    3.8554 F         1 <0>        -0.0978
     37 H2          5.5710    1.9238    0.1975 H         1 <0>         0.1233
     38 H3          3.6982    3.4635    0.6277 H         1 <0>         0.1245
     39 H4          1.3853    2.6187    0.6293 H         1 <0>         0.1233
     40 H5          2.8188   -1.3077   -0.2182 H         1 <0>         0.1219
     41 H6          5.1310   -0.4609   -0.2302 H         1 <0>         0.1231
     42 H7         -0.1278    0.8689    0.5568 H         1 <0>         0.1109
     43 H8          1.5584   -1.9221   -1.2913 H         1 <0>         0.1206
     44 H9          0.9144   -2.5824   -3.5744 H         1 <0>         0.1224
     45 H10        -0.8402   -1.3338   -4.7684 H         1 <0>         0.1216
     46 H11        -1.9575    0.5690   -3.6757 H         1 <0>         0.1221
     47 H12        -1.3208    1.2227   -1.3886 H         1 <0>         0.1188
     48 H13         1.0317   -0.1306    2.7748 H         1 <0>         0.4053
     49 H14        -0.5502   -1.4123    4.8865 H         1 <0>         0.4024
     50 H15        -2.7661   -2.0024    5.3415 H         1 <0>         0.4150
     51 H16        -5.2821   -2.0079    4.7059 H         1 <0>         0.1562
     52 H17        -7.1839   -3.5266    4.3417 H         1 <0>         0.1678
     53 H18        -2.5768   -5.2729    4.1547 H         1 <0>         0.1822
@<TRIPOS>BOND
     1    1    6 ar
     2    1    2 ar
     3    1   37 1
     4    2    3 ar
     5    2   38 1
     6    3    4 ar
     7    3   39 1
     8    4    5 ar
     9    4    7 1
    10    5    6 ar
    11    5   40 1
    12    6   41 1
    13    7    8 1
    14    7   14 1
    15    7   42 1
    16    8   13 ar
    17    8    9 ar
    18    9   10 ar
    19    9   43 1
    20   10   11 ar
    21   10   44 1
    22   11   12 ar
    23   11   45 1
    24   12   13 ar
    25   12   46 1
    26   13   47 1
    27   14   15 2
    28   14   16 am
    29   16   17 1
    30   16   48 1
    31   17   18 1
    32   17   19 1
    33   17   23 1
    34   19   20 1
    35   19   21 1
    36   19   22 1
    37   23   24 1
    38   23   49 1
    39   24   25 2
    40   24   26 1
    41   26   27 1
    42   26   50 1
    43   27   32 ar
    44   27   28 ar
    45   28   29 ar
    46   28   51 1
    47   29   30 ar
    48   29   52 1
    49   30   31 ar
    50   30   36 1
    51   31   32 ar
    52   31   33 1
    53   32   53 1
    54   33   34 2
    55   33   35 1
@<TRIPOS>MOLECULE
ZINC16052820
   53    55     0     0     0
SMALL
USER_CHARGES
2,2-diphenyl-N-[(1S)-2,2,2-trichloro-1-[(4-fluoro-3-nitro-phenyl)carbamothioylamino]ethyl]acetamide
@<TRIPOS>ATOM
      1 C1         -5.8649    0.0595    4.8234 C.ar      1 <0>        -0.1116
      2 C2         -6.1979    1.2418    4.1893 C.ar      1 <0>        -0.1214
      3 C3         -5.2082    2.0294    3.6315 C.ar      1 <0>        -0.1066
      4 C4         -3.8857    1.6345    3.7074 C.ar      1 <0>        -0.0730
      5 C5         -3.5533    0.4494    4.3366 C.ar      1 <0>        -0.0775
      6 C6         -4.5424   -0.3357    4.8990 C.ar      1 <0>        -0.1205
      7 C7         -2.8068    2.4930    3.0990 C.3       1 <0>        -0.0177
      8 C8         -1.9301    3.0477    4.1920 C.ar      1 <0>        -0.0830
      9 C9         -1.1028    2.2041    4.9095 C.ar      1 <0>        -0.1036
     10 C10        -0.2950    2.7137    5.9089 C.ar      1 <0>        -0.1134
     11 C11        -0.3219    4.0653    6.1974 C.ar      1 <0>        -0.1127
     12 C12        -1.1534    4.9080    5.4837 C.ar      1 <0>        -0.1158
     13 C13        -1.9573    4.3992    4.4809 C.ar      1 <0>        -0.1079
     14 C14        -1.9726    1.6606    2.1596 C.2       1 <0>         0.5220
     15 O1         -2.2289    0.4860    2.0000 O.2       1 <0>        -0.4597
     16 N1         -0.9417    2.2216    1.4970 N.am      1 <0>        -0.7299
     17 C15        -0.1308    1.4124    0.5838 C.3       1 <0>         0.3587
     18 H1         -0.3260    0.3553    0.7642 H         1 <0>         0.1991
     19 C16         1.3518    1.7053    0.8228 C.3       1 <0>         0.1076
     20 Cl1         1.7779    1.2976    2.5266 Cl        1 <0>        -0.0432
     21 Cl2         2.3499    0.7094   -0.3010 Cl        1 <0>        -0.0584
     22 Cl3         1.6748    3.4538    0.5244 Cl        1 <0>        -0.0865
     23 N2         -0.4770    1.7437   -0.8006 N.pl3     1 <0>        -0.6879
     24 C17        -1.2263    0.8932   -1.5298 C.2       1 <0>         0.5431
     25 S1         -1.7736   -0.5741   -0.8382 S.2       1 <0>        -0.5222
     26 N3         -1.5448    1.1980   -2.8034 N.pl3     1 <0>        -0.6271
     27 C18        -2.4191    0.3743   -3.5227 C.ar      1 <0>         0.1186
     28 C19        -2.1659    0.0898   -4.8582 C.ar      1 <0>        -0.0430
     29 C20        -3.0262   -0.7279   -5.5641 C.ar      1 <0>        -0.1467
     30 C21        -4.1471   -1.2546   -4.9444 C.ar      1 <0>         0.1764
     31 C22        -4.4047   -0.9673   -3.6147 C.ar      1 <0>        -0.0748
     32 C23        -3.5434   -0.1548   -2.9033 C.ar      1 <0>         0.0129
     33 N4         -5.6035   -1.5316   -2.9549 N.pl3     1 <0>         0.0301
     34 O2         -5.8302   -1.2794   -1.7851 O.2       1 <0>        -0.1390
     35 O3         -6.3632   -2.2481   -3.5818 O.3       1 <0>        -0.1485
     36 F1         -4.9903   -2.0502   -5.6382 F         1 <0>        -0.0980
     37 H2         -6.6381   -0.5557    5.2595 H         1 <0>         0.1215
     38 H3         -7.2312    1.5503    4.1299 H         1 <0>         0.1225
     39 H4         -5.4684    2.9532    3.1360 H         1 <0>         0.1188
     40 H5         -2.5204    0.1386    4.3921 H         1 <0>         0.1197
     41 H6         -4.2823   -1.2596    5.3941 H         1 <0>         0.1217
     42 H7         -3.2640    3.3147    2.5478 H         1 <0>         0.1113
     43 H8         -1.0848    1.1474    4.6868 H         1 <0>         0.1217
     44 H9          0.3544    2.0552    6.4667 H         1 <0>         0.1226
     45 H10         0.3065    4.4628    6.9807 H         1 <0>         0.1229
     46 H11        -1.1746    5.9639    5.7094 H         1 <0>         0.1243
     47 H12        -2.6069    5.0576    3.9233 H         1 <0>         0.1235
     48 H13        -0.7368    3.1610    1.6247 H         1 <0>         0.4053
     49 H14        -0.1669    2.5751   -1.1924 H         1 <0>         0.4024
     50 H15        -1.1683    1.9880   -3.2218 H         1 <0>         0.4151
     51 H16        -1.2945    0.5043   -5.3432 H         1 <0>         0.1568
     52 H17        -2.8273   -0.9529   -6.6015 H         1 <0>         0.1679
     53 H18        -3.7446    0.0691   -1.8661 H         1 <0>         0.1828
@<TRIPOS>BOND
     1    1    6 ar
     2    1    2 ar
     3    1   37 1
     4    2    3 ar
     5    2   38 1
     6    3    4 ar
     7    3   39 1
     8    4    5 ar
     9    4    7 1
    10    5    6 ar
    11    5   40 1
    12    6   41 1
    13    7    8 1
    14    7   14 1
    15    7   42 1
    16    8   13 ar
    17    8    9 ar
    18    9   10 ar
    19    9   43 1
    20   10   11 ar
    21   10   44 1
    22   11   12 ar
    23   11   45 1
    24   12   13 ar
    25   12   46 1
    26   13   47 1
    27   14   15 2
    28   14   16 am
    29   16   17 1
    30   16   48 1
    31   17   18 1
    32   17   19 1
    33   17   23 1
    34   19   20 1
    35   19   21 1
    36   19   22 1
    37   23   24 1
    38   23   49 1
    39   24   25 2
    40   24   26 1
    41   26   27 1
    42   26   50 1
    43   27   32 ar
    44   27   28 ar
    45   28   29 ar
    46   28   51 1
    47   29   30 ar
    48   29   52 1
    49   30   31 ar
    50   30   36 1
    51   31   32 ar
    52   31   33 1
    53   32   53 1
    54   33   34 2
    55   33   35 1
@<TRIPOS>MOLECULE
ZINC14052444
   26    27     0     0     0
SMALL
USER_CHARGES

@<TRIPOS>ATOM
      1 C1         -0.0147    1.3787   -0.0634 C.ar      1 <0>        -0.1317
      2 C2          1.0938    1.9500    0.5344 C.ar      1 <0>        -0.1015
      3 C3          2.3013    1.2797    0.5369 C.ar      1 <0>        -0.1406
      4 C4          2.4014    0.0303   -0.0615 C.ar      1 <0>         0.1375
      5 C5          1.2861   -0.5409   -0.6606 C.ar      1 <0>        -0.1202
      6 C6          0.0817    0.1350   -0.6600 C.ar      1 <0>        -0.1025
      7 N1          3.6227   -0.6509   -0.0611 N.am      1 <0>        -0.6501
      8 C7          3.6450   -1.9942    0.0462 C.2       1 <0>         0.5938
      9 O1          2.6028   -2.6203    0.0609 O.2       1 <0>        -0.5277
     10 C8          4.9354   -2.7058    0.1460 C.ar      1 <0>        -0.0641
     11 C9          4.9691   -4.1102    0.1440 C.ar      1 <0>         0.4182
     12 N2          6.1350   -4.7396    0.2343 N.ar      1 <0>        -0.5086
     13 C10         7.2546   -4.0451    0.3252 C.ar      1 <0>         0.1483
     14 C11         7.2207   -2.6581    0.3276 C.ar      1 <0>        -0.0223
     15 N3          6.0717   -2.0201    0.2327 N.ar      1 <0>        -0.3716
     16 N4          3.7944   -4.8334    0.0490 N.pl3     1 <0>        -0.8131
     17 H1         -0.9588    1.9032   -0.0604 H         1 <0>         0.1245
     18 H2          1.0152    2.9216    0.9995 H         1 <0>         0.1278
     19 H3          3.1667    1.7267    1.0033 H         1 <0>         0.1270
     20 H4          1.3608   -1.5121   -1.1270 H         1 <0>         0.1387
     21 H5         -0.7859   -0.3086   -1.1257 H         1 <0>         0.1267
     22 H6          4.4537   -0.1567   -0.1381 H         1 <0>         0.4224
     23 H7          8.2014   -4.5595    0.3985 H         1 <0>         0.1793
     24 H8          8.1412   -2.0983    0.4027 H         1 <0>         0.1771
     25 H9          2.9400   -4.3744    0.0603 H         1 <0>         0.4280
     26 H10         3.8248   -5.7998   -0.0289 H         1 <0>         0.4047
@<TRIPOS>BOND
     1    1    6 ar
     2    1    2 ar
     3    1   17 1
     4    2    3 ar
     5    2   18 1
     6    3    4 ar
     7    3   19 1
     8    4    5 ar
     9    4    7 1
    10    5    6 ar
    11    5   20 1
    12    6   21 1
    13    7    8 am
    14    7   22 1
    15    8    9 2
    16    8   10 1
    17   10   15 ar
    18   10   11 ar
    19   11   12 ar
    20   11   16 1
    21   12   13 ar
    22   13   14 ar
    23   13   23 1
    24   14   15 ar
    25   14   24 1
    26   16   25 1
    27   16   26 1
@<TRIPOS>MOLECULE
ZINC68244543
   42    44     0     0     0
SMALL
USER_CHARGES

@<TRIPOS>ATOM
      1 C1          1.2900    2.4540    0.0853 C.3       1 <0>        -0.6503
      2 S1          0.7382    0.7264    0.0461 S.o2      1 <0>         2.4993
      3 O1          1.3870   -0.0179    1.0680 O.2       1 <0>        -0.9359
      4 O2         -0.6731    0.6667   -0.1087 O.2       1 <0>        -0.9358
      5 C2          1.3835    0.0790   -1.4603 C.ar      1 <0>        -0.6565
      6 C3          0.6375    0.1635   -2.6221 C.ar      1 <0>        -0.0191
      7 C4          1.1378   -0.3422   -3.8048 C.ar      1 <0>        -0.1291
      8 C5          2.3973   -0.9385   -3.8271 C.ar      1 <0>         0.0258
      9 C6          3.1446   -1.0205   -2.6536 C.ar      1 <0>        -0.1095
     10 C7          2.6366   -0.5067   -1.4778 C.ar      1 <0>        -0.0220
     11 C8          2.9401   -1.4843   -5.0950 C.ar      1 <0>         0.0385
     12 C9          2.2371   -1.3031   -6.2907 C.ar      1 <0>         0.1631
     13 N1          2.7148   -1.7861   -7.4209 N.ar      1 <0>        -0.4945
     14 C10         3.8673   -2.4477   -7.4282 C.ar      1 <0>         0.4191
     15 C11         4.5762   -2.6317   -6.2295 C.ar      1 <0>        -0.0401
     16 N2          4.0929   -2.1381   -5.0938 N.ar      1 <0>        -0.3623
     17 C12         5.8577   -3.3662   -6.2320 C.2       1 <0>         0.5920
     18 O3          6.3477   -3.7302   -7.2834 O.2       1 <0>        -0.5196
     19 N3          6.4838   -3.6330   -5.0687 N.am      1 <0>        -0.6505
     20 C13         7.7484   -4.2298   -5.0761 C.ar      1 <0>         0.1407
     21 C14         8.1109   -5.1050   -4.0602 C.ar      1 <0>        -0.1416
     22 C15         9.3604   -5.6931   -4.0708 C.ar      1 <0>        -0.0994
     23 C16        10.2504   -5.4113   -5.0910 C.ar      1 <0>        -0.1317
     24 C17         9.8927   -4.5401   -6.1036 C.ar      1 <0>        -0.1003
     25 C18         8.6425   -3.9533   -6.1023 C.ar      1 <0>        -0.1205
     26 N4          4.3674   -2.9542   -8.6132 N.pl3     1 <0>        -0.8137
     27 H1          2.3793    2.4881    0.0657 H         1 <0>         0.1318
     28 H2          0.8943    2.9816   -0.7826 H         1 <0>         0.1320
     29 H3          0.9279    2.9304    0.9963 H         1 <0>         0.1338
     30 H4         -0.3383    0.6258   -2.6036 H         1 <0>         0.1481
     31 H5          0.5542   -0.2764   -4.7111 H         1 <0>         0.1385
     32 H6          4.1211   -1.4818   -2.6651 H         1 <0>         0.1423
     33 H7          3.2167   -0.5657   -0.5687 H         1 <0>         0.1466
     34 H8          1.3000   -0.7663   -6.2881 H         1 <0>         0.1823
     35 H9          6.0573   -3.4109   -4.2263 H         1 <0>         0.4211
     36 H10         7.4166   -5.3250   -3.2628 H         1 <0>         0.1270
     37 H11         9.6429   -6.3737   -3.2812 H         1 <0>         0.1283
     38 H12        11.2270   -5.8723   -5.0967 H         1 <0>         0.1250
     39 H13        10.5902   -4.3218   -6.8988 H         1 <0>         0.1270
     40 H14         8.3622   -3.2764   -6.8959 H         1 <0>         0.1338
     41 H15         3.7647   -3.1637   -9.3437 H         1 <0>         0.4079
     42 H16         5.3210   -3.1001   -8.7141 H         1 <0>         0.4283
@<TRIPOS>BOND
     1    1    2 1
     2    1   27 1
     3    1   28 1
     4    1   29 1
     5    2    3 2
     6    2    4 2
     7    2    5 1
     8    5   10 ar
     9    5    6 ar
    10    6    7 ar
    11    6   30 1
    12    7    8 ar
    13    7   31 1
    14    8    9 ar
    15    8   11 1
    16    9   10 ar
    17    9   32 1
    18   10   33 1
    19   11   16 ar
    20   11   12 ar
    21   12   13 ar
    22   12   34 1
    23   13   14 ar
    24   14   15 ar
    25   14   26 1
    26   15   16 ar
    27   15   17 1
    28   17   18 2
    29   17   19 am
    30   19   20 1
    31   19   35 1
    32   20   25 ar
    33   20   21 ar
    34   21   22 ar
    35   21   36 1
    36   22   23 ar
    37   22   37 1
    38   23   24 ar
    39   23   38 1
    40   24   25 ar
    41   24   39 1
    42   25   40 1
    43   26   41 1
    44   26   42 1
@<TRIPOS>MOLECULE
ZINC71297123
   57    59     0     0     0
SMALL
USER_CHARGES

@<TRIPOS>ATOM
      1 C1         -0.0226    1.5971   -0.1351 C.3       1 <0>        -0.1450
      2 C2          0.1790    0.0983    0.0973 C.3       1 <0>        -0.6147
      3 H1          0.7901   -0.3148   -0.7052 H         1 <0>         0.1635
      4 C3          0.8828   -0.1197    1.4382 C.3       1 <0>         0.0002
      5 N1          1.0185   -1.5603    1.6915 N.4       1 <0>        -0.4071
      6 C4          1.8739   -2.1606    0.6590 C.3       1 <0>        -0.0544
      7 C5          1.6252   -1.7702    3.0128 C.3       1 <0>        -0.0508
      8 S1         -1.4334   -0.7326    0.1186 S.o2      1 <0>         2.4691
      9 O1         -1.2573   -2.1416    0.1721 O.2       1 <0>        -0.9366
     10 O2         -2.3099   -0.0771    1.0249 O.2       1 <0>        -0.9027
     11 C6         -2.1220   -0.4258   -1.4740 C.ar      1 <0>        -0.6600
     12 C7         -2.8978    0.7000   -1.6840 C.ar      1 <0>        -0.0135
     13 C8         -3.4401    0.9451   -2.9293 C.ar      1 <0>        -0.1283
     14 C9         -3.2042    0.0561   -3.9763 C.ar      1 <0>         0.0545
     15 C10        -2.4213   -1.0763   -3.7591 C.ar      1 <0>        -0.1097
     16 C11        -1.8799   -1.3086   -2.5111 C.ar      1 <0>        -0.0203
     17 C12        -3.7846    0.3139   -5.3168 C.ar      1 <0>         0.0094
     18 C13        -4.4770    1.5046   -5.5605 C.ar      1 <0>         0.1764
     19 N2         -4.9951    1.7392   -6.7502 N.ar      1 <0>        -0.5006
     20 C14        -4.8613    0.8442   -7.7233 C.ar      1 <0>         0.4305
     21 C15        -4.1667   -0.3529   -7.4824 C.ar      1 <0>        -0.0473
     22 N3         -3.6417   -0.5820   -6.2829 N.ar      1 <0>        -0.3531
     23 C16        -4.0151   -1.3512   -8.5604 C.2       1 <0>         0.5917
     24 O3         -4.4020   -1.0957   -9.6844 O.2       1 <0>        -0.5193
     25 N4         -3.4478   -2.5453   -8.2982 N.am      1 <0>        -0.6481
     26 C17        -3.2182   -3.4534   -9.3365 C.ar      1 <0>         0.1348
     27 C18        -3.3341   -4.8181   -9.1058 C.ar      1 <0>        -0.1402
     28 C19        -3.1072   -5.7123  -10.1335 C.ar      1 <0>        -0.0997
     29 C20        -2.7644   -5.2503  -11.3910 C.ar      1 <0>        -0.1277
     30 C21        -2.6477   -3.8922  -11.6239 C.ar      1 <0>        -0.0996
     31 C22        -2.8793   -2.9924  -10.6021 C.ar      1 <0>        -0.1182
     32 N5         -5.4050    1.0904   -8.9700 N.pl3     1 <0>        -0.7972
     33 H2          0.9462    2.0963   -0.1479 H         1 <0>         0.0962
     34 H3         -0.5240    1.7524   -1.0904 H         1 <0>         0.0930
     35 H4         -0.6337    2.0102    0.6674 H         1 <0>         0.0913
     36 H5          1.8713    0.3387    1.4085 H         1 <0>         0.1600
     37 H6          0.2950    0.3355    2.2353 H         1 <0>         0.1504
     38 H7          2.8580   -1.6927    0.6854 H         1 <0>         0.1301
     39 H8          1.9745   -3.2295    0.8469 H         1 <0>         0.1353
     40 H9          1.4237   -2.0048   -0.3214 H         1 <0>         0.1203
     41 H10         2.6428   -1.3797    3.0115 H         1 <0>         0.1296
     42 H11         1.0374   -1.2502    3.7692 H         1 <0>         0.1284
     43 H12         1.6454   -2.8365    3.2381 H         1 <0>         0.1328
     44 H13        -3.0800    1.3882   -0.8719 H         1 <0>         0.1500
     45 H14        -4.0463    1.8240   -3.0919 H         1 <0>         0.1454
     46 H15        -2.2356   -1.7687   -4.5669 H         1 <0>         0.1477
     47 H16        -1.2694   -2.1835   -2.3427 H         1 <0>         0.1447
     48 H17        -4.5878    2.2340   -4.7717 H         1 <0>         0.1822
     49 H18        -3.1987   -2.7747   -7.3892 H         1 <0>         0.4197
     50 H19        -3.6011   -5.1797   -8.1238 H         1 <0>         0.1261
     51 H20        -3.1972   -6.7736   -9.9549 H         1 <0>         0.1292
     52 H21        -2.5871   -5.9516  -12.1929 H         1 <0>         0.1269
     53 H22        -2.3795   -3.5346  -12.6071 H         1 <0>         0.1287
     54 H23        -2.7924   -1.9317  -10.7857 H         1 <0>         0.1334
     55 H24        -5.8043    1.9530   -9.1633 H         1 <0>         0.4105
     56 H25        -5.3873    0.4005   -9.6517 H         1 <0>         0.4314
     57 H26         0.1075   -1.9934    1.6670 H         1 <0>         0.4212
@<TRIPOS>BOND
     1    1    2 1
     2    1   33 1
     3    1   34 1
     4    1   35 1
     5    2    3 1
     6    2    4 1
     7    2    8 1
     8    4    5 1
     9    4   36 1
    10    4   37 1
    11    5    6 1
    12    5    7 1
    13    5   57 1
    14    6   38 1
    15    6   39 1
    16    6   40 1
    17    7   41 1
    18    7   42 1
    19    7   43 1
    20    8    9 2
    21    8   10 2
    22    8   11 1
    23   11   16 ar
    24   11   12 ar
    25   12   13 ar
    26   12   44 1
    27   13   14 ar
    28   13   45 1
    29   14   15 ar
    30   14   17 1
    31   15   16 ar
    32   15   46 1
    33   16   47 1
    34   17   22 ar
    35   17   18 ar
    36   18   19 ar
    37   18   48 1
    38   19   20 ar
    39   20   21 ar
    40   20   32 1
    41   21   22 ar
    42   21   23 1
    43   23   24 2
    44   23   25 am
    45   25   26 1
    46   25   49 1
    47   26   31 ar
    48   26   27 ar
    49   27   28 ar
    50   27   50 1
    51   28   29 ar
    52   28   51 1
    53   29   30 ar
    54   29   52 1
    55   30   31 ar
    56   30   53 1
    57   31   54 1
    58   32   55 1
    59   32   56 1
@<TRIPOS>MOLECULE
ZINC71297123
   56    58     0     0     0
SMALL
USER_CHARGES

@<TRIPOS>ATOM
      1 C1         -0.3892    2.5346    0.5101 C.3       1 <0>        -0.1443
      2 C2         -0.3156    1.0076    0.4504 C.3       1 <0>        -0.5675
      3 H1         -1.3230    0.5934    0.4916 H         1 <0>         0.1367
      4 C3          0.3586    0.5801   -0.8548 C.3       1 <0>         0.0610
      5 N1          0.5302   -0.8788   -0.8625 N.3       1 <0>        -0.5554
      6 C4         -0.7469   -1.5576   -1.1200 C.3       1 <0>         0.0242
      7 C5          1.5485   -1.2840   -1.8406 C.3       1 <0>         0.0217
      8 S1          0.6488    0.3931    1.8586 S.o2      1 <0>         2.5102
      9 O1          0.6584   -1.0278    1.8625 O.2       1 <0>        -0.9082
     10 O2          1.8602    1.1261    1.9792 O.2       1 <0>        -0.9385
     11 C6         -0.2908    0.8404    3.2805 C.ar      1 <0>        -0.6613
     12 C7         -0.0783    2.0639    3.8899 C.ar      1 <0>        -0.0203
     13 C8         -0.8110    2.4193    5.0041 C.ar      1 <0>        -0.1303
     14 C9         -1.7667    1.5429    5.5150 C.ar      1 <0>         0.0265
     15 C10        -1.9768    0.3117    4.8967 C.ar      1 <0>        -0.1103
     16 C11        -1.2420   -0.0310    3.7799 C.ar      1 <0>        -0.0213
     17 C12        -2.5570    1.9190    6.7125 C.ar      1 <0>         0.0309
     18 C13        -2.4224    3.1972    7.2646 C.ar      1 <0>         0.1699
     19 N2         -3.1224    3.5371    8.3291 N.ar      1 <0>        -0.5017
     20 C14        -3.9593    2.6656    8.8823 C.ar      1 <0>         0.4229
     21 C15        -4.0972    1.3810    8.3308 C.ar      1 <0>        -0.0508
     22 N3         -3.3933    1.0452    7.2543 N.ar      1 <0>        -0.3571
     23 C16        -5.0260    0.4084    8.9416 C.2       1 <0>         0.5941
     24 O3         -5.7501    0.7510    9.8562 O.2       1 <0>        -0.5234
     25 N4         -5.0707   -0.8590    8.4852 N.am      1 <0>        -0.6497
     26 C17        -6.0298   -1.7474    8.9814 C.ar      1 <0>         0.1395
     27 C18        -5.7189   -3.0922    9.1358 C.ar      1 <0>        -0.1401
     28 C19        -6.6683   -3.9669    9.6266 C.ar      1 <0>        -0.0998
     29 C20        -7.9274   -3.5052    9.9637 C.ar      1 <0>        -0.1307
     30 C21        -8.2404   -2.1670    9.8108 C.ar      1 <0>        -0.1007
     31 C22        -7.2936   -1.2859    9.3263 C.ar      1 <0>        -0.1188
     32 N5         -4.6925    3.0223    9.9985 N.pl3     1 <0>        -0.8049
     33 H2          0.6182    2.9488    0.4690 H         1 <0>         0.0796
     34 H3         -0.9687    2.9038   -0.3360 H         1 <0>         0.0796
     35 H4         -0.8696    2.8391    1.4400 H         1 <0>         0.0728
     36 H5         -0.2632    0.8773   -1.6993 H         1 <0>         0.0654
     37 H6          1.3336    1.0610   -0.9346 H         1 <0>         0.0917
     38 H7         -1.1347   -1.2463   -2.0899 H         1 <0>         0.0297
     39 H8         -0.5913   -2.6365   -1.1203 H         1 <0>         0.0769
     40 H9         -1.4621   -1.2939   -0.3410 H         1 <0>         0.0680
     41 H10         2.4785   -0.7530   -1.6380 H         1 <0>         0.0720
     42 H11         1.7190   -2.3579   -1.7638 H         1 <0>         0.0779
     43 H12         1.2034   -1.0419   -2.8458 H         1 <0>         0.0314
     44 H13         0.6626    2.7422    3.4931 H         1 <0>         0.1465
     45 H14        -0.6438    3.3745    5.4795 H         1 <0>         0.1380
     46 H15        -2.7159   -0.3714    5.2885 H         1 <0>         0.1415
     47 H16        -1.4070   -0.9830    3.2973 H         1 <0>         0.1454
     48 H17        -1.7429    3.9078    6.8177 H         1 <0>         0.1825
     49 H18        -4.4376   -1.1548    7.8124 H         1 <0>         0.4218
     50 H19        -4.7359   -3.4536    8.8721 H         1 <0>         0.1273
     51 H20        -6.4271   -5.0128    9.7470 H         1 <0>         0.1284
     52 H21        -8.6682   -4.1914   10.3470 H         1 <0>         0.1252
     53 H22        -9.2248   -1.8096   10.0746 H         1 <0>         0.1271
     54 H23        -7.5372   -0.2400    9.2112 H         1 <0>         0.1323
     55 H24        -4.6592    3.9334   10.3298 H         1 <0>         0.4073
     56 H25        -5.2402    2.3616   10.4504 H         1 <0>         0.4293
@<TRIPOS>BOND
     1    1    2 1
     2    1   33 1
     3    1   34 1
     4    1   35 1
     5    2    3 1
     6    2    4 1
     7    2    8 1
     8    4    5 1
     9    4   36 1
    10    4   37 1
    11    5    6 1
    12    5    7 1
    13    6   38 1
    14    6   39 1
    15    6   40 1
    16    7   41 1
    17    7   42 1
    18    7   43 1
    19    8    9 2
    20    8   10 2
    21    8   11 1
    22   11   16 ar
    23   11   12 ar
    24   12   13 ar
    25   12   44 1
    26   13   14 ar
    27   13   45 1
    28   14   15 ar
    29   14   17 1
    30   15   16 ar
    31   15   46 1
    32   16   47 1
    33   17   22 ar
    34   17   18 ar
    35   18   19 ar
    36   18   48 1
    37   19   20 ar
    38   20   21 ar
    39   20   32 1
    40   21   22 ar
    41   21   23 1
    42   23   24 2
    43   23   25 am
    44   25   26 1
    45   25   49 1
    46   26   31 ar
    47   26   27 ar
    48   27   28 ar
    49   27   50 1
    50   28   29 ar
    51   28   51 1
    52   29   30 ar
    53   29   52 1
    54   30   31 ar
    55   30   53 1
    56   31   54 1
    57   32   55 1
    58   32   56 1
@<TRIPOS>MOLECULE
ZINC71297124
   57    59     0     0     0
SMALL
USER_CHARGES

@<TRIPOS>ATOM
      1 C1         -0.0369    2.8886    0.3954 C.3       1 <0>        -0.1453
      2 C2         -0.2660    1.4349   -0.0233 C.3       1 <0>        -0.6155
      3 H1          0.1501    1.2733   -1.0177 H         1 <0>         0.1633
      4 C3         -1.7673    1.1408   -0.0446 C.3       1 <0>         0.0000
      5 N1         -1.9871   -0.2550   -0.4465 N.4       1 <0>        -0.4063
      6 C4         -3.4183   -0.5722   -0.3517 C.3       1 <0>        -0.0515
      7 C5         -1.5347   -0.4428   -1.8314 C.3       1 <0>        -0.0559
      8 S1          0.5502    0.3290    1.1606 S.o2      1 <0>         2.4682
      9 O1          0.0631    0.5719    2.4732 O.2       1 <0>        -0.9048
     10 O2          0.6023   -0.9923    0.6402 O.2       1 <0>        -0.9333
     11 C6          2.2285    0.8642    1.1975 C.ar      1 <0>        -0.6587
     12 C7          3.1455    0.3178    0.3177 C.ar      1 <0>        -0.0169
     13 C8          4.4614    0.7330    0.3425 C.ar      1 <0>        -0.1280
     14 C9          4.8656    1.7050    1.2558 C.ar      1 <0>         0.0513
     15 C10         3.9373    2.2524    2.1395 C.ar      1 <0>        -0.1076
     16 C11         2.6228    1.8334    2.1023 C.ar      1 <0>        -0.0171
     17 C12         6.2787    2.1549    1.2875 C.ar      1 <0>         0.0189
     18 C13         7.1825    1.6854    0.3287 C.ar      1 <0>         0.1683
     19 N2          8.4399    2.0819    0.3520 N.ar      1 <0>        -0.4940
     20 C14         8.8537    2.9301    1.2875 C.ar      1 <0>         0.4265
     21 C15         7.9490    3.4038    2.2522 C.ar      1 <0>        -0.0365
     22 N3          6.6813    3.0052    2.2210 N.ar      1 <0>        -0.3578
     23 C16         8.4037    4.3467    3.2943 C.2       1 <0>         0.5896
     24 O3          9.5363    4.7875    3.2630 O.2       1 <0>        -0.5157
     25 N4          7.5629    4.7183    4.2800 N.am      1 <0>        -0.6491
     26 C17         7.9548    5.6933    5.2026 C.ar      1 <0>         0.1366
     27 C18         7.5129    5.6247    6.5176 C.ar      1 <0>        -0.1412
     28 C19         7.9021    6.5890    7.4265 C.ar      1 <0>        -0.0991
     29 C20         8.7305    7.6223    7.0284 C.ar      1 <0>        -0.1287
     30 C21         9.1718    7.6938    5.7198 C.ar      1 <0>        -0.0993
     31 C22         8.7913    6.7293    4.8075 C.ar      1 <0>        -0.1198
     32 N5         10.1720    3.3451    1.3117 N.pl3     1 <0>        -0.8072
     33 H2          1.0326    3.0981    0.4106 H         1 <0>         0.0937
     34 H3         -0.5273    3.5531   -0.3159 H         1 <0>         0.0959
     35 H4         -0.4530    3.0501    1.3898 H         1 <0>         0.0902
     36 H5         -2.1833    1.3023    0.9499 H         1 <0>         0.1514
     37 H6         -2.2576    1.8053   -0.7559 H         1 <0>         0.1605
     38 H7         -3.9814    0.0887   -1.0107 H         1 <0>         0.1303
     39 H8         -3.5815   -1.6078   -0.6500 H         1 <0>         0.1333
     40 H9         -3.7541   -0.4328    0.6759 H         1 <0>         0.1290
     41 H10        -2.0977    0.2181   -2.4904 H         1 <0>         0.1309
     42 H11        -0.4727   -0.2074   -1.9018 H         1 <0>         0.1222
     43 H12        -1.6978   -1.4784   -2.1297 H         1 <0>         0.1352
     44 H13         2.8311   -0.4354   -0.3896 H         1 <0>         0.1469
     45 H14         5.1767    0.3052   -0.3444 H         1 <0>         0.1443
     46 H15         4.2451    3.0057    2.8495 H         1 <0>         0.1490
     47 H16         1.9016    2.2600    2.7837 H         1 <0>         0.1484
     48 H17         6.8495    0.9957   -0.4328 H         1 <0>         0.1813
     49 H18         6.6861    4.3095    4.3494 H         1 <0>         0.4194
     50 H19         6.8654    4.8184    6.8290 H         1 <0>         0.1261
     51 H20         7.5589    6.5362    8.4491 H         1 <0>         0.1292
     52 H21         9.0331    8.3753    7.7410 H         1 <0>         0.1266
     53 H22         9.8184    8.5022    5.4120 H         1 <0>         0.1284
     54 H23         9.1399    6.7832    3.7867 H         1 <0>         0.1336
     55 H24        10.8635    2.7863    0.9239 H         1 <0>         0.4107
     56 H25        10.4055    4.1950    1.7166 H         1 <0>         0.4305
     57 H26        -1.4659   -0.8668    0.1635 H         1 <0>         0.4198
@<TRIPOS>BOND
     1    1    2 1
     2    1   33 1
     3    1   34 1
     4    1   35 1
     5    2    3 1
     6    2    4 1
     7    2    8 1
     8    4    5 1
     9    4   36 1
    10    4   37 1
    11    5    6 1
    12    5    7 1
    13    5   57 1
    14    6   38 1
    15    6   39 1
    16    6   40 1
    17    7   41 1
    18    7   42 1
    19    7   43 1
    20    8    9 2
    21    8   10 2
    22    8   11 1
    23   11   16 ar
    24   11   12 ar
    25   12   13 ar
    26   12   44 1
    27   13   14 ar
    28   13   45 1
    29   14   15 ar
    30   14   17 1
    31   15   16 ar
    32   15   46 1
    33   16   47 1
    34   17   22 ar
    35   17   18 ar
    36   18   19 ar
    37   18   48 1
    38   19   20 ar
    39   20   21 ar
    40   20   32 1
    41   21   22 ar
    42   21   23 1
    43   23   24 2
    44   23   25 am
    45   25   26 1
    46   25   49 1
    47   26   31 ar
    48   26   27 ar
    49   27   28 ar
    50   27   50 1
    51   28   29 ar
    52   28   51 1
    53   29   30 ar
    54   29   52 1
    55   30   31 ar
    56   30   53 1
    57   31   54 1
    58   32   55 1
    59   32   56 1
@<TRIPOS>MOLECULE
ZINC71297124
   56    58     0     0     0
SMALL
USER_CHARGES

@<TRIPOS>ATOM
      1 C1          0.2896    2.8961   -0.1710 C.3       1 <0>        -0.1448
      2 C2          0.0780    1.4381    0.2418 C.3       1 <0>        -0.5697
      3 H1         -0.9869    1.2502    0.3792 H         1 <0>         0.1391
      4 C3          0.8172    1.1670    1.5536 C.3       1 <0>         0.0621
      5 N1          0.6141   -0.2329    1.9499 N.3       1 <0>        -0.5589
      6 C4          1.4937   -0.5962    3.0689 C.3       1 <0>         0.0222
      7 C5         -0.7939   -0.4866    2.2832 C.3       1 <0>         0.0202
      8 S1          0.7229    0.3435   -1.0530 S.o2      1 <0>         2.5105
      9 O1          2.0967    0.6201   -1.2884 O.2       1 <0>        -0.9355
     10 O2          0.2795   -0.9886   -0.8335 O.2       1 <0>        -0.9147
     11 C6         -0.0972    0.8532   -2.5269 C.ar      1 <0>        -0.6601
     12 C7         -1.3035    0.2751   -2.8793 C.ar      1 <0>        -0.0189
     13 C8         -1.9501    0.6701   -4.0328 C.ar      1 <0>        -0.1287
     14 C9         -1.3857    1.6538   -4.8429 C.ar      1 <0>         0.0245
     15 C10        -0.1704    2.2331   -4.4826 C.ar      1 <0>        -0.1092
     16 C11         0.4648    1.8340   -3.3242 C.ar      1 <0>        -0.0223
     17 C12        -2.0757    2.0821   -6.0841 C.ar      1 <0>         0.0397
     18 C13        -3.3457    1.5796   -6.3858 C.ar      1 <0>         0.1626
     19 N2         -3.9639    1.9568   -7.4878 N.ar      1 <0>        -0.4945
     20 C14        -3.3819    2.8170   -8.3169 C.ar      1 <0>         0.4187
     21 C15        -2.1065    3.3239   -8.0173 C.ar      1 <0>        -0.0401
     22 N3         -1.4900    2.9445   -6.9024 N.ar      1 <0>        -0.3623
     23 C16        -1.4550    4.2802   -8.9354 C.2       1 <0>         0.5920
     24 O3         -2.0593    4.7026   -9.9022 O.2       1 <0>        -0.5197
     25 N4         -0.1908    4.6846   -8.7013 N.am      1 <0>        -0.6505
     26 C17         0.3877    5.6716   -9.5053 C.ar      1 <0>         0.1409
     27 C18         1.7488    5.6362   -9.7799 C.ar      1 <0>        -0.1416
     28 C19         2.3170    6.6122  -10.5747 C.ar      1 <0>        -0.0993
     29 C20         1.5324    7.6243  -11.0967 C.ar      1 <0>        -0.1319
     30 C21         0.1771    7.6628  -10.8249 C.ar      1 <0>        -0.1004
     31 C22        -0.3985    6.6863  -10.0359 C.ar      1 <0>        -0.1205
     32 N5         -4.0302    3.2117   -9.4721 N.pl3     1 <0>        -0.8140
     33 H2          1.3544    3.0840   -0.3084 H         1 <0>         0.0783
     34 H3         -0.2371    3.0892   -1.1056 H         1 <0>         0.0744
     35 H4         -0.0980    3.5538    0.6070 H         1 <0>         0.0802
     36 H5          1.8821    1.3549    1.4162 H         1 <0>         0.0950
     37 H6          0.4297    1.8248    2.3316 H         1 <0>         0.0642
     38 H7          1.2771    0.0441    3.9240 H         1 <0>         0.0317
     39 H8          1.3229   -1.6374    3.3421 H         1 <0>         0.0772
     40 H9          2.5339   -0.4647    2.7709 H         1 <0>         0.0735
     41 H10        -1.4168   -0.2756    1.4140 H         1 <0>         0.0696
     42 H11        -0.9163   -1.5302    2.5731 H         1 <0>         0.0775
     43 H12        -1.0934    0.1576    3.1099 H         1 <0>         0.0303
     44 H13        -1.7399   -0.4871   -2.2508 H         1 <0>         0.1471
     45 H14        -2.8915    0.2175   -4.3073 H         1 <0>         0.1383
     46 H15         0.2716    2.9956   -5.1068 H         1 <0>         0.1423
     47 H16         1.4044    2.2853   -3.0417 H         1 <0>         0.1454
     48 H17        -3.8214    0.8801   -5.7143 H         1 <0>         0.1822
     49 H18         0.3177    4.2909   -7.9752 H         1 <0>         0.4213
     50 H19         2.3622    4.8464   -9.3719 H         1 <0>         0.1270
     51 H20         3.3753    6.5853  -10.7885 H         1 <0>         0.1282
     52 H21         1.9793    8.3866  -11.7177 H         1 <0>         0.1249
     53 H22        -0.4328    8.4547  -11.2338 H         1 <0>         0.1269
     54 H23        -1.4578    6.7143   -9.8277 H         1 <0>         0.1337
     55 H24        -4.6975    2.6346   -9.8751 H         1 <0>         0.4077
     56 H25        -3.8177    4.0659   -9.8798 H         1 <0>         0.4282
@<TRIPOS>BOND
     1    1    2 1
     2    1   33 1
     3    1   34 1
     4    1   35 1
     5    2    3 1
     6    2    4 1
     7    2    8 1
     8    4    5 1
     9    4   36 1
    10    4   37 1
    11    5    6 1
    12    5    7 1
    13    6   38 1
    14    6   39 1
    15    6   40 1
    16    7   41 1
    17    7   42 1
    18    7   43 1
    19    8    9 2
    20    8   10 2
    21    8   11 1
    22   11   16 ar
    23   11   12 ar
    24   12   13 ar
    25   12   44 1
    26   13   14 ar
    27   13   45 1
    28   14   15 ar
    29   14   17 1
    30   15   16 ar
    31   15   46 1
    32   16   47 1
    33   17   22 ar
    34   17   18 ar
    35   18   19 ar
    36   18   48 1
    37   19   20 ar
    38   20   21 ar
    39   20   32 1
    40   21   22 ar
    41   21   23 1
    42   23   24 2
    43   23   25 am
    44   25   26 1
    45   25   49 1
    46   26   31 ar
    47   26   27 ar
    48   27   28 ar
    49   27   50 1
    50   28   29 ar
    51   28   51 1
    52   29   30 ar
    53   29   52 1
    54   30   31 ar
    55   30   53 1
    56   31   54 1
    57   32   55 1
    58   32   56 1
@<TRIPOS>MOLECULE
ZINC08437745
    8     7     0     0     0
SMALL
USER_CHARGES

@<TRIPOS>ATOM
      1 C1         -0.0211    1.7077    0.0114 C.2       1 <0>         0.5828
      2 S1          0.0021   -0.0041    0.0020 S.2       1 <0>        -0.6417
      3 N1          1.1368    2.3974    0.0041 N.pl3     1 <0>        -0.8030
      4 N2         -1.1974    2.3657    0.0206 N.pl3     1 <0>        -0.8030
      5 H1          1.9833    1.9239   -0.0065 H         1 <0>         0.4347
      6 H2          1.1236    3.3673    0.0094 H         1 <0>         0.3978
      7 H3         -2.0307    1.8693    0.0218 H         1 <0>         0.4347
      8 H4         -1.2105    3.3356    0.0259 H         1 <0>         0.3978
@<TRIPOS>BOND
     1    1    2 2
     2    1    3 1
     3    1    4 1
     4    3    5 1
     5    3    6 1
     6    4    7 1
     7    4    8 1
@<TRIPOS>MOLECULE
ZINC01531882
   57    60     0     0     0
SMALL
USER_CHARGES

@<TRIPOS>ATOM
      1 C1         -0.5539    1.4764   -0.3285 C.3       1 <0>        -0.1509
      2 C2         -0.4621   -0.0499   -0.2742 C.3       1 <0>        -0.0827
      3 H1         -0.0288   -0.4167   -1.2046 H         1 <0>         0.0752
      4 C3         -1.8649   -0.6329   -0.1081 C.3       1 <0>        -0.0810
      5 C4         -1.9445   -1.9698   -0.8157 C.ar      1 <0>        -0.0442
      6 C5         -2.0600   -2.0344   -2.1849 C.ar      1 <0>        -0.1060
      7 C6         -2.1620   -3.2679   -2.8148 C.ar      1 <0>         0.0551
      8 C7         -2.1461   -4.4372   -2.0596 C.ar      1 <0>         0.0039
      9 C8         -2.0194   -4.3736   -0.6797 C.ar      1 <0>         0.1447
     10 C9         -1.9073   -3.1301   -0.0456 C.ar      1 <0>        -0.0468
     11 C10        -1.7100   -3.0626    1.4149 C.ar      1 <0>        -0.0918
     12 C11        -0.5761   -2.4627    1.9595 C.ar      1 <0>        -0.0079
     13 C12        -0.4190   -2.3526    3.3210 C.ar      1 <0>        -0.2009
     14 C13        -1.3838   -2.8746    4.1739 C.ar      1 <0>         0.1310
     15 C14        -2.5056   -3.5060    3.6486 C.ar      1 <0>         0.0366
     16 C15        -2.6748   -3.6015    2.2752 C.ar      1 <0>         0.1521
     17 O1         -3.7751   -4.2164    1.7654 O.3       1 <0>        -0.3050
     18 C16        -4.8765   -3.3807    1.4041 C.3       1 <0>         0.0355
     19 O2         -3.4414   -4.0322    4.4852 O.3       1 <0>        -0.3118
     20 C17        -4.4398   -3.1404    4.9849 C.3       1 <0>         0.0332
     21 O3         -1.2311   -2.7678    5.5210 O.3       1 <0>        -0.3027
     22 C18        -0.0544   -2.1064    5.9901 C.3       1 <0>         0.0234
     23 C19         0.5052   -1.9800    1.0142 C.3       1 <0>        -0.0854
     24 C20         0.4331   -0.4584    0.8926 C.3       1 <0>        -0.0803
     25 H2          1.4363   -0.0642    0.7302 H         1 <0>         0.0783
     26 C21        -0.1321    0.1250    2.1892 C.3       1 <0>        -0.1576
     27 O4         -2.0058   -5.5168    0.0563 O.3       1 <0>        -0.3089
     28 C22        -0.7324   -6.1203    0.2938 C.3       1 <0>         0.0370
     29 O5         -2.2687   -5.5038   -2.9055 O.3       1 <0>        -0.2998
     30 C23        -2.7673   -4.9585   -4.1412 C.3       1 <0>         0.2112
     31 O6         -2.2883   -3.6006   -4.1327 O.3       1 <0>        -0.3054
     32 H3          0.4437    1.8961   -0.4575 H         1 <0>         0.0572
     33 H4         -1.1841    1.7729   -1.1670 H         1 <0>         0.0564
     34 H5         -0.9869    1.8476    0.6004 H         1 <0>         0.0603
     35 H6         -2.0781   -0.7698    0.9521 H         1 <0>         0.0846
     36 H7         -2.5958    0.0507   -0.5400 H         1 <0>         0.0801
     37 H8         -2.0718   -1.1264   -2.7696 H         1 <0>         0.1417
     38 H9          0.4531   -1.8614    3.7269 H         1 <0>         0.1419
     39 H10        -5.1639   -2.7686    2.2591 H         1 <0>         0.0436
     40 H11        -4.5860   -2.7345    0.5759 H         1 <0>         0.0461
     41 H12        -5.7199   -4.0016    1.1020 H         1 <0>         0.0963
     42 H13        -3.9716   -2.3931    5.6257 H         1 <0>         0.0479
     43 H14        -4.9347   -2.6443    4.1500 H         1 <0>         0.0404
     44 H15        -5.1746   -3.7033    5.5604 H         1 <0>         0.0945
     45 H16         0.8278   -2.6403    5.6368 H         1 <0>         0.0583
     46 H17        -0.0366   -1.0845    5.6114 H         1 <0>         0.0570
     47 H18        -0.0569   -2.0900    7.0800 H         1 <0>         0.1033
     48 H19         1.4822   -2.2678    1.4025 H         1 <0>         0.0789
     49 H20         0.3573   -2.4306    0.0328 H         1 <0>         0.0794
     50 H21        -1.1401   -0.2572    2.3504 H         1 <0>         0.0619
     51 H22         0.5042   -0.1643    3.0255 H         1 <0>         0.0556
     52 H23        -0.1632    1.2120    2.1153 H         1 <0>         0.0588
     53 H24        -0.2698   -6.3795   -0.6586 H         1 <0>         0.0453
     54 H25        -0.0924   -5.4193    0.8297 H         1 <0>         0.0455
     55 H26        -0.8636   -7.0224    0.8914 H         1 <0>         0.0966
     56 H27        -2.3594   -5.5033   -4.9927 H         1 <0>         0.1338
     57 H28        -3.8570   -4.9802   -4.1576 H         1 <0>         0.0861
@<TRIPOS>BOND
     1    1    2 1
     2    1   32 1
     3    1   33 1
     4    1   34 1
     5    2    3 1
     6    2   24 1
     7    2    4 1
     8    4    5 1
     9    4   35 1
    10    4   36 1
    11    5   10 ar
    12    5    6 ar
    13    6    7 ar
    14    6   37 1
    15    7   31 1
    16    7    8 ar
    17    8    9 ar
    18    8   29 1
    19    9   10 ar
    20    9   27 1
    21   10   11 1
    22   11   16 ar
    23   11   12 ar
    24   12   13 ar
    25   12   23 1
    26   13   14 ar
    27   13   38 1
    28   14   15 ar
    29   14   21 1
    30   15   16 ar
    31   15   19 1
    32   16   17 1
    33   17   18 1
    34   18   39 1
    35   18   40 1
    36   18   41 1
    37   19   20 1
    38   20   42 1
    39   20   43 1
    40   20   44 1
    41   21   22 1
    42   22   45 1
    43   22   46 1
    44   22   47 1
    45   23   24 1
    46   23   48 1
    47   23   49 1
    48   24   25 1
    49   24   26 1
    50   26   50 1
    51   26   51 1
    52   26   52 1
    53   27   28 1
    54   28   53 1
    55   28   54 1
    56   28   55 1
    57   29   30 1
    58   30   31 1
    59   30   56 1
    60   30   57 1
@<TRIPOS>MOLECULE
ZINC01531911
   57    60     0     0     0
SMALL
USER_CHARGES

@<TRIPOS>ATOM
      1 C1          0.0396    1.5505   -0.6467 C.3       1 <0>        -0.1598
      2 C2          0.0315    0.0244   -0.5376 C.3       1 <0>        -0.0809
      3 H1         -0.9962   -0.3341   -0.5957 H         1 <0>         0.0793
      4 C3          0.8370   -0.5670   -1.6938 C.3       1 <0>        -0.0788
      5 C4          1.8999    0.4210   -2.1279 C.ar      1 <0>        -0.0396
      6 C5          1.5713    1.5156   -2.8935 C.ar      1 <0>        -0.1032
      7 C6          2.5631    2.3951   -3.3077 C.ar      1 <0>         0.0524
      8 C7          3.8883    2.1680   -2.9467 C.ar      1 <0>         0.0040
      9 C8          4.2194    1.0698   -2.1667 C.ar      1 <0>         0.1435
     10 C9          3.2179    0.1885   -1.7411 C.ar      1 <0>        -0.0483
     11 C10         3.5588   -0.9450   -0.8604 C.ar      1 <0>        -0.0901
     12 C11         2.9877   -1.0688    0.4048 C.ar      1 <0>        -0.0131
     13 C12         3.2647   -2.1538    1.2027 C.ar      1 <0>        -0.2029
     14 C13         4.1522   -3.1283    0.7628 C.ar      1 <0>         0.1332
     15 C14         4.7571   -3.0042   -0.4829 C.ar      1 <0>         0.0365
     16 C15         4.4646   -1.9199   -1.2969 C.ar      1 <0>         0.1530
     17 O1          5.0555   -1.8039   -2.5160 O.3       1 <0>        -0.3050
     18 C16         4.3219   -2.2910   -3.6415 C.3       1 <0>         0.0356
     19 O2          5.6396   -3.9503   -0.9052 O.3       1 <0>        -0.3118
     20 C17         5.0933   -5.1173   -1.5231 C.3       1 <0>         0.0332
     21 O3          4.4285   -4.2024    1.5497 O.3       1 <0>        -0.3029
     22 C18         3.7705   -4.2648    2.8167 C.3       1 <0>         0.0237
     23 C19         2.0929    0.0486    0.9014 C.3       1 <0>        -0.0874
     24 C20         0.6323   -0.3868    0.8038 C.3       1 <0>        -0.0810
     25 H2          0.5733   -1.4703    0.9062 H         1 <0>         0.0734
     26 C21        -0.1636    0.2688    1.9341 C.3       1 <0>        -0.1516
     27 O4          5.5145    0.8491   -1.8161 O.3       1 <0>        -0.3090
     28 C22         5.9665    1.4413   -0.5966 C.3       1 <0>         0.0369
     29 O5          4.6615    3.1606   -3.4808 O.3       1 <0>        -0.3000
     30 C23         3.8533    3.7668   -4.5067 C.3       1 <0>         0.2112
     31 O6          2.5043    3.5313   -4.0620 O.3       1 <0>        -0.3054
     32 H3          1.0657    1.9135   -0.5891 H         1 <0>         0.0614
     33 H4         -0.3985    1.8490   -1.5992 H         1 <0>         0.0594
     34 H5         -0.5429    1.9763    0.1704 H         1 <0>         0.0590
     35 H6          1.3123   -1.4926   -1.3691 H         1 <0>         0.0803
     36 H7          0.1710   -0.7752   -2.5312 H         1 <0>         0.0796
     37 H8          0.5427    1.6912   -3.1720 H         1 <0>         0.1437
     38 H9          2.7935   -2.2483    2.1698 H         1 <0>         0.1397
     39 H10         4.0404   -3.3299   -3.4698 H         1 <0>         0.0436
     40 H11         3.4236   -1.6889   -3.7778 H         1 <0>         0.0463
     41 H12         4.9423   -2.2256   -4.5354 H         1 <0>         0.0964
     42 H13         4.5095   -5.6762   -0.7918 H         1 <0>         0.0480
     43 H14         4.4504   -4.8222   -2.3524 H         1 <0>         0.0406
     44 H15         5.9034   -5.7437   -1.8966 H         1 <0>         0.0946
     45 H16         4.0397   -3.3906    3.4094 H         1 <0>         0.0586
     46 H17         2.6912   -4.2827    2.6651 H         1 <0>         0.0572
     47 H18         4.0786   -5.1688    3.3420 H         1 <0>         0.1034
     48 H19         2.3363    0.2747    1.9395 H         1 <0>         0.0794
     49 H20         2.2486    0.9375    0.2901 H         1 <0>         0.0836
     50 H21        -1.2025   -0.0571    1.8834 H         1 <0>         0.0572
     51 H22         0.2620   -0.0221    2.8944 H         1 <0>         0.0551
     52 H23        -0.1175    1.3528    1.8297 H         1 <0>         0.0613
     53 H24         5.8599    2.5243   -0.6573 H         1 <0>         0.0453
     54 H25         5.3699    1.0634    0.2337 H         1 <0>         0.0453
     55 H26         7.0143    1.1877   -0.4361 H         1 <0>         0.0965
     56 H27         4.0544    4.8362   -4.5709 H         1 <0>         0.1335
     57 H28         4.0295    3.2844   -5.4682 H         1 <0>         0.0859
@<TRIPOS>BOND
     1    1    2 1
     2    1   32 1
     3    1   33 1
     4    1   34 1
     5    2    3 1
     6    2   24 1
     7    2    4 1
     8    4    5 1
     9    4   35 1
    10    4   36 1
    11    5   10 ar
    12    5    6 ar
    13    6    7 ar
    14    6   37 1
    15    7   31 1
    16    7    8 ar
    17    8    9 ar
    18    8   29 1
    19    9   10 ar
    20    9   27 1
    21   10   11 1
    22   11   16 ar
    23   11   12 ar
    24   12   13 ar
    25   12   23 1
    26   13   14 ar
    27   13   38 1
    28   14   15 ar
    29   14   21 1
    30   15   16 ar
    31   15   19 1
    32   16   17 1
    33   17   18 1
    34   18   39 1
    35   18   40 1
    36   18   41 1
    37   19   20 1
    38   20   42 1
    39   20   43 1
    40   20   44 1
    41   21   22 1
    42   22   45 1
    43   22   46 1
    44   22   47 1
    45   23   24 1
    46   23   48 1
    47   23   49 1
    48   24   25 1
    49   24   26 1
    50   26   50 1
    51   26   51 1
    52   26   52 1
    53   27   28 1
    54   28   53 1
    55   28   54 1
    56   28   55 1
    57   29   30 1
    58   30   31 1
    59   30   56 1
    60   30   57 1
@<TRIPOS>MOLECULE
ZINC02558151
   57    60     0     0     0
SMALL
USER_CHARGES

@<TRIPOS>ATOM
      1 C1         -0.5539    1.4764   -0.3285 C.3       1 <0>        -0.1508
      2 C2         -0.4621   -0.0499   -0.2742 C.3       1 <0>        -0.0826
      3 H1         -0.0288   -0.4167   -1.2046 H         1 <0>         0.0759
      4 C3         -1.8649   -0.6329   -0.1081 C.3       1 <0>        -0.0776
      5 C4         -1.9445   -1.9698   -0.8157 C.ar      1 <0>        -0.0441
      6 C5         -2.0600   -2.0344   -2.1849 C.ar      1 <0>        -0.1056
      7 C6         -2.1620   -3.2679   -2.8148 C.ar      1 <0>         0.0552
      8 C7         -2.1461   -4.4372   -2.0596 C.ar      1 <0>         0.0040
      9 C8         -2.0194   -4.3736   -0.6797 C.ar      1 <0>         0.1448
     10 C9         -1.9073   -3.1301   -0.0456 C.ar      1 <0>        -0.0470
     11 C10        -1.7100   -3.0626    1.4149 C.ar      1 <0>        -0.0904
     12 C11        -0.5761   -2.4627    1.9595 C.ar      1 <0>        -0.0131
     13 C12        -0.4190   -2.3526    3.3210 C.ar      1 <0>        -0.2026
     14 C13        -1.3838   -2.8746    4.1739 C.ar      1 <0>         0.1333
     15 C14        -2.5056   -3.5060    3.6486 C.ar      1 <0>         0.0367
     16 C15        -2.6748   -3.6015    2.2752 C.ar      1 <0>         0.1531
     17 O1         -3.7751   -4.2164    1.7654 O.3       1 <0>        -0.3051
     18 C16        -4.8765   -3.3807    1.4041 C.3       1 <0>         0.0356
     19 O2         -3.4414   -4.0322    4.4852 O.3       1 <0>        -0.3118
     20 C17        -4.4398   -3.1404    4.9849 C.3       1 <0>         0.0332
     21 O3         -1.2311   -2.7678    5.5210 O.3       1 <0>        -0.3029
     22 C18        -0.0544   -2.1064    5.9901 C.3       1 <0>         0.0236
     23 C19         0.5052   -1.9800    1.0142 C.3       1 <0>        -0.0842
     24 C20         0.4331   -0.4584    0.8926 C.3       1 <0>        -0.0808
     25 H2          0.0304   -0.0428    1.8163 H         1 <0>         0.0742
     26 C21         1.8412    0.0949    0.6646 C.3       1 <0>        -0.1513
     27 O4         -2.0058   -5.5168    0.0563 O.3       1 <0>        -0.3090
     28 C22        -0.7324   -6.1203    0.2938 C.3       1 <0>         0.0369
     29 O5         -2.2687   -5.5038   -2.9055 O.3       1 <0>        -0.2998
     30 C23        -2.7673   -4.9585   -4.1412 C.3       1 <0>         0.2111
     31 O6         -2.2883   -3.6006   -4.1327 O.3       1 <0>        -0.3054
     32 H3          0.4437    1.8961   -0.4575 H         1 <0>         0.0611
     33 H4         -1.1841    1.7729   -1.1670 H         1 <0>         0.0569
     34 H5         -0.9869    1.8476    0.6004 H         1 <0>         0.0557
     35 H6         -2.0781   -0.7698    0.9521 H         1 <0>         0.0800
     36 H7         -2.5958    0.0507   -0.5400 H         1 <0>         0.0810
     37 H8         -2.0718   -1.1264   -2.7696 H         1 <0>         0.1419
     38 H9          0.4531   -1.8614    3.7269 H         1 <0>         0.1398
     39 H10        -5.1639   -2.7686    2.2591 H         1 <0>         0.0437
     40 H11        -4.5860   -2.7345    0.5759 H         1 <0>         0.0463
     41 H12        -5.7199   -4.0016    1.1020 H         1 <0>         0.0965
     42 H13        -3.9716   -2.3931    5.6257 H         1 <0>         0.0480
     43 H14        -4.9347   -2.6443    4.1500 H         1 <0>         0.0406
     44 H15        -5.1746   -3.7033    5.5604 H         1 <0>         0.0947
     45 H16         0.8278   -2.6403    5.6368 H         1 <0>         0.0586
     46 H17        -0.0366   -1.0845    5.6114 H         1 <0>         0.0573
     47 H18        -0.0569   -2.0900    7.0800 H         1 <0>         0.1035
     48 H19         1.4822   -2.2678    1.4025 H         1 <0>         0.0803
     49 H20         0.3573   -2.4306    0.0328 H         1 <0>         0.0791
     50 H21         1.7983    1.1821    0.5998 H         1 <0>         0.0612
     51 H22         2.4843   -0.1945    1.4957 H         1 <0>         0.0555
     52 H23         2.2442   -0.3088   -0.2642 H         1 <0>         0.0565
     53 H24        -0.2698   -6.3795   -0.6586 H         1 <0>         0.0454
     54 H25        -0.0924   -5.4193    0.8297 H         1 <0>         0.0455
     55 H26        -0.8636   -7.0224    0.8914 H         1 <0>         0.0967
     56 H27        -2.3594   -5.5033   -4.9927 H         1 <0>         0.1339
     57 H28        -3.8570   -4.9802   -4.1576 H         1 <0>         0.0862
@<TRIPOS>BOND
     1    1    2 1
     2    1   32 1
     3    1   33 1
     4    1   34 1
     5    2    3 1
     6    2   24 1
     7    2    4 1
     8    4    5 1
     9    4   35 1
    10    4   36 1
    11    5   10 ar
    12    5    6 ar
    13    6    7 ar
    14    6   37 1
    15    7   31 1
    16    7    8 ar
    17    8    9 ar
    18    8   29 1
    19    9   10 ar
    20    9   27 1
    21   10   11 1
    22   11   16 ar
    23   11   12 ar
    24   12   13 ar
    25   12   23 1
    26   13   14 ar
    27   13   38 1
    28   14   15 ar
    29   14   21 1
    30   15   16 ar
    31   15   19 1
    32   16   17 1
    33   17   18 1
    34   18   39 1
    35   18   40 1
    36   18   41 1
    37   19   20 1
    38   20   42 1
    39   20   43 1
    40   20   44 1
    41   21   22 1
    42   22   45 1
    43   22   46 1
    44   22   47 1
    45   23   24 1
    46   23   48 1
    47   23   49 1
    48   24   25 1
    49   24   26 1
    50   26   50 1
    51   26   51 1
    52   26   52 1
    53   27   28 1
    54   28   53 1
    55   28   54 1
    56   28   55 1
    57   29   30 1
    58   30   31 1
    59   30   56 1
    60   30   57 1
@<TRIPOS>MOLECULE
ZINC04214303
   57    60     0     0     0
SMALL
USER_CHARGES

@<TRIPOS>ATOM
      1 C1          0.2288    1.6667   -0.5268 C.3       1 <0>        -0.1511
      2 C2          0.2483    0.1425   -0.3945 C.3       1 <0>        -0.0821
      3 H1         -0.7647   -0.2146   -0.2094 H         1 <0>         0.0752
      4 C3          0.7679   -0.4690   -1.6951 C.3       1 <0>        -0.0784
      5 C4          0.0965   -1.8066   -1.9284 C.ar      1 <0>        -0.0433
      6 C5         -1.1977   -1.8720   -2.3897 C.ar      1 <0>        -0.1048
      7 C6         -1.7884   -3.1067   -2.6253 C.ar      1 <0>         0.0546
      8 C7         -1.0691   -4.2761   -2.3952 C.ar      1 <0>         0.0008
      9 C8          0.2333   -4.2112   -1.9217 C.ar      1 <0>         0.1447
     10 C9          0.8245   -2.9666   -1.6725 C.ar      1 <0>        -0.0420
     11 C10         2.1848   -2.8953   -1.1061 C.ar      1 <0>        -0.0884
     12 C11         2.4213   -2.2728    0.1183 C.ar      1 <0>        -0.0139
     13 C12         3.6966   -2.1589    0.6195 C.ar      1 <0>        -0.2034
     14 C13         4.7674   -2.6990   -0.0822 C.ar      1 <0>         0.1349
     15 C14         4.5464   -3.3525   -1.2894 C.ar      1 <0>         0.0348
     16 C15         3.2628   -3.4523   -1.8054 C.ar      1 <0>         0.1527
     17 O1          3.0514   -4.0900   -2.9876 O.3       1 <0>        -0.3118
     18 C16         3.1148   -3.2956   -4.1737 C.3       1 <0>         0.0401
     19 O2          5.5937   -3.8964   -1.9673 O.3       1 <0>        -0.3186
     20 C17         5.9272   -5.2530   -1.6662 C.3       1 <0>         0.0382
     21 O3          6.0298   -2.5889    0.4113 O.3       1 <0>        -0.3018
     22 C18         6.1822   -1.9051    1.6568 C.3       1 <0>         0.0235
     23 C19         1.2316   -1.7686    0.9095 C.3       1 <0>        -0.0833
     24 C20         1.1415   -0.2486    0.7796 C.3       1 <0>        -0.0814
     25 H2          2.1402    0.1584    0.6217 H         1 <0>         0.0750
     26 C21         0.5602    0.3326    2.0700 C.3       1 <0>        -0.1510
     27 O4          0.9346   -5.3547   -1.6994 O.3       1 <0>        -0.3091
     28 C22         0.7464   -5.9960   -0.4363 C.3       1 <0>         0.0362
     29 O5         -1.8624   -5.3439   -2.7095 O.3       1 <0>        -0.2997
     30 C23        -3.2064   -4.8284   -2.7384 C.3       1 <0>         0.2106
     31 O6         -3.0329   -3.4398   -3.0766 O.3       1 <0>        -0.3047
     32 H3          1.2403    2.0283   -0.7120 H         1 <0>         0.0563
     33 H4         -0.4166    1.9510   -1.3579 H         1 <0>         0.0570
     34 H5         -0.1512    2.1066    0.3952 H         1 <0>         0.0608
     35 H6          0.5437    0.1999   -2.5260 H         1 <0>         0.0817
     36 H7          1.8463   -0.6113   -1.6242 H         1 <0>         0.0813
     37 H8         -1.7543   -0.9639   -2.5681 H         1 <0>         0.1419
     38 H9          3.8658   -1.6501    1.5570 H         1 <0>         0.1396
     39 H10         2.3605   -2.5102   -4.1257 H         1 <0>         0.0441
     40 H11         4.1038   -2.8449   -4.2567 H         1 <0>         0.0510
     41 H12         2.9284   -3.9256   -5.0434 H         1 <0>         0.0947
     42 H13         6.1858   -5.3378   -0.6107 H         1 <0>         0.0435
     43 H14         5.0729   -5.8940   -1.8836 H         1 <0>         0.0495
     44 H15         6.7773   -5.5617   -2.2745 H         1 <0>         0.0926
     45 H16         5.8165   -0.8831    1.5573 H         1 <0>         0.0582
     46 H17         5.6105   -2.4222    2.4275 H         1 <0>         0.0571
     47 H18         7.2358   -1.8885    1.9356 H         1 <0>         0.1033
     48 H19         0.3191   -2.2214    0.5218 H         1 <0>         0.0782
     49 H20         1.3530   -2.0372    1.9589 H         1 <0>         0.0796
     50 H21        -0.4435   -0.0625    2.2267 H         1 <0>         0.0560
     51 H22         1.1952    0.0556    2.9116 H         1 <0>         0.0553
     52 H23         0.5149    1.4188    1.9911 H         1 <0>         0.0614
     53 H24         0.9752   -5.2939    0.3654 H         1 <0>         0.0452
     54 H25        -0.2889   -6.3251   -0.3466 H         1 <0>         0.0453
     55 H26         1.4093   -6.8583   -0.3643 H         1 <0>         0.0953
     56 H27        -3.7955   -5.3376   -3.5011 H         1 <0>         0.1338
     57 H28        -3.6761   -4.9286   -1.7599 H         1 <0>         0.0846
@<TRIPOS>BOND
     1    1    2 1
     2    1   32 1
     3    1   33 1
     4    1   34 1
     5    2    3 1
     6    2   24 1
     7    2    4 1
     8    4    5 1
     9    4   35 1
    10    4   36 1
    11    5   10 ar
    12    5    6 ar
    13    6    7 ar
    14    6   37 1
    15    7   31 1
    16    7    8 ar
    17    8    9 ar
    18    8   29 1
    19    9   10 ar
    20    9   27 1
    21   10   11 1
    22   11   16 ar
    23   11   12 ar
    24   12   13 ar
    25   12   23 1
    26   13   14 ar
    27   13   38 1
    28   14   15 ar
    29   14   21 1
    30   15   16 ar
    31   15   19 1
    32   16   17 1
    33   17   18 1
    34   18   39 1
    35   18   40 1
    36   18   41 1
    37   19   20 1
    38   20   42 1
    39   20   43 1
    40   20   44 1
    41   21   22 1
    42   22   45 1
    43   22   46 1
    44   22   47 1
    45   23   24 1
    46   23   48 1
    47   23   49 1
    48   24   25 1
    49   24   26 1
    50   26   50 1
    51   26   51 1
    52   26   52 1
    53   27   28 1
    54   28   53 1
    55   28   54 1
    56   28   55 1
    57   29   30 1
    58   30   31 1
    59   30   56 1
    60   30   57 1
