@<TRIPOS>MOLECULE
ZINC04501578
   40    41     0     0     0
SMALL
USER_CHARGES

@<TRIPOS>ATOM
      1 C1         -0.0167    1.3790    0.0096 C.ar      1 <0>        -0.1219
      2 C2          1.1687    2.0919    0.0021 C.ar      1 <0>        -0.1206
      3 C3          2.3774    1.4258   -0.0129 C.ar      1 <0>        -0.1048
      4 C4          2.4022    0.0327   -0.0206 C.ar      1 <0>        -0.0434
      5 C5          1.2051   -0.6804   -0.0130 C.ar      1 <0>        -0.1054
      6 C6          0.0021   -0.0041    0.0020 C.ar      1 <0>        -0.1206
      7 C7          3.6987   -0.6889   -0.0373 C.ar      1 <0>        -0.0051
      8 C8          4.8958    0.0241   -0.0395 C.ar      1 <0>        -0.1311
      9 C9          6.0988   -0.6522   -0.0546 C.ar      1 <0>        -0.0131
     10 C10         6.1176   -2.0352   -0.0680 C.ar      1 <0>        -0.6667
     11 C11         4.9322   -2.7481   -0.0663 C.ar      1 <0>        -0.0146
     12 C12         3.7235   -2.0821   -0.0450 C.ar      1 <0>        -0.1311
     13 S1          7.6571   -2.8920   -0.0877 S.o2      1 <0>         2.6919
     14 O1          7.4021   -4.1724   -0.6489 O.2       1 <0>        -0.9502
     15 O2          8.6134   -1.9962   -0.6373 O.2       1 <0>        -0.9824
     16 N1          8.0968   -3.1452    1.4886 N.pl3     1 <0>        -1.0740
     17 C13         7.2857   -4.0143    2.3448 C.3       1 <0>         0.0854
     18 H1          6.2629   -4.0423    1.9691 H         1 <0>         0.0670
     19 C14         7.2892   -3.4690    3.7743 C.3       1 <0>        -0.0792
     20 C15         6.5915   -2.1077    3.8026 C.3       1 <0>        -0.1761
     21 C16         6.5949   -1.5706    5.2106 C.2       1 <0>         0.4909
     22 O3          7.1079   -2.2167    6.1083 O.co2     1 <0>        -0.6974
     23 O4          6.0847   -0.4899    5.4521 O.co2     1 <0>        -0.7201
     24 C17         7.8621   -5.4068    2.3369 C.2       1 <0>         0.4950
     25 O5          8.9520   -5.6125    1.8308 O.co2     1 <0>        -0.6882
     26 O6          7.2384   -6.3275    2.8366 O.co2     1 <0>        -0.7015
     27 H2         -0.9603    1.9042    0.0260 H         1 <0>         0.1196
     28 H3          1.1483    3.1717    0.0077 H         1 <0>         0.1227
     29 H4          3.3023    1.9834   -0.0191 H         1 <0>         0.1281
     30 H5          1.2186   -1.7603   -0.0193 H         1 <0>         0.1285
     31 H6         -0.9264   -0.5558    0.0082 H         1 <0>         0.1228
     32 H7          4.8823    1.1040   -0.0299 H         1 <0>         0.1309
     33 H8          7.0273   -0.1005   -0.0564 H         1 <0>         0.1406
     34 H9          4.9525   -3.8278   -0.0771 H         1 <0>         0.1440
     35 H10         2.7986   -2.6396   -0.0392 H         1 <0>         0.1317
     36 H11         8.8914   -2.7181    1.8450 H         1 <0>         0.4135
     37 H12         6.7605   -4.1620    4.4288 H         1 <0>         0.0743
     38 H13         8.3176   -3.3574    4.1181 H         1 <0>         0.0604
     39 H14         7.1202   -1.4148    3.1481 H         1 <0>         0.0517
     40 H15         5.5631   -2.2193    3.4588 H         1 <0>         0.0486
@<TRIPOS>BOND
     1    1    6 ar
     2    1    2 ar
     3    1   27 1
     4    2    3 ar
     5    2   28 1
     6    3    4 ar
     7    3   29 1
     8    4    5 ar
     9    4    7 1
    10    5    6 ar
    11    5   30 1
    12    6   31 1
    13    7   12 ar
    14    7    8 ar
    15    8    9 ar
    16    8   32 1
    17    9   10 ar
    18    9   33 1
    19   10   11 ar
    20   10   13 1
    21   11   12 ar
    22   11   34 1
    23   12   35 1
    24   13   14 2
    25   13   15 2
    26   13   16 1
    27   16   17 1
    28   16   36 1
    29   17   18 1
    30   17   19 1
    31   17   24 1
    32   19   20 1
    33   19   37 1
    34   19   38 1
    35   20   21 1
    36   20   39 1
    37   20   40 1
    38   21   22 2
    39   21   23 1
    40   24   25 2
    41   24   26 1
@<TRIPOS>MOLECULE
ZINC13982474
   54    57     0     0     0
SMALL
USER_CHARGES
N-[(3R,4R)-3-(hydroxycarbamoyl)tetrahydropyran-4-yl]-4-[[2-(trifluoromethyl)benzimidazol-1-yl]methyl]benzamide
@<TRIPOS>ATOM
      1 C1         -8.6866    7.9745   -6.1187 C.ar      1 <0>        -0.1260
      2 C2         -7.3857    7.6287   -6.4565 C.ar      1 <0>        -0.0804
      3 C3         -7.0477    6.3103   -6.6755 C.ar      1 <0>        -0.1148
      4 C4         -8.0167    5.3232   -6.5570 C.ar      1 <0>         0.0764
      5 C5         -9.3344    5.6741   -6.2183 C.ar      1 <0>         0.0396
      6 C6         -9.6549    7.0175   -6.0056 C.ar      1 <0>        -0.0476
      7 N1        -10.0501    4.5213   -6.1681 N.2       1 <0>        -0.4246
      8 C7         -9.2773    3.5139   -6.4522 C.2       1 <0>         0.1831
      9 N2         -8.0137    3.9505   -6.7040 N.pl3     1 <0>        -0.4578
     10 C8         -6.8619    3.1177   -7.0592 C.3       1 <0>         0.1351
     11 C9         -6.0727    2.7956   -5.8165 C.ar      1 <0>        -0.0998
     12 C10        -6.3071    1.6122   -5.1391 C.ar      1 <0>        -0.1033
     13 C11        -5.5874    1.3109   -4.0014 C.ar      1 <0>        -0.0552
     14 C12        -4.6214    2.2031   -3.5337 C.ar      1 <0>        -0.1201
     15 C13        -4.3938    3.3979   -4.2185 C.ar      1 <0>        -0.0831
     16 C14        -5.1165    3.6844   -5.3582 C.ar      1 <0>        -0.1009
     17 C15        -3.8467    1.8869   -2.3148 C.2       1 <0>         0.5598
     18 O1         -4.0505    0.8480   -1.7176 O.2       1 <0>        -0.5328
     19 N3         -2.9145    2.7506   -1.8658 N.am      1 <0>        -0.7127
     20 C16        -2.1469    2.4372   -0.6579 C.3       1 <0>         0.1692
     21 H1         -1.9681    1.3632   -0.6064 H         1 <0>         0.1052
     22 C17        -2.9316    2.8860    0.5787 C.3       1 <0>        -0.1805
     23 C18        -2.0887    2.6267    1.8301 C.3       1 <0>         0.0614
     24 O2         -0.8439    3.3199    1.7167 O.3       1 <0>        -0.3739
     25 C19        -0.0462    2.9079    0.6050 C.3       1 <0>         0.0698
     26 C20        -0.8070    3.1785   -0.6957 C.3       1 <0>        -0.1471
     27 H2         -0.2186    2.8246   -1.5422 H         1 <0>         0.1217
     28 C21        -1.0540    4.6585   -0.8360 C.2       1 <0>         0.5374
     29 O3         -2.1892    5.0799   -0.9055 O.2       1 <0>        -0.5096
     30 N4         -0.0135    5.5138   -0.8844 N.am      1 <0>        -0.5915
     31 O4         -0.2456    6.9044   -1.0163 O.3       1 <0>        -0.3144
     32 C22        -9.7178    2.0734   -6.4963 C.3       1 <0>         0.5595
     33 F1        -11.1154    2.0136   -6.5168 F         1 <0>        -0.1437
     34 F2         -9.2080    1.4649   -7.6483 F         1 <0>        -0.1654
     35 F3         -9.2390    1.4044   -5.3648 F         1 <0>        -0.1587
     36 H3         -8.9374    9.0113   -5.9499 H         1 <0>         0.1366
     37 H4         -6.6331    8.3978   -6.5487 H         1 <0>         0.1370
     38 H5         -6.0339    6.0467   -6.9385 H         1 <0>         0.1267
     39 H6        -10.6638    7.2975   -5.7407 H         1 <0>         0.1364
     40 H7         -6.2275    3.6563   -7.7632 H         1 <0>         0.1134
     41 H8         -7.2103    2.1926   -7.5184 H         1 <0>         0.1142
     42 H9         -7.0549    0.9227   -5.5020 H         1 <0>         0.1332
     43 H10        -5.7709    0.3864   -3.4739 H         1 <0>         0.1430
     44 H11        -3.6508    4.0945   -3.8593 H         1 <0>         0.1298
     45 H12        -4.9383    4.6065   -5.8916 H         1 <0>         0.1300
     46 H13        -2.7519    3.5796   -2.3423 H         1 <0>         0.4054
     47 H14        -3.1532    3.9506    0.5029 H         1 <0>         0.0998
     48 H15        -3.8626    2.3230    0.6435 H         1 <0>         0.0837
     49 H16        -2.6246    2.9835    2.7096 H         1 <0>         0.1023
     50 H17        -1.9018    1.5573    1.9273 H         1 <0>         0.0581
     51 H18         0.1676    1.8422    0.6860 H         1 <0>         0.0756
     52 H19         0.8894    3.4671    0.6019 H         1 <0>         0.1031
     53 H20         0.8943    5.1767   -0.8288 H         1 <0>         0.4076
     54 H21         0.5610    7.4371   -1.0420 H         1 <0>         0.3897
@<TRIPOS>BOND
     1    1    6 ar
     2    1    2 ar
     3    1   36 1
     4    2    3 ar
     5    2   37 1
     6    3    4 ar
     7    3   38 1
     8    4    9 1
     9    4    5 ar
    10    5    6 ar
    11    5    7 1
    12    6   39 1
    13    7    8 2
    14    8    9 1
    15    8   32 1
    16    9   10 1
    17   10   11 1
    18   10   40 1
    19   10   41 1
    20   11   16 ar
    21   11   12 ar
    22   12   13 ar
    23   12   42 1
    24   13   14 ar
    25   13   43 1
    26   14   15 ar
    27   14   17 1
    28   15   16 ar
    29   15   44 1
    30   16   45 1
    31   17   18 2
    32   17   19 am
    33   19   20 1
    34   19   46 1
    35   20   21 1
    36   20   26 1
    37   20   22 1
    38   22   23 1
    39   22   47 1
    40   22   48 1
    41   23   24 1
    42   23   49 1
    43   23   50 1
    44   24   25 1
    45   25   26 1
    46   25   51 1
    47   25   52 1
    48   26   27 1
    49   26   28 1
    50   28   29 2
    51   28   30 am
    52   30   31 1
    53   30   53 1
    54   31   54 1
    55   32   33 1
    56   32   34 1
    57   32   35 1
@<TRIPOS>MOLECULE
ZINC06457410
   49    52     0     0     0
SMALL
USER_CHARGES
N-[(R)-(5-chloro-8-hydroxy-7-quinolyl)-(2-chlorophenyl)methyl]-2-phenoxy-acetamide
@<TRIPOS>ATOM
      1 C1         -8.3273    5.3225   -5.4188 C.ar      1 <0>        -0.1568
      2 C2         -7.4700    4.5624   -6.1927 C.ar      1 <0>        -0.0789
      3 C3         -6.4404    3.8593   -5.5978 C.ar      1 <0>        -0.1471
      4 C4         -6.2671    3.9162   -4.2225 C.ar      1 <0>         0.1270
      5 C5         -7.1321    4.6750   -3.4475 C.ar      1 <0>        -0.2114
      6 C6         -8.1564    5.3812   -4.0480 C.ar      1 <0>        -0.0799
      7 O1         -5.2550    3.2254   -3.6349 O.3       1 <0>        -0.2887
      8 C7         -5.1367    3.3306   -2.2147 C.3       1 <0>         0.0427
      9 C8         -3.9675    2.5037   -1.7454 C.2       1 <0>         0.5223
     10 O2         -3.3010    1.8853   -2.5481 O.2       1 <0>        -0.5015
     11 N1         -3.6623    2.4515   -0.4337 N.am      1 <0>        -0.7156
     12 C9         -2.5257    1.6477    0.0225 C.3       1 <0>         0.2427
     13 H1         -2.4341    0.7598   -0.6031 H         1 <0>         0.1186
     14 C10        -1.2623    2.4633   -0.0750 C.ar      1 <0>        -0.0925
     15 C11        -1.3249    3.8434   -0.0268 C.ar      1 <0>        -0.0965
     16 C12        -0.1668    4.5918   -0.1215 C.ar      1 <0>        -0.1118
     17 C13         1.0556    3.9606   -0.2597 C.ar      1 <0>        -0.1020
     18 C14         1.1200    2.5808   -0.3031 C.ar      1 <0>        -0.1060
     19 C15        -0.0391    1.8310   -0.2079 C.ar      1 <0>        -0.0210
     20 Cl1         0.0410    0.0977   -0.2623 Cl        1 <0>        -0.0621
     21 C16        -2.7464    1.2326    1.4544 C.ar      1 <0>        -0.1141
     22 C17        -2.0568    1.8870    2.4717 C.ar      1 <0>        -0.0720
     23 C18        -2.2389    1.5397    3.7768 C.ar      1 <0>        -0.0253
     24 C19        -3.1249    0.4986    4.1033 C.ar      1 <0>        -0.0779
     25 C20        -3.3347    0.1071    5.4388 C.ar      1 <0>        -0.0593
     26 C21        -4.2108   -0.9123    5.6814 C.ar      1 <0>        -0.1579
     27 C22        -4.8668   -1.5323    4.6201 C.ar      1 <0>         0.1343
     28 N2         -4.6688   -1.1643    3.3776 N.ar      1 <0>        -0.4523
     29 C23        -3.8248   -0.1746    3.0723 C.ar      1 <0>         0.1120
     30 C24        -3.6154    0.2169    1.7335 C.ar      1 <0>         0.1760
     31 O3         -4.2753   -0.4132    0.7267 O.3       1 <0>        -0.4707
     32 Cl2        -1.3741    2.3738    5.0299 Cl        1 <0>        -0.0486
     33 H2         -9.1316    5.8715   -5.8858 H         1 <0>         0.1250
     34 H3         -7.6051    4.5187   -7.2634 H         1 <0>         0.1311
     35 H4         -5.7712    3.2654   -6.2027 H         1 <0>         0.1329
     36 H5         -7.0020    4.7173   -2.3763 H         1 <0>         0.1268
     37 H6         -8.8274    5.9756   -3.4456 H         1 <0>         0.1258
     38 H7         -6.0508    2.9661   -1.7460 H         1 <0>         0.0960
     39 H8         -4.9781    4.3732   -1.9395 H         1 <0>         0.0938
     40 H9         -4.1953    2.9461    0.2083 H         1 <0>         0.4045
     41 H10        -2.2795    4.3371    0.0808 H         1 <0>         0.1300
     42 H11        -0.2166    5.6702   -0.0880 H         1 <0>         0.1319
     43 H12         1.9602    4.5459   -0.3340 H         1 <0>         0.1349
     44 H13         2.0747    2.0879   -0.4118 H         1 <0>         0.1371
     45 H14        -1.3719    2.6842    2.2234 H         1 <0>         0.1461
     46 H15        -2.8172    0.5989    6.2492 H         1 <0>         0.1473
     47 H16        -4.3945   -1.2376    6.6947 H         1 <0>         0.1459
     48 H17        -5.5571   -2.3368    4.8266 H         1 <0>         0.1670
     49 H18        -3.7750   -1.1330    0.3185 H         1 <0>         0.3980
@<TRIPOS>BOND
     1    1    6 ar
     2    1    2 ar
     3    1   33 1
     4    2    3 ar
     5    2   34 1
     6    3    4 ar
     7    3   35 1
     8    4    5 ar
     9    4    7 1
    10    5    6 ar
    11    5   36 1
    12    6   37 1
    13    7    8 1
    14    8    9 1
    15    8   38 1
    16    8   39 1
    17    9   10 2
    18    9   11 am
    19   11   12 1
    20   11   40 1
    21   12   13 1
    22   12   14 1
    23   12   21 1
    24   14   19 ar
    25   14   15 ar
    26   15   16 ar
    27   15   41 1
    28   16   17 ar
    29   16   42 1
    30   17   18 ar
    31   17   43 1
    32   18   19 ar
    33   18   44 1
    34   19   20 1
    35   21   30 ar
    36   21   22 ar
    37   22   23 ar
    38   22   45 1
    39   23   24 ar
    40   23   32 1
    41   24   29 ar
    42   24   25 ar
    43   25   26 ar
    44   25   46 1
    45   26   27 ar
    46   26   47 1
    47   27   28 ar
    48   27   48 1
    49   28   29 ar
    50   29   30 ar
    51   30   31 1
    52   31   49 1
@<TRIPOS>MOLECULE
ZINC15821674
   49    52     0     0     0
SMALL
USER_CHARGES
N-[(S)-(5-chloro-8-hydroxy-7-quinolyl)-(2-chlorophenyl)methyl]-2-phenoxy-acetamide
@<TRIPOS>ATOM
      1 C1          7.4948    5.2675    5.8199 C.ar      1 <0>        -0.1563
      2 C2          6.3677    4.9161    6.5396 C.ar      1 <0>        -0.0786
      3 C3          5.1976    4.5946    5.8794 C.ar      1 <0>        -0.1466
      4 C4          5.1540    4.6245    4.4931 C.ar      1 <0>         0.1265
      5 C5          6.2878    4.9719    3.7731 C.ar      1 <0>        -0.2116
      6 C6          7.4538    5.2985    4.4382 C.ar      1 <0>        -0.0800
      7 O1          4.0041    4.3087    3.8413 O.3       1 <0>        -0.2885
      8 C7          4.0323    4.3609    2.4136 C.3       1 <0>         0.0427
      9 C8          2.6786    3.9822    1.8702 C.2       1 <0>         0.5182
     10 O2          1.7784    3.6959    2.6307 O.2       1 <0>        -0.4940
     11 N1          2.4685    3.9618    0.5391 N.am      1 <0>        -0.7236
     12 C9          1.1525    3.5937    0.0109 C.3       1 <0>         0.2379
     13 H1          0.3764    3.9517    0.6873 H         1 <0>         0.1279
     14 C10         1.0612    2.0943   -0.1099 C.ar      1 <0>        -0.0927
     15 C11         2.2088    1.3435   -0.2835 C.ar      1 <0>        -0.0973
     16 C12         2.1252   -0.0317   -0.3937 C.ar      1 <0>        -0.1132
     17 C13         0.8938   -0.6573   -0.3305 C.ar      1 <0>        -0.1019
     18 C14        -0.2541    0.0921   -0.1566 C.ar      1 <0>        -0.1067
     19 C15        -0.1711    1.4690   -0.0461 C.ar      1 <0>        -0.0211
     20 Cl1        -1.6134    2.4117    0.1653 Cl        1 <0>        -0.0566
     21 C16         0.9633    4.2194   -1.3470 C.ar      1 <0>        -0.1096
     22 C17         1.0894    3.4318   -2.4882 C.ar      1 <0>        -0.0728
     23 C18         0.9238    3.9673   -3.7303 C.ar      1 <0>        -0.0248
     24 C19         0.6215    5.3332   -3.8652 C.ar      1 <0>        -0.0782
     25 C20         0.4428    5.9223   -5.1308 C.ar      1 <0>        -0.0588
     26 C21         0.1505    7.2554   -5.1856 C.ar      1 <0>        -0.1581
     27 C22         0.0372    7.9911   -4.0079 C.ar      1 <0>         0.1350
     28 N2          0.2040    7.4384   -2.8309 N.ar      1 <0>        -0.4536
     29 C23         0.4920    6.1395   -2.7080 C.ar      1 <0>         0.1102
     30 C24         0.6653    5.5490   -1.4388 C.ar      1 <0>         0.1743
     31 O3          0.5408    6.3001   -0.3134 O.3       1 <0>        -0.4682
     32 Cl2         1.0850    2.9667   -5.1398 Cl        1 <0>        -0.0484
     33 H2          8.4086    5.5185    6.3379 H         1 <0>         0.1251
     34 H3          6.4021    4.8933    7.6188 H         1 <0>         0.1314
     35 H4          4.3176    4.3199    6.4420 H         1 <0>         0.1331
     36 H5          6.2577    4.9916    2.6937 H         1 <0>         0.1265
     37 H6          8.3355    5.5733    3.8783 H         1 <0>         0.1259
     38 H7          4.7820    3.6638    2.0393 H         1 <0>         0.0945
     39 H8          4.2832    5.3717    2.0918 H         1 <0>         0.0950
     40 H9          3.1885    4.1908   -0.0692 H         1 <0>         0.4029
     41 H10         3.1710    1.8316   -0.3326 H         1 <0>         0.1294
     42 H11         3.0221   -0.6178   -0.5297 H         1 <0>         0.1315
     43 H12         0.8291   -1.7319   -0.4168 H         1 <0>         0.1346
     44 H13        -1.2158   -0.3967   -0.1065 H         1 <0>         0.1370
     45 H14         1.3212    2.3818   -2.3876 H         1 <0>         0.1466
     46 H15         0.5347    5.3367   -6.0336 H         1 <0>         0.1474
     47 H16         0.0076    7.7387   -6.1408 H         1 <0>         0.1460
     48 H17        -0.1944    9.0443   -4.0661 H         1 <0>         0.1671
     49 H18         1.3667    6.7085   -0.0198 H         1 <0>         0.3947
@<TRIPOS>BOND
     1    1    6 ar
     2    1    2 ar
     3    1   33 1
     4    2    3 ar
     5    2   34 1
     6    3    4 ar
     7    3   35 1
     8    4    5 ar
     9    4    7 1
    10    5    6 ar
    11    5   36 1
    12    6   37 1
    13    7    8 1
    14    8    9 1
    15    8   38 1
    16    8   39 1
    17    9   10 2
    18    9   11 am
    19   11   12 1
    20   11   40 1
    21   12   13 1
    22   12   14 1
    23   12   21 1
    24   14   19 ar
    25   14   15 ar
    26   15   16 ar
    27   15   41 1
    28   16   17 ar
    29   16   42 1
    30   17   18 ar
    31   17   43 1
    32   18   19 ar
    33   18   44 1
    34   19   20 1
    35   21   30 ar
    36   21   22 ar
    37   22   23 ar
    38   22   45 1
    39   23   24 ar
    40   23   32 1
    41   24   29 ar
    42   24   25 ar
    43   25   26 ar
    44   25   46 1
    45   26   27 ar
    46   26   47 1
    47   27   28 ar
    48   27   48 1
    49   28   29 ar
    50   29   30 ar
    51   30   31 1
    52   31   49 1
@<TRIPOS>MOLECULE
ZINC02583785
   45    47     0     0     0
SMALL
USER_CHARGES

@<TRIPOS>ATOM
      1 C1         -0.0167    1.3781    0.0096 C.ar      1 <0>        -0.1302
      2 C2          1.1709    2.0855    0.0021 C.ar      1 <0>        -0.1149
      3 C3          2.3773    1.4107   -0.0130 C.ar      1 <0>        -0.1178
      4 C4          2.3960    0.0285   -0.0201 C.ar      1 <0>        -0.0638
      5 C5          1.2084   -0.6789   -0.0117 C.ar      1 <0>        -0.1166
      6 C6          0.0021   -0.0041    0.0020 C.ar      1 <0>        -0.1196
      7 C7          3.7112   -0.7071   -0.0376 C.3       1 <0>        -0.0761
      8 C8          4.1714   -0.9633    1.3989 C.3       1 <0>         0.0973
      9 H1          4.2087   -0.0191    1.9423 H         1 <0>         0.0753
     10 C9          5.5425   -1.5884    1.3832 C.2       1 <0>         0.4916
     11 O1          6.5353   -0.8810    1.4078 O.co2     1 <0>        -0.6920
     12 O2          5.6591   -2.8014    1.3460 O.co2     1 <0>        -0.6800
     13 N1          3.2289   -1.8699    2.0593 N.pl3     1 <0>        -1.0814
     14 S1          2.8971   -1.6886    3.6716 S.o2      1 <0>         2.6881
     15 O3          1.9415   -2.6862    4.0043 O.2       1 <0>        -0.9741
     16 O4          4.1495   -1.5821    4.3344 O.2       1 <0>        -0.9469
     17 C10         2.0907   -0.1341    3.8659 C.ar      1 <0>        -0.6672
     18 C11         2.8390    1.0065    4.0953 C.ar      1 <0>        -0.0130
     19 C12         2.2125    2.2267    4.2483 C.ar      1 <0>        -0.1313
     20 C13         0.8236    2.3084    4.1713 C.ar      1 <0>         0.0043
     21 C14         0.0748    1.1563    3.9400 C.ar      1 <0>        -0.1311
     22 C15         0.7121   -0.0578    3.7829 C.ar      1 <0>        -0.0101
     23 C16         0.1444    3.6175    4.3354 C.ar      1 <0>        -0.0494
     24 C17         0.8936    4.7704    4.5614 C.ar      1 <0>        -0.1047
     25 C18         0.2567    5.9855    4.7129 C.ar      1 <0>        -0.1191
     26 C19        -1.1226    6.0599    4.6412 C.ar      1 <0>        -0.1173
     27 C20        -1.8713    4.9185    4.4175 C.ar      1 <0>        -0.1203
     28 C21        -1.2444    3.6992    4.2584 C.ar      1 <0>        -0.1049
     29 H2         -0.9591    1.9053    0.0259 H         1 <0>         0.1121
     30 H3          1.1563    3.1654    0.0076 H         1 <0>         0.1133
     31 H4          3.3051    1.9634   -0.0196 H         1 <0>         0.1199
     32 H5          1.2231   -1.7588   -0.0176 H         1 <0>         0.1198
     33 H6         -0.9258   -0.5567    0.0082 H         1 <0>         0.1158
     34 H7          3.5884   -1.6586   -0.5549 H         1 <0>         0.0795
     35 H8          4.4573   -0.1052   -0.5563 H         1 <0>         0.0854
     36 H9          2.7992   -2.5763    1.5522 H         1 <0>         0.4134
     37 H10         3.9154    0.9419    4.1552 H         1 <0>         0.1434
     38 H11         2.7976    3.1165    4.4277 H         1 <0>         0.1317
     39 H12        -1.0020    1.2140    3.8798 H         1 <0>         0.1292
     40 H13         0.1330   -0.9507    3.5989 H         1 <0>         0.1376
     41 H14         1.9706    4.7133    4.6183 H         1 <0>         0.1279
     42 H15         0.8364    6.8797    4.8881 H         1 <0>         0.1245
     43 H16        -1.6170    7.0127    4.7607 H         1 <0>         0.1219
     44 H17        -2.9480    4.9822    4.3628 H         1 <0>         0.1237
     45 H18        -1.8296    2.8093    4.0794 H         1 <0>         0.1263
@<TRIPOS>BOND
     1    1    6 ar
     2    1    2 ar
     3    1   29 1
     4    2    3 ar
     5    2   30 1
     6    3    4 ar
     7    3   31 1
     8    4    5 ar
     9    4    7 1
    10    5    6 ar
    11    5   32 1
    12    6   33 1
    13    7    8 1
    14    7   34 1
    15    7   35 1
    16    8    9 1
    17    8   10 1
    18    8   13 1
    19   10   11 2
    20   10   12 1
    21   13   14 1
    22   13   36 1
    23   14   15 2
    24   14   16 2
    25   14   17 1
    26   17   22 ar
    27   17   18 ar
    28   18   19 ar
    29   18   37 1
    30   19   20 ar
    31   19   38 1
    32   20   21 ar
    33   20   23 1
    34   21   22 ar
    35   21   39 1
    36   22   40 1
    37   23   28 ar
    38   23   24 ar
    39   24   25 ar
    40   24   41 1
    41   25   26 ar
    42   25   42 1
    43   26   27 ar
    44   26   43 1
    45   27   28 ar
    46   27   44 1
    47   28   45 1
