@<TRIPOS>MOLECULE
ZINC18825334
   48    52     0     0     0
SMALL
USER_CHARGES
4-[[9-chloro-7-(2,6-difluorophenyl)-5H-pyrimido[5,4-d][2]benzazepin-2-yl]amino]benzoic acid
@<TRIPOS>ATOM
      1 C1          2.2776    0.3903   -0.5698 C.ar      1 <0>        -0.0509
      2 C2          1.1421    1.1799   -0.5633 C.ar      1 <0>        -0.1622
      3 C3         -0.1043    0.6031   -0.4066 C.ar      1 <0>         0.1578
      4 C4         -0.2153   -0.7818   -0.2549 C.ar      1 <0>        -0.1229
      5 C5          0.9369   -1.5728   -0.2630 C.ar      1 <0>         0.1499
      6 C6          2.1761   -0.9809   -0.4208 C.ar      1 <0>        -0.1633
      7 F1          0.8397   -2.9124   -0.1175 F         1 <0>        -0.1231
      8 C7         -1.5453   -1.4071   -0.0861 C.2       1 <0>         0.2536
      9 N1         -2.1650   -1.7678   -1.1512 N.2       1 <0>        -0.4634
     10 C8         -3.4819   -2.3942   -1.1195 C.3       1 <0>         0.0964
     11 C9         -4.4898   -1.4068   -0.6038 C.ar      1 <0>        -0.2574
     12 C10        -5.5098   -0.9746   -1.4374 C.ar      1 <0>         0.2162
     13 N2         -6.3794   -0.0861   -0.9844 N.ar      1 <0>        -0.5366
     14 C11        -6.2835    0.3896    0.2490 C.ar      1 <0>         0.5701
     15 N3         -5.3286   -0.0031    1.0745 N.ar      1 <0>        -0.5552
     16 C12        -4.4183   -0.9022    0.6848 C.ar      1 <0>         0.2552
     17 C13        -3.3769   -1.3202    1.6484 C.ar      1 <0>        -0.0142
     18 C14        -2.0497   -1.5581    1.2881 C.ar      1 <0>        -0.0587
     19 C15        -1.1358   -1.9616    2.2712 C.ar      1 <0>        -0.0846
     20 C16        -1.5377   -2.1181    3.5805 C.ar      1 <0>        -0.0213
     21 C17        -2.8549   -1.8776    3.9370 C.ar      1 <0>        -0.0981
     22 C18        -3.7670   -1.4826    2.9833 C.ar      1 <0>        -0.0636
     23 Cl1        -0.3917   -2.6181    4.7848 Cl        1 <0>        -0.0577
     24 N4         -7.2095    1.3241    0.6851 N.pl3     1 <0>        -0.6261
     25 C19        -8.1519    1.8366   -0.2021 C.ar      1 <0>         0.1418
     26 C20        -9.4292    2.1564    0.2498 C.ar      1 <0>        -0.1598
     27 C21       -10.3616    2.6678   -0.6235 C.ar      1 <0>        -0.0590
     28 C22       -10.0281    2.8564   -1.9684 C.ar      1 <0>        -0.1232
     29 C23        -8.7457    2.5290   -2.4200 C.ar      1 <0>        -0.0681
     30 C24        -7.8166    2.0227   -1.5403 C.ar      1 <0>        -0.1261
     31 C25       -11.0259    3.3995   -2.9077 C.2       1 <0>         0.4893
     32 O1        -10.7345    3.5633   -4.0760 O.co2     1 <0>        -0.6323
     33 F2         -1.2128    1.3755   -0.4056 F         1 <0>        -0.1209
     34 H1          3.2486    0.8468   -0.6927 H         1 <0>         0.1483
     35 H2          1.2295    2.2500   -0.6806 H         1 <0>         0.1486
     36 H3          3.0673   -1.5909   -0.4273 H         1 <0>         0.1485
     37 H4         -3.4574   -3.2644   -0.4636 H         1 <0>         0.0791
     38 H5         -3.7607   -2.7058   -2.1261 H         1 <0>         0.1121
     39 H6         -5.5938   -1.3585   -2.4434 H         1 <0>         0.1778
     40 H7         -0.1076   -2.1514    2.0006 H         1 <0>         0.1393
     41 H8         -3.1667   -1.9996    4.9638 H         1 <0>         0.1452
     42 H9         -4.7921   -1.2962    3.2678 H         1 <0>         0.1468
     43 H10        -7.2009    1.6210    1.6085 H         1 <0>         0.4210
     44 H11        -9.6873    2.0066    1.2877 H         1 <0>         0.1185
     45 H12       -11.3510    2.9199   -0.2713 H         1 <0>         0.1349
     46 H13        -8.4848    2.6738   -3.4580 H         1 <0>         0.1294
     47 H14        -6.8261    1.7696   -1.8885 H         1 <0>         0.1253
     48 O2        -12.2611    3.7145   -2.4709 O.co2     1 <0>        -0.7564
@<TRIPOS>BOND
     1    1    6 ar
     2    1    2 ar
     3    1   34 1
     4    2    3 ar
     5    2   35 1
     6    3    4 ar
     7    3   33 1
     8    4    5 ar
     9    4    8 1
    10    5    6 ar
    11    5    7 1
    12    6   36 1
    13    8   18 1
    14    8    9 2
    15    9   10 1
    16   10   11 1
    17   10   37 1
    18   10   38 1
    19   11   16 ar
    20   11   12 ar
    21   12   13 ar
    22   12   39 1
    23   13   14 ar
    24   14   15 ar
    25   14   24 1
    26   15   16 ar
    27   16   17 1
    28   17   22 ar
    29   17   18 ar
    30   18   19 ar
    31   19   20 ar
    32   19   40 1
    33   20   21 ar
    34   20   23 1
    35   21   22 ar
    36   21   41 1
    37   22   42 1
    38   24   25 1
    39   24   43 1
    40   25   30 ar
    41   25   26 ar
    42   26   27 ar
    43   26   44 1
    44   27   28 ar
    45   27   45 1
    46   28   29 ar
    47   28   31 1
    48   29   30 ar
    49   29   46 1
    50   30   47 1
    51   31   32 2
    52   31   48 1
