@<TRIPOS>MOLECULE
ZINC43170519
   72    76     0     0     0
SMALL
USER_CHARGES

@<TRIPOS>ATOM
      1 C1          0.2065    1.9793   -0.0342 C.3       1 <0>        -0.1665
      2 C2         -0.0710    0.4975    0.2268 C.3       1 <0>         0.1267
      3 N1          0.6656   -0.3156   -0.7441 N.pl3     1 <0>        -0.3596
      4 C3          1.5251   -1.3103   -0.4474 C.2       1 <0>         0.0834
      5 C4          1.9992   -1.8173   -1.6224 C.2       1 <0>        -0.2084
      6 C5          1.3909   -1.0872   -2.6763 C.2       1 <0>         0.1396
      7 N2          0.5906   -0.1944   -2.1367 N.2       1 <0>        -0.2737
      8 C6          1.6135   -1.2974   -4.1269 C.ar      1 <0>        -0.0306
      9 C7          1.6870   -2.5911   -4.6418 C.ar      1 <0>        -0.0653
     10 C8          1.8936   -2.7840   -5.9912 C.ar      1 <0>        -0.1479
     11 C9          2.0291   -1.6904   -6.8379 C.ar      1 <0>         0.1764
     12 C10         1.9568   -0.4000   -6.3271 C.ar      1 <0>        -0.1210
     13 C11         1.7441   -0.2018   -4.9794 C.ar      1 <0>        -0.0692
     14 N3          2.2392   -1.8888   -8.2064 N.am      1 <0>        -0.6868
     15 C12         1.7319   -1.0162   -9.0995 C.2       1 <0>         0.7025
     16 O1          1.0144   -0.1094   -8.7235 O.2       1 <0>        -0.5649
     17 N4          2.0199   -1.1486  -10.4095 N.am      1 <0>        -0.6331
     18 C13         1.4684   -0.2001  -11.3803 C.3       1 <0>         0.0998
     19 C14         2.8843   -2.2412  -10.8626 C.3       1 <0>         0.0747
     20 C15         2.9696   -2.9253   -1.7705 C.ar      1 <0>         0.1046
     21 C16         2.6505   -4.2210   -1.3636 C.ar      1 <0>        -0.1961
     22 C17         3.5843   -5.2284   -1.5193 C.ar      1 <0>         0.1572
     23 N5          4.7712   -4.9970   -2.0426 N.ar      1 <0>        -0.5068
     24 C18         5.1367   -3.7881   -2.4493 C.ar      1 <0>         0.3000
     25 C19         4.2446   -2.7061   -2.3328 C.ar      1 <0>        -0.1366
     26 C20         4.9036   -1.5649   -2.8480 C.2       1 <0>        -0.1235
     27 C21         6.1360   -1.9531   -3.2596 C.2       1 <0>         0.0868
     28 N6          6.2920   -3.3007   -3.0153 N.pl3     1 <0>        -0.5749
     29 H1          7.0840   -3.8226   -3.2186 H         1 <0>         0.4155
     30 C22         7.1551   -1.0687   -3.8637 C.ar      1 <0>        -0.0002
     31 C23         6.8859    0.2889   -4.0459 C.ar      1 <0>        -0.0681
     32 C24         7.8411    1.1086   -4.6101 C.ar      1 <0>        -0.1012
     33 C25         9.0640    0.5879   -4.9952 C.ar      1 <0>        -0.0993
     34 C26         9.3370   -0.7566   -4.8179 C.ar      1 <0>        -0.1519
     35 C27         8.3926   -1.5862   -4.2490 C.ar      1 <0>        -0.0991
     36 C28        10.6713   -1.3151   -5.2407 C.3       1 <0>         0.0432
     37 N7         11.6166   -1.2266   -4.1197 N.4       1 <0>        -0.3867
     38 C29        12.8795   -1.8784   -4.4916 C.3       1 <0>        -0.0479
     39 C30        11.8691    0.1853   -3.8024 C.3       1 <0>        -0.0538
     40 H2          1.2746    2.1722    0.0663 H         1 <0>         0.0600
     41 H3         -0.1160    2.2372   -1.0429 H         1 <0>         0.0725
     42 H4         -0.3415    2.5843    0.6882 H         1 <0>         0.0790
     43 H5          0.2515    0.2396    1.2356 H         1 <0>         0.1000
     44 H6         -1.1390    0.3046    0.1263 H         1 <0>         0.0906
     45 H7          1.7916   -1.6461    0.5439 H         1 <0>         0.1791
     46 H8          1.5824   -3.4413   -3.9841 H         1 <0>         0.1255
     47 H9          1.9505   -3.7859   -6.3905 H         1 <0>         0.1262
     48 H10         2.0628    0.4482   -6.9871 H         1 <0>         0.1382
     49 H11         1.6832    0.8012   -4.5836 H         1 <0>         0.1279
     50 H12         2.7500   -2.6545   -8.5128 H         1 <0>         0.4060
     51 H13         2.1557    0.6373  -11.5008 H         1 <0>         0.0561
     52 H14         1.3327   -0.6996  -12.3395 H         1 <0>         0.0734
     53 H15         0.5067    0.1678  -11.0228 H         1 <0>         0.0809
     54 H16         2.2747   -3.1143  -11.0953 H         1 <0>         0.0612
     55 H17         3.4271   -1.9289  -11.7548 H         1 <0>         0.0805
     56 H18         3.5944   -2.4933  -10.0750 H         1 <0>         0.0647
     57 H19         1.6842   -4.4347   -0.9313 H         1 <0>         0.1414
     58 H20         3.3348   -6.2306   -1.2035 H         1 <0>         0.1659
     59 H21         4.4984   -0.5653   -2.9034 H         1 <0>         0.1472
     60 H22         5.9318    0.6965   -3.7460 H         1 <0>         0.1417
     61 H23         7.6340    2.1590   -4.7519 H         1 <0>         0.1419
     62 H24         9.8085    1.2340   -5.4365 H         1 <0>         0.1335
     63 H25         8.6088   -2.6347   -4.1062 H         1 <0>         0.1259
     64 H26        10.5522   -2.3580   -5.5341 H         1 <0>         0.1362
     65 H27        11.0541   -0.7416   -6.0849 H         1 <0>         0.1377
     66 H28        13.3025   -1.3801   -5.3638 H         1 <0>         0.1231
     67 H29        13.5809   -1.8128   -3.6598 H         1 <0>         0.1252
     68 H30        12.6920   -2.9261   -4.7270 H         1 <0>         0.1234
     69 H31        10.9321    0.6689   -3.5265 H         1 <0>         0.1242
     70 H32        12.5705    0.2509   -2.9706 H         1 <0>         0.1244
     71 H33        12.2922    0.6837   -4.6746 H         1 <0>         0.1229
     72 H34        11.2250   -1.6880   -3.3123 H         1 <0>         0.4260
@<TRIPOS>BOND
     1    1    2 1
     2    1   40 1
     3    1   41 1
     4    1   42 1
     5    2    3 1
     6    2   43 1
     7    2   44 1
     8    3    7 1
     9    3    4 1
    10    4    5 2
    11    4   45 1
    12    5    6 1
    13    5   20 1
    14    6    7 2
    15    6    8 1
    16    8   13 ar
    17    8    9 ar
    18    9   10 ar
    19    9   46 1
    20   10   11 ar
    21   10   47 1
    22   11   12 ar
    23   11   14 1
    24   12   13 ar
    25   12   48 1
    26   13   49 1
    27   14   15 am
    28   14   50 1
    29   15   16 2
    30   15   17 am
    31   17   18 1
    32   17   19 1
    33   18   51 1
    34   18   52 1
    35   18   53 1
    36   19   54 1
    37   19   55 1
    38   19   56 1
    39   20   25 ar
    40   20   21 ar
    41   21   22 ar
    42   21   57 1
    43   22   23 ar
    44   22   58 1
    45   23   24 ar
    46   24   28 1
    47   24   25 ar
    48   25   26 1
    49   26   27 2
    50   26   59 1
    51   27   28 1
    52   27   30 1
    53   28   29 1
    54   30   35 ar
    55   30   31 ar
    56   31   32 ar
    57   31   60 1
    58   32   33 ar
    59   32   61 1
    60   33   34 ar
    61   33   62 1
    62   34   35 ar
    63   34   36 1
    64   35   63 1
    65   36   37 1
    66   36   64 1
    67   36   65 1
    68   37   38 1
    69   37   39 1
    70   37   72 1
    71   38   66 1
    72   38   67 1
    73   38   68 1
    74   39   69 1
    75   39   70 1
    76   39   71 1
@<TRIPOS>MOLECULE
ZINC58660958
   57    60     0     0     0
SMALL
USER_CHARGES

@<TRIPOS>ATOM
      1 C1          0.3721    1.3777   -0.3055 C.3       1 <0>        -0.1988
      2 C2          0.1634   -0.1084   -0.0071 C.3       1 <0>        -0.0200
      3 N1          0.9255   -0.4786    1.1929 N.4       1 <0>        -0.3758
      4 C3          0.1113   -0.2220    2.3885 C.3       1 <0>         0.0685
      5 C4         -0.1137    1.2609    2.5342 C.2       1 <0>         0.0656
      6 C5         -1.2571    1.8625    2.0543 C.2       1 <0>        -0.2833
      7 C6         -1.3356    3.2123    2.2516 C.2       1 <0>         0.0494
      8 S1          0.0999    3.5603    3.0483 S.3       1 <0>         0.4981
      9 N2          0.7669    2.0280    3.1266 N.2       1 <0>        -0.5011
     10 N3         -2.3559    4.0847    1.8824 N.pl3     1 <0>        -0.5737
     11 C7         -2.2517    5.4363    2.1737 C.2       1 <0>         0.4571
     12 C8         -3.2900    6.3273    1.8053 C.2       1 <0>         0.1343
     13 N4         -4.4479    6.1600    1.1891 N.2       1 <0>        -0.4484
     14 C9         -5.0665    7.3337    1.0833 C.2       1 <0>         0.0363
     15 C10        -4.2758    8.2924    1.6534 C.2       1 <0>         0.0797
     16 N5         -3.1536    7.6597    2.1100 N.pl3     1 <0>        -0.3300
     17 C11        -2.0229    8.0863    2.7582 C.2       1 <0>        -0.0245
     18 C12        -1.0629    7.1998    3.0878 C.2       1 <0>         0.1199
     19 N6         -1.1882    5.8999    2.8001 N.2       1 <0>        -0.5252
     20 C13         0.1747    7.6823    3.7995 C.3       1 <0>        -0.0983
     21 C14        -4.5771    9.7385    1.7559 C.2       1 <0>        -0.1867
     22 C15        -5.7040   10.3628    1.3017 C.2       1 <0>         0.1025
     23 N7         -5.5866   11.6761    1.5904 N.pl3     1 <0>        -0.4612
     24 H1         -6.2389   12.3640    1.3850 H         1 <0>         0.4502
     25 N8         -4.3612   11.8742    2.2379 N.2       1 <0>        -0.2752
     26 C16        -3.7561   10.7211    2.3456 C.2       1 <0>         0.0592
     27 C17         1.2712   -1.9051    1.1328 C.3       1 <0>         0.0542
     28 C18         2.0649   -2.2906    2.3827 C.3       1 <0>        -0.1727
     29 C19        -0.0105   -2.7380    1.0654 C.3       1 <0>        -0.1711
     30 C20         2.1191   -2.1723   -0.1124 C.3       1 <0>         0.0671
     31 O1          2.4554   -3.5599   -0.1709 O.3       1 <0>        -0.5516
     32 H2          1.4092    1.5481   -0.5946 H         1 <0>         0.0782
     33 H3         -0.2865    1.6808   -1.1195 H         1 <0>         0.1048
     34 H4          0.1423    1.9628    0.5849 H         1 <0>         0.0876
     35 H5         -0.8962   -0.2997    0.1620 H         1 <0>         0.1316
     36 H6          0.5090   -0.7011   -0.8542 H         1 <0>         0.1322
     37 H7         -0.8494   -0.7273    2.2891 H         1 <0>         0.1474
     38 H8          0.6307   -0.5990    3.2695 H         1 <0>         0.1497
     39 H9         -2.0370    1.3055    1.5563 H         1 <0>         0.1608
     40 H10        -3.1397    3.7469    1.4214 H         1 <0>         0.4425
     41 H11        -6.0298    7.5005    0.6244 H         1 <0>         0.1933
     42 H12        -1.9019    9.1310    3.0039 H         1 <0>         0.1754
     43 H13         0.0146    7.6388    4.8768 H         1 <0>         0.0884
     44 H14         1.0189    7.0469    3.5317 H         1 <0>         0.0868
     45 H15         0.3858    8.7103    3.5047 H         1 <0>         0.0852
     46 H16        -6.5373    9.8913    0.8020 H         1 <0>         0.1909
     47 H17        -2.7932   10.5508    2.8043 H         1 <0>         0.1818
     48 H18         1.4608   -2.1003    3.2698 H         1 <0>         0.0831
     49 H19         2.3214   -3.3491    2.3381 H         1 <0>         0.1139
     50 H20         2.9779   -1.6972    2.4307 H         1 <0>         0.0806
     51 H21        -0.5759   -2.4633    0.1749 H         1 <0>         0.0798
     52 H22         0.2460   -3.7964    1.0208 H         1 <0>         0.1124
     53 H23        -0.6146   -2.5476    1.9525 H         1 <0>         0.0819
     54 H24         1.5537   -1.8976   -1.0029 H         1 <0>         0.0698
     55 H25         3.0322   -1.5789   -0.0644 H         1 <0>         0.0683
     56 H26         2.9938   -3.8022   -0.9368 H         1 <0>         0.4046
     57 H27         1.7707    0.0707    1.2374 H         1 <0>         0.4245
@<TRIPOS>BOND
     1    1    2 1
     2    1   32 1
     3    1   33 1
     4    1   34 1
     5    2    3 1
     6    2   35 1
     7    2   36 1
     8    3    4 1
     9    3   27 1
    10    3   57 1
    11    4    5 1
    12    4   37 1
    13    4   38 1
    14    5    9 2
    15    5    6 1
    16    6    7 2
    17    6   39 1
    18    7    8 1
    19    7   10 1
    20    8    9 1
    21   10   11 1
    22   10   40 1
    23   11   19 2
    24   11   12 1
    25   12   16 1
    26   12   13 2
    27   13   14 1
    28   14   15 2
    29   14   41 1
    30   15   16 1
    31   15   21 1
    32   16   17 1
    33   17   18 2
    34   17   42 1
    35   18   19 1
    36   18   20 1
    37   20   43 1
    38   20   44 1
    39   20   45 1
    40   21   26 1
    41   21   22 2
    42   22   23 1
    43   22   46 1
    44   23   24 1
    45   23   25 1
    46   25   26 2
    47   26   47 1
    48   27   28 1
    49   27   29 1
    50   27   30 1
    51   28   48 1
    52   28   49 1
    53   28   50 1
    54   29   51 1
    55   29   52 1
    56   29   53 1
    57   30   31 1
    58   30   54 1
    59   30   55 1
    60   31   56 1
@<TRIPOS>MOLECULE
ZINC01493878
   48    50     0     0     0
SMALL
USER_CHARGES

@<TRIPOS>ATOM
      1 C1         -1.0955   -5.0083   -6.9234 C.3       1 <0>         0.0847
      2 N1         -1.5520   -4.3038   -5.7228 N.am      1 <0>        -0.7137
      3 C2         -1.8827   -5.0004   -4.6175 C.2       1 <0>         0.5696
      4 O1         -1.8023   -6.2129   -4.6168 O.2       1 <0>        -0.5284
      5 C3         -2.3445   -4.2878   -3.4031 C.ar      1 <0>         0.1129
      6 C4         -2.6788   -5.0128   -2.2640 C.ar      1 <0>        -0.1883
      7 C5         -3.1110   -4.3279   -1.1310 C.ar      1 <0>         0.1595
      8 C6         -3.1903   -2.9389   -1.1877 C.ar      1 <0>        -0.1766
      9 C7         -2.8404   -2.2885   -2.3571 C.ar      1 <0>         0.1349
     10 N2         -2.4302   -2.9626   -3.4105 N.ar      1 <0>        -0.4815
     11 O2         -3.4471   -4.9979    0.0005 O.3       1 <0>        -0.2437
     12 C8         -3.4462   -6.3570   -0.0383 C.ar      1 <0>         0.0568
     13 C9         -2.2447   -7.0505   -0.0178 C.ar      1 <0>        -0.1074
     14 C10        -2.2431   -8.4307   -0.0577 C.ar      1 <0>        -0.1009
     15 C11        -3.4442   -9.1246   -0.1179 C.ar      1 <0>         0.1671
     16 C12        -4.6464   -8.4301   -0.1379 C.ar      1 <0>        -0.1272
     17 C13        -4.6469   -7.0500   -0.0928 C.ar      1 <0>        -0.0940
     18 N3         -3.4432  -10.5252   -0.1588 N.am      1 <0>        -0.6776
     19 C14        -2.5108  -11.2187    0.5239 C.2       1 <0>         0.7077
     20 O3         -1.6217  -10.6297    1.1080 O.2       1 <0>        -0.5493
     21 N4         -2.5639  -12.5649    0.5593 N.am      1 <0>        -0.6795
     22 C15        -1.6655  -13.2800    1.3600 C.ar      1 <0>         0.1700
     23 C16        -1.2529  -12.7583    2.5792 C.ar      1 <0>        -0.0742
     24 C17        -0.3670  -13.4659    3.3674 C.ar      1 <0>        -0.0871
     25 C18         0.1097  -14.6941    2.9434 C.ar      1 <0>        -0.0077
     26 C19        -0.2993  -15.2159    1.7290 C.ar      1 <0>        -0.1564
     27 C20        -1.1898  -14.5147    0.9394 C.ar      1 <0>        -0.0879
     28 C21         0.2222  -16.5533    1.2702 C.3       1 <0>         0.5112
     29 F1         -0.3299  -16.8663    0.0234 F         1 <0>        -0.1743
     30 F2          1.6160  -16.4983    1.1626 F         1 <0>        -0.1671
     31 F3         -0.1354  -17.5367    2.1987 F         1 <0>        -0.1677
     32 Cl1         1.2234  -15.5812    3.9366 Cl        1 <0>        -0.0394
     33 H1         -0.8760   -4.2843   -7.7081 H         1 <0>         0.0803
     34 H2         -0.1948   -5.5764   -6.6909 H         1 <0>         0.0631
     35 H3         -1.8761   -5.6883   -7.2645 H         1 <0>         0.0629
     36 H4         -1.6162   -3.3359   -5.7233 H         1 <0>         0.4141
     37 H5         -2.6047   -6.0902   -2.2584 H         1 <0>         0.1546
     38 H6         -3.5217   -2.3755   -0.3280 H         1 <0>         0.1523
     39 H7         -2.9005   -1.2112   -2.4052 H         1 <0>         0.1747
     40 H8         -1.3104   -6.5106    0.0290 H         1 <0>         0.1364
     41 H9         -1.3078   -8.9704   -0.0424 H         1 <0>         0.1514
     42 H10        -5.5809   -8.9693   -0.1851 H         1 <0>         0.1386
     43 H11        -5.5820   -6.5098   -0.1039 H         1 <0>         0.1400
     44 H12        -4.1137  -10.9957   -0.6785 H         1 <0>         0.4131
     45 H13        -3.2246  -13.0383    0.0299 H         1 <0>         0.4146
     46 H14        -1.6244  -11.7997    2.9103 H         1 <0>         0.1546
     47 H15        -0.0456  -13.0604    4.3154 H         1 <0>         0.1524
     48 H16        -1.5123  -14.9245   -0.0064 H         1 <0>         0.1525
@<TRIPOS>BOND
     1    1    2 1
     2    1   33 1
     3    1   34 1
     4    1   35 1
     5    2    3 am
     6    2   36 1
     7    3    4 2
     8    3    5 1
     9    5   10 ar
    10    5    6 ar
    11    6    7 ar
    12    6   37 1
    13    7    8 ar
    14    7   11 1
    15    8    9 ar
    16    8   38 1
    17    9   10 ar
    18    9   39 1
    19   11   12 1
    20   12   17 ar
    21   12   13 ar
    22   13   14 ar
    23   13   40 1
    24   14   15 ar
    25   14   41 1
    26   15   16 ar
    27   15   18 1
    28   16   17 ar
    29   16   42 1
    30   17   43 1
    31   18   19 am
    32   18   44 1
    33   19   20 2
    34   19   21 am
    35   21   22 1
    36   21   45 1
    37   22   27 ar
    38   22   23 ar
    39   23   24 ar
    40   23   46 1
    41   24   25 ar
    42   24   47 1
    43   25   26 ar
    44   25   32 1
    45   26   27 ar
    46   26   28 1
    47   27   48 1
    48   28   29 1
    49   28   30 1
    50   28   31 1
@<TRIPOS>MOLECULE
ZINC21982951
   60    63     0     0     0
SMALL
USER_CHARGES

@<TRIPOS>ATOM
      1 C1         -2.0700    1.6928    0.2333 C.3       1 <0>        -0.1170
      2 C2         -1.6482    0.2604    0.0301 C.ar      1 <0>        -0.0813
      3 C3         -1.8479   -0.3525   -1.1919 C.ar      1 <0>        -0.1034
      4 C4         -1.4615   -1.6665   -1.3798 C.ar      1 <0>        -0.0990
      5 C5         -0.8738   -2.3725   -0.3459 C.ar      1 <0>        -0.1046
      6 C6         -0.6714   -1.7660    0.8791 C.ar      1 <0>        -0.0220
      7 C7         -1.0534   -0.4428    1.0688 C.ar      1 <0>         0.1347
      8 N1         -0.8441    0.1769    2.3055 N.am      1 <0>        -0.6659
      9 C8         -1.2819   -0.4110    3.4365 C.2       1 <0>         0.6018
     10 O1         -1.7689   -1.5261    3.3939 O.2       1 <0>        -0.4722
     11 C9         -1.1720    0.2905    4.7149 C.2       1 <0>        -0.2635
     12 C10        -1.5472   -0.1201    5.9866 C.2       1 <0>         0.1512
     13 N2         -1.3262    0.7270    6.9599 N.2       1 <0>        -0.5510
     14 C11        -0.7756    1.9070    6.7361 C.2       1 <0>         0.2513
     15 S1         -0.5107    1.9100    5.0742 S.3       1 <0>         0.2445
     16 N3         -0.4817    2.8997    7.6498 N.pl3     1 <0>        -0.5870
     17 C12        -0.6908    2.6801    9.0050 C.ar      1 <0>         0.4543
     18 C13        -1.0534    1.4192    9.4679 C.ar      1 <0>        -0.2926
     19 C14        -1.2512    1.2508   10.8352 C.ar      1 <0>         0.4935
     20 N4         -1.0875    2.2952   11.6453 N.ar      1 <0>        -0.5328
     21 C15        -0.7435    3.4737   11.1677 C.ar      1 <0>         0.4541
     22 N5         -0.5417    3.6719    9.8809 N.ar      1 <0>        -0.5672
     23 C16        -0.5694    4.6273   12.1217 C.3       1 <0>        -0.1251
     24 N6         -1.6138    0.0143   11.3464 N.pl3     1 <0>        -0.5370
     25 C17        -2.0559   -0.1253   12.7422 C.3       1 <0>         0.1090
     26 C18        -3.3866   -0.8852   12.7576 C.3       1 <0>         0.0383
     27 N7         -3.2335   -2.1493   12.0251 N.3       1 <0>        -0.5289
     28 C19        -2.9165   -1.9105   10.6107 C.3       1 <0>         0.0343
     29 C20        -1.5725   -1.1917   10.5056 C.3       1 <0>         0.1057
     30 C21        -4.4334   -2.9856   12.1619 C.3       1 <0>         0.0545
     31 C22        -4.1483   -4.3816   11.6043 C.3       1 <0>         0.0776
     32 O2         -3.1500   -5.0191   12.4038 O.3       1 <0>        -0.5606
     33 Cl1         0.0658   -2.6526    2.1768 Cl        1 <0>        -0.0453
     34 H1         -1.2464    2.3553   -0.0328 H         1 <0>         0.0773
     35 H2         -2.9308    1.9112   -0.3987 H         1 <0>         0.0785
     36 H3         -2.3379    1.8478    1.2784 H         1 <0>         0.0640
     37 H4         -2.3069    0.1956   -2.0014 H         1 <0>         0.1372
     38 H5         -1.6193   -2.1430   -2.3361 H         1 <0>         0.1391
     39 H6         -0.5731   -3.3989   -0.4959 H         1 <0>         0.1403
     40 H7         -0.3838    1.0296    2.3489 H         1 <0>         0.4083
     41 H8         -1.9972   -1.0858    6.1634 H         1 <0>         0.2027
     42 H9         -0.1293    3.7505    7.3451 H         1 <0>         0.4460
     43 H10        -1.1784    0.5927    8.7841 H         1 <0>         0.2218
     44 H11         0.4644    4.6619   12.4652 H         1 <0>         0.1245
     45 H12        -0.8146    5.5596   11.6130 H         1 <0>         0.1071
     46 H13        -1.2322    4.4948   12.9768 H         1 <0>         0.1273
     47 H14        -1.3096   -0.6823   13.3087 H         1 <0>         0.0989
     48 H15        -2.1929    0.8619   13.1834 H         1 <0>         0.1094
     49 H16        -3.6740   -1.0944   13.7880 H         1 <0>         0.1036
     50 H17        -4.1569   -0.2794   12.2806 H         1 <0>         0.0428
     51 H18        -2.8631   -2.8634   10.0841 H         1 <0>         0.1043
     52 H19        -3.6935   -1.2904   10.1636 H         1 <0>         0.0450
     53 H20        -1.3900   -0.9091    9.4688 H         1 <0>         0.1029
     54 H21        -0.7788   -1.8532   10.8529 H         1 <0>         0.1042
     55 H22        -4.7041   -3.0633   13.2149 H         1 <0>         0.0912
     56 H23        -5.2561   -2.5340   11.6075 H         1 <0>         0.0533
     57 H24        -5.0627   -4.9745   11.6240 H         1 <0>         0.0547
     58 H25        -3.7921   -4.2970   10.5776 H         1 <0>         0.0454
     59 H26        -2.9188   -5.9101   12.1076 H         1 <0>         0.3805
     60 H27        -0.2852    4.5531    9.5669 H         1 <0>         0.4414
@<TRIPOS>BOND
     1    1    2 1
     2    1   34 1
     3    1   35 1
     4    1   36 1
     5    2    7 ar
     6    2    3 ar
     7    3    4 ar
     8    3   37 1
     9    4    5 ar
    10    4   38 1
    11    5    6 ar
    12    5   39 1
    13    6    7 ar
    14    6   33 1
    15    7    8 1
    16    8    9 am
    17    8   40 1
    18    9   10 2
    19    9   11 1
    20   11   15 1
    21   11   12 2
    22   12   13 1
    23   12   41 1
    24   13   14 2
    25   14   15 1
    26   14   16 1
    27   16   17 1
    28   16   42 1
    29   17   22 ar
    30   17   18 ar
    31   18   19 ar
    32   18   43 1
    33   19   20 ar
    34   19   24 1
    35   20   21 ar
    36   21   22 ar
    37   21   23 1
    38   22   60 1
    39   23   44 1
    40   23   45 1
    41   23   46 1
    42   24   29 1
    43   24   25 1
    44   25   26 1
    45   25   47 1
    46   25   48 1
    47   26   27 1
    48   26   49 1
    49   26   50 1
    50   27   28 1
    51   27   30 1
    52   28   29 1
    53   28   51 1
    54   28   52 1
    55   29   53 1
    56   29   54 1
    57   30   31 1
    58   30   55 1
    59   30   56 1
    60   31   32 1
    61   31   57 1
    62   31   58 1
    63   32   59 1
@<TRIPOS>MOLECULE
ZINC21982951
   60    63     0     0     0
SMALL
USER_CHARGES

@<TRIPOS>ATOM
      1 C1          3.2739    6.6585    1.8418 C.3       1 <0>        -0.1168
      2 C2          2.5810    7.9910    1.9663 C.ar      1 <0>        -0.0823
      3 C3          2.8983    9.0189    1.0995 C.ar      1 <0>        -0.1038
      4 C4          2.2635   10.2419    1.2126 C.ar      1 <0>        -0.1008
      5 C5          1.3088   10.4411    2.1933 C.ar      1 <0>        -0.1049
      6 C6          0.9869    9.4175    3.0639 C.ar      1 <0>        -0.0226
      7 C7          1.6192    8.1849    2.9486 C.ar      1 <0>         0.1373
      8 N1          1.2913    7.1440    3.8238 N.am      1 <0>        -0.6678
      9 C8          1.3128    7.3511    5.1554 C.2       1 <0>         0.6036
     10 O1          1.5184    8.4680    5.5945 O.2       1 <0>        -0.4759
     11 C9          1.0891    6.2346    6.0728 C.2       1 <0>        -0.2694
     12 C10         1.0619    6.2190    7.4604 C.2       1 <0>         0.1522
     13 N2          0.8357    5.0596    8.0247 N.2       1 <0>        -0.5060
     14 C11         0.6446    3.9678    7.3056 C.2       1 <0>         0.2464
     15 S1          0.7674    4.5141    5.7185 S.3       1 <0>         0.2029
     16 N3          0.3973    2.6842    7.7505 N.pl3     1 <0>        -0.5650
     17 C12         0.2197    2.4414    9.1063 C.ar      1 <0>         0.4999
     18 C13        -0.1342    1.1736    9.5555 C.ar      1 <0>        -0.3181
     19 C14        -0.3003    0.9817   10.9244 C.ar      1 <0>         0.4940
     20 N4         -0.1157    2.0114   11.7481 N.ar      1 <0>        -0.5712
     21 C15         0.2193    3.1978   11.2829 C.ar      1 <0>         0.4509
     22 N5          0.3911    3.4178    9.9956 N.ar      1 <0>        -0.4879
     23 C16         0.4179    4.3344   12.2523 C.3       1 <0>        -0.1253
     24 N6         -0.6531   -0.2629   11.4224 N.pl3     1 <0>        -0.5744
     25 C17        -0.9639   -0.4449   12.8484 C.3       1 <0>         0.1013
     26 C18        -2.3114   -1.1652   12.9649 C.3       1 <0>         0.0387
     27 N7         -2.2712   -2.4031   12.1749 N.3       1 <0>        -0.5277
     28 C19        -2.0835   -2.1176   10.7462 C.3       1 <0>         0.0305
     29 C20        -0.7325   -1.4351   10.5377 C.3       1 <0>         0.1149
     30 C21        -3.4796   -3.2085   12.3965 C.3       1 <0>         0.0543
     31 C22        -3.2958   -4.5889   11.7629 C.3       1 <0>         0.0774
     32 O2         -2.2472   -5.2869   12.4378 O.3       1 <0>        -0.5615
     33 Cl1        -0.2110    9.6681    4.2952 Cl        1 <0>        -0.0453
     34 H1          2.7121    6.0191    1.1609 H         1 <0>         0.0767
     35 H2          4.2810    6.8077    1.4524 H         1 <0>         0.0779
     36 H3          3.3298    6.1850    2.8220 H         1 <0>         0.0648
     37 H4          3.6435    8.8670    0.3327 H         1 <0>         0.1365
     38 H5          2.5139   11.0437    0.5337 H         1 <0>         0.1383
     39 H6          0.8148   11.3976    2.2790 H         1 <0>         0.1396
     40 H7          1.0484    6.2731    3.4723 H         1 <0>         0.4083
     41 H8          1.2191    7.1147    8.0430 H         1 <0>         0.1979
     42 H9          0.3477    1.9521    7.1161 H         1 <0>         0.4525
     43 H10        -0.2767    0.3593    8.8606 H         1 <0>         0.1835
     44 H11         1.4596    4.3615   12.5720 H         1 <0>         0.1250
     45 H12         0.1626    5.2758   11.7656 H         1 <0>         0.1301
     46 H13        -0.2249    4.1881   13.1203 H         1 <0>         0.1049
     47 H14        -0.1857   -1.0458   13.3190 H         1 <0>         0.1119
     48 H15        -1.0251    0.5276   13.3369 H         1 <0>         0.0843
     49 H16        -2.5057   -1.4068   14.0099 H         1 <0>         0.1076
     50 H17        -3.1034   -0.5184   12.5874 H         1 <0>         0.0465
     51 H18        -2.1124   -3.0499   10.1822 H         1 <0>         0.1076
     52 H19        -2.8786   -1.4576   10.3996 H         1 <0>         0.0467
     53 H20        -0.6409   -1.1170    9.4992 H         1 <0>         0.1034
     54 H21         0.0684   -2.1330   10.7819 H         1 <0>         0.1075
     55 H22        -3.6507   -3.3200   13.4672 H         1 <0>         0.0925
     56 H23        -4.3362   -2.7111   11.9416 H         1 <0>         0.0553
     57 H24        -4.2233   -5.1548   11.8494 H         1 <0>         0.0565
     58 H25        -3.0370   -4.4741   10.7103 H         1 <0>         0.0456
     59 H26        -2.0752   -6.1719   12.0881 H         1 <0>         0.3821
     60 H27        -0.2297    1.8867   12.7033 H         1 <0>         0.4392
@<TRIPOS>BOND
     1    1    2 1
     2    1   34 1
     3    1   35 1
     4    1   36 1
     5    2    7 ar
     6    2    3 ar
     7    3    4 ar
     8    3   37 1
     9    4    5 ar
    10    4   38 1
    11    5    6 ar
    12    5   39 1
    13    6    7 ar
    14    6   33 1
    15    7    8 1
    16    8    9 am
    17    8   40 1
    18    9   10 2
    19    9   11 1
    20   11   15 1
    21   11   12 2
    22   12   13 1
    23   12   41 1
    24   13   14 2
    25   14   15 1
    26   14   16 1
    27   16   17 1
    28   16   42 1
    29   17   18 ar
    30   17   22 ar
    31   18   43 1
    32   18   19 ar
    33   19   24 1
    34   19   20 ar
    35   20   60 1
    36   20   21 ar
    37   21   23 1
    38   21   22 ar
    39   23   44 1
    40   23   45 1
    41   23   46 1
    42   24   29 1
    43   24   25 1
    44   25   26 1
    45   25   47 1
    46   25   48 1
    47   26   27 1
    48   26   49 1
    49   26   50 1
    50   27   28 1
    51   27   30 1
    52   28   29 1
    53   28   51 1
    54   28   52 1
    55   29   53 1
    56   29   54 1
    57   30   31 1
    58   30   55 1
    59   30   56 1
    60   31   32 1
    61   31   57 1
    62   31   58 1
    63   32   59 1
@<TRIPOS>MOLECULE
ZINC21982951
   59    62     0     0     0
SMALL
USER_CHARGES

@<TRIPOS>ATOM
      1 C1          3.4106    6.6420    1.8847 C.3       1 <0>        -0.1165
      2 C2          2.6976    7.9659    1.9845 C.ar      1 <0>        -0.0852
      3 C3          3.0204    8.9921    1.1176 C.ar      1 <0>        -0.1055
      4 C4          2.3672   10.2073    1.2080 C.ar      1 <0>        -0.1070
      5 C5          1.3885   10.4004    2.1660 C.ar      1 <0>        -0.1064
      6 C6          1.0609    9.3785    3.0365 C.ar      1 <0>        -0.0243
      7 C7          1.7118    8.1536    2.9438 C.ar      1 <0>         0.1460
      8 N1          1.3783    7.1144    3.8189 N.am      1 <0>        -0.6734
      9 C8          1.3676    7.3308    5.1492 C.2       1 <0>         0.6131
     10 O1          1.5489    8.4533    5.5848 O.2       1 <0>        -0.4899
     11 C9          1.1384    6.2176    6.0693 C.2       1 <0>        -0.3092
     12 C10         1.0807    6.2111    7.4561 C.2       1 <0>         0.1722
     13 N2          0.8573    5.0526    8.0233 N.2       1 <0>        -0.5180
     14 C11         0.6966    3.9535    7.3079 C.2       1 <0>         0.3121
     15 S1          0.8472    4.4907    5.7202 S.3       1 <0>         0.1340
     16 N3          0.4564    2.6698    7.7563 N.pl3     1 <0>        -0.5904
     17 C12         0.2490    2.4343    9.1091 C.ar      1 <0>         0.4412
     18 C13        -0.1036    1.1661    9.5586 C.ar      1 <0>        -0.3412
     19 C14        -0.3003    0.9817   10.9244 C.ar      1 <0>         0.4686
     20 N4         -0.1450    2.0186   11.7452 N.ar      1 <0>        -0.5923
     21 C15         0.1898    3.2050   11.2799 C.ar      1 <0>         0.3946
     22 N5          0.3901    3.4182    9.9956 N.ar      1 <0>        -0.5459
     23 C16         0.3546    4.3498   12.2460 C.3       1 <0>        -0.0834
     24 N6         -0.6531   -0.2629   11.4224 N.pl3     1 <0>        -0.5966
     25 C17        -1.0693   -0.4249   12.8237 C.3       1 <0>         0.1300
     26 C18        -2.3993   -1.1856   12.8517 C.3       1 <0>         0.0401
     27 N7         -2.2595   -2.4378   12.0965 N.3       1 <0>        -0.5276
     28 C19        -1.9688   -2.1765   10.6804 C.3       1 <0>         0.0363
     29 C20        -0.6270   -1.4554   10.5619 C.3       1 <0>         0.1269
     30 C21        -3.4565   -3.2768   12.2420 C.3       1 <0>         0.0537
     31 C22        -3.1814   -4.6636   11.6572 C.3       1 <0>         0.0792
     32 O2         -2.1684   -5.3132   12.4279 O.3       1 <0>        -0.5589
     33 Cl1        -0.1672    9.6214    4.2392 Cl        1 <0>        -0.0433
     34 H1          2.8725    5.9906    1.1961 H         1 <0>         0.0754
     35 H2          4.4240    6.8020    1.5166 H         1 <0>         0.0754
     36 H3          3.4510    6.1760    2.8692 H         1 <0>         0.0676
     37 H4          3.7844    8.8450    0.3685 H         1 <0>         0.1337
     38 H5          2.6220   11.0077    0.5292 H         1 <0>         0.1350
     39 H6          0.8801   11.3508    2.2339 H         1 <0>         0.1371
     40 H7          1.1547    6.2381    3.4683 H         1 <0>         0.4085
     41 H8          1.2132    7.1127    8.0357 H         1 <0>         0.1884
     42 H9          0.4325    1.9325    7.1264 H         1 <0>         0.4387
     43 H10        -0.2220    0.3459    8.8660 H         1 <0>         0.1413
     44 H11         1.3882    4.3890   12.5900 H         1 <0>         0.0870
     45 H12         0.1021    5.2855   11.7470 H         1 <0>         0.0890
     46 H13        -0.3072    4.2031   13.0995 H         1 <0>         0.0846
     47 H14        -0.3126   -0.9904   13.3674 H         1 <0>         0.0744
     48 H15        -1.1984    0.5551   13.2831 H         1 <0>         0.1008
     49 H16        -2.6676   -1.4113   13.8837 H         1 <0>         0.0903
     50 H17        -3.1785   -0.5727   12.3986 H         1 <0>         0.0372
     51 H18        -1.9249   -3.1208   10.1378 H         1 <0>         0.0905
     52 H19        -2.7540   -1.5497   10.2576 H         1 <0>         0.0380
     53 H20        -0.4638   -1.1563    9.5265 H         1 <0>         0.0877
     54 H21         0.1731   -2.1219   10.8840 H         1 <0>         0.0802
     55 H22        -3.7077   -3.3713   13.2985 H         1 <0>         0.0861
     56 H23        -4.2894   -2.8169   11.7102 H         1 <0>         0.0487
     57 H24        -4.0952   -5.2572   11.6843 H         1 <0>         0.0498
     58 H25        -2.8443   -4.5626   10.6256 H         1 <0>         0.0451
     59 H26        -1.9426   -6.1994   12.1134 H         1 <0>         0.3762
@<TRIPOS>BOND
     1    1    2 1
     2    1   34 1
     3    1   35 1
     4    1   36 1
     5    2    7 ar
     6    2    3 ar
     7    3    4 ar
     8    3   37 1
     9    4    5 ar
    10    4   38 1
    11    5    6 ar
    12    5   39 1
    13    6    7 ar
    14    6   33 1
    15    7    8 1
    16    8    9 am
    17    8   40 1
    18    9   10 2
    19    9   11 1
    20   11   15 1
    21   11   12 2
    22   12   13 1
    23   12   41 1
    24   13   14 2
    25   14   15 1
    26   14   16 1
    27   16   17 1
    28   16   42 1
    29   17   18 ar
    30   17   22 ar
    31   18   43 1
    32   18   19 ar
    33   19   24 1
    34   19   20 ar
    35   20   21 ar
    36   21   23 1
    37   21   22 ar
    38   23   44 1
    39   23   45 1
    40   23   46 1
    41   24   29 1
    42   24   25 1
    43   25   26 1
    44   25   47 1
    45   25   48 1
    46   26   27 1
    47   26   49 1
    48   26   50 1
    49   27   28 1
    50   27   30 1
    51   28   29 1
    52   28   51 1
    53   28   52 1
    54   29   53 1
    55   29   54 1
    56   30   31 1
    57   30   55 1
    58   30   56 1
    59   31   32 1
    60   31   57 1
    61   31   58 1
    62   32   59 1
@<TRIPOS>MOLECULE
ZINC21982951
   61    64     0     0     0
SMALL
USER_CHARGES

@<TRIPOS>ATOM
      1 C1          3.2770    6.6581    1.8427 C.3       1 <0>        -0.1166
      2 C2          2.5837    7.9904    1.9667 C.ar      1 <0>        -0.0814
      3 C3          2.9012    9.0183    1.0999 C.ar      1 <0>        -0.1028
      4 C4          2.2660   10.2411    1.2125 C.ar      1 <0>        -0.0975
      5 C5          1.3108   10.4402    2.1928 C.ar      1 <0>        -0.1039
      6 C6          0.9888    9.4167    3.0634 C.ar      1 <0>        -0.0218
      7 C7          1.6215    8.1842    2.9485 C.ar      1 <0>         0.1327
      8 N1          1.2933    7.1433    3.8237 N.am      1 <0>        -0.6648
      9 C8          1.3141    7.3507    5.1552 C.2       1 <0>         0.5983
     10 O1          1.5193    8.4677    5.5943 O.2       1 <0>        -0.4690
     11 C9          1.0903    6.2342    6.0727 C.2       1 <0>        -0.2500
     12 C10         1.0624    6.2188    7.4604 C.2       1 <0>         0.1439
     13 N2          0.8362    5.0594    8.0246 N.2       1 <0>        -0.4984
     14 C11         0.6458    3.9675    7.3056 C.2       1 <0>         0.2172
     15 S1          0.7692    4.5136    5.7185 S.3       1 <0>         0.2242
     16 N3          0.3986    2.6839    7.7506 N.pl3     1 <0>        -0.5513
     17 C12         0.2203    2.4413    9.1063 C.ar      1 <0>         0.5098
     18 C13        -0.1335    1.1734    9.5556 C.ar      1 <0>        -0.3097
     19 C14        -0.3003    0.9817   10.9244 C.ar      1 <0>         0.4927
     20 N4         -0.1163    2.0116   11.7481 N.ar      1 <0>        -0.5695
     21 C15         0.2187    3.1980   11.2828 C.ar      1 <0>         0.4589
     22 N5          0.3911    3.4178    9.9956 N.ar      1 <0>        -0.4762
     23 C16         0.4165    4.3348   12.2521 C.3       1 <0>        -0.1303
     24 N6         -0.6531   -0.2629   11.4224 N.pl3     1 <0>        -0.6123
     25 C17        -0.9643   -0.4465   12.8484 C.3       1 <0>         0.0782
     26 C18        -2.3027   -1.1838   12.9625 C.3       1 <0>        -0.0204
     27 N7         -2.2406   -2.4311   12.1903 N.4       1 <0>        -0.3852
     28 C19        -2.0770   -2.1279   10.7629 C.3       1 <0>        -0.0304
     29 C20        -0.7330   -1.4363   10.5388 C.3       1 <0>         0.0932
     30 C21        -3.4827   -3.1900   12.3886 C.3       1 <0>        -0.0061
     31 C22        -3.3702   -4.5448   11.6865 C.3       1 <0>         0.0434
     32 O2         -2.3479   -5.3224   12.3128 O.3       1 <0>        -0.5819
     33 Cl1        -0.2098    9.6671    4.2940 Cl        1 <0>        -0.0466
     34 H1          2.7157    6.0184    1.1617 H         1 <0>         0.0770
     35 H2          4.2843    6.8074    1.4538 H         1 <0>         0.0791
     36 H3          3.3325    6.1847    2.8230 H         1 <0>         0.0631
     37 H4          3.6468    8.8665    0.3335 H         1 <0>         0.1380
     38 H5          2.5166   11.0428    0.5336 H         1 <0>         0.1401
     39 H6          0.8165   11.3966    2.2780 H         1 <0>         0.1410
     40 H7          1.0508    6.2723    3.4722 H         1 <0>         0.4077
     41 H8          1.2191    7.1146    8.0429 H         1 <0>         0.2016
     42 H9          0.3494    1.9517    7.1163 H         1 <0>         0.4545
     43 H10        -0.2756    0.3590    8.8607 H         1 <0>         0.1860
     44 H11         1.4581    4.3621   12.5724 H         1 <0>         0.1309
     45 H12         0.1613    5.2760   11.7653 H         1 <0>         0.1358
     46 H13        -0.2267    4.1885   13.1199 H         1 <0>         0.1083
     47 H14        -0.1795   -1.0367   13.3215 H         1 <0>         0.1249
     48 H15        -1.0392    0.5259   13.3352 H         1 <0>         0.1232
     49 H16        -2.5028   -1.4138   14.0090 H         1 <0>         0.1602
     50 H17        -3.0999   -0.5526   12.5701 H         1 <0>         0.1410
     51 H18        -2.1110   -3.0537   10.1885 H         1 <0>         0.1585
     52 H19        -2.8811   -1.4682   10.4370 H         1 <0>         0.1418
     53 H20        -0.6550   -1.1179    9.4992 H         1 <0>         0.1416
     54 H21         0.0756   -2.1281   10.7747 H         1 <0>         0.1211
     55 H22        -3.6469   -3.3459   13.4548 H         1 <0>         0.1465
     56 H23        -4.3202   -2.6321   11.9697 H         1 <0>         0.1464
     57 H24        -4.3221   -5.0710   11.7578 H         1 <0>         0.1026
     58 H25        -3.1180   -4.3904   10.6374 H         1 <0>         0.0719
     59 H26        -2.2211   -6.1961   11.9183 H         1 <0>         0.4154
     60 H27        -0.2308    1.8869   12.7032 H         1 <0>         0.4393
     61 H28        -1.4578   -2.9831   12.5075 H         1 <0>         0.4359
@<TRIPOS>BOND
     1    1    2 1
     2    1   34 1
     3    1   35 1
     4    1   36 1
     5    2    7 ar
     6    2    3 ar
     7    3    4 ar
     8    3   37 1
     9    4    5 ar
    10    4   38 1
    11    5    6 ar
    12    5   39 1
    13    6    7 ar
    14    6   33 1
    15    7    8 1
    16    8    9 am
    17    8   40 1
    18    9   10 2
    19    9   11 1
    20   11   15 1
    21   11   12 2
    22   12   13 1
    23   12   41 1
    24   13   14 2
    25   14   15 1
    26   14   16 1
    27   16   17 1
    28   16   42 1
    29   17   18 ar
    30   17   22 ar
    31   18   43 1
    32   18   19 ar
    33   19   24 1
    34   19   20 ar
    35   20   60 1
    36   20   21 ar
    37   21   23 1
    38   21   22 ar
    39   23   44 1
    40   23   45 1
    41   23   46 1
    42   24   29 1
    43   24   25 1
    44   25   26 1
    45   25   47 1
    46   25   48 1
    47   26   27 1
    48   26   49 1
    49   26   50 1
    50   27   28 1
    51   27   30 1
    52   27   61 1
    53   28   29 1
    54   28   51 1
    55   28   52 1
    56   29   53 1
    57   29   54 1
    58   30   31 1
    59   30   55 1
    60   30   56 1
    61   31   32 1
    62   31   57 1
    63   31   58 1
    64   32   59 1
@<TRIPOS>MOLECULE
ZINC03814434
   62    69     0     0     0
SMALL
USER_CHARGES

@<TRIPOS>ATOM
      1 C1         -0.1295    1.5952   -0.2973 C.3       1 <0>        -0.1687
      2 C2         -0.0862    0.0696   -0.1900 C.3       1 <0>         0.3342
      3 C3          0.5692   -0.4501   -1.4637 C.3       1 <0>         0.0405
      4 H1          1.4796    0.1159   -1.6612 H         1 <0>         0.1372
      5 C4          0.9167   -1.9328   -1.2889 C.3       1 <0>        -0.0061
      6 H2          1.3963   -2.3075   -2.1932 H         1 <0>         0.1555
      7 C5          1.8785   -2.0596   -0.1021 C.3       1 <0>        -0.1827
      8 C6          1.2061   -1.5198    1.1541 C.3       1 <0>         0.2999
      9 H3          1.9797   -1.4243    1.9161 H         1 <0>         0.1550
     10 O1          0.6555   -0.2442    0.9666 O.3       1 <0>        -0.3234
     11 N1          0.2189   -2.4746    1.6600 N.pl3     1 <0>        -0.5366
     12 C7          0.4705   -3.5508    2.4739 C.ar      1 <0>         0.1469
     13 C8          1.6649   -4.0152    3.0240 C.ar      1 <0>        -0.1522
     14 C9          1.5948   -5.1456    3.8201 C.ar      1 <0>        -0.0582
     15 C10         0.4006   -5.7997    4.0696 C.ar      1 <0>        -0.1457
     16 C11        -0.7984   -5.3597    3.5358 C.ar      1 <0>        -0.0280
     17 C12        -0.7487   -4.2198    2.7307 C.ar      1 <0>        -0.1131
     18 C13        -1.7893   -3.4830    2.0197 C.ar      1 <0>         0.0276
     19 C14        -1.1442   -2.4197    1.3841 C.ar      1 <0>         0.0376
     20 C15        -1.8806   -1.5095    0.6175 C.ar      1 <0>         0.0894
     21 N2         -1.4718   -0.3951   -0.1095 N.pl3     1 <0>        -0.5183
     22 C16        -2.5611    0.1913   -0.7090 C.ar      1 <0>         0.1618
     23 C17        -2.6521    1.3277   -1.5118 C.ar      1 <0>        -0.1305
     24 C18        -3.9109    1.6745   -1.9733 C.ar      1 <0>        -0.0737
     25 C19        -5.0393    0.9368   -1.6616 C.ar      1 <0>        -0.1358
     26 C20        -4.9745   -0.1955   -0.8662 C.ar      1 <0>        -0.0503
     27 C21        -3.7147   -0.5596   -0.3919 C.ar      1 <0>        -0.1042
     28 C22        -3.2693   -1.6660    0.4845 C.ar      1 <0>        -0.0360
     29 C23        -3.9084   -2.7313    1.1102 C.ar      1 <0>        -0.0288
     30 C24        -3.1873   -3.6421    1.8754 C.ar      1 <0>        -0.1255
     31 C25        -4.1221   -4.6480    2.4030 C.2       1 <0>         0.5632
     32 O2         -3.8062   -5.5851    3.1110 O.2       1 <0>        -0.5106
     33 N3         -5.3744   -4.3851    1.9926 N.am      1 <0>        -0.7162
     34 C26        -5.3495   -3.1771    1.1601 C.3       1 <0>         0.1358
     35 N4         -0.3067   -2.7008   -1.0216 N.4       1 <0>        -0.5252
     36 C27         0.0145   -4.1336   -0.9773 C.3       1 <0>        -0.0497
     37 O3         -0.3340   -0.2979   -2.5607 O.3       1 <0>        -0.3614
     38 C28         0.3101   -0.0933   -3.8198 C.3       1 <0>         0.0162
     39 H4          0.8261    2.0094    0.0240 H         1 <0>         0.0984
     40 H5         -0.3202    1.8814   -1.3317 H         1 <0>         0.1036
     41 H6         -0.9255    1.9818    0.3392 H         1 <0>         0.0921
     42 H7          2.1370   -3.1081    0.0458 H         1 <0>         0.1233
     43 H8          2.7835   -1.4869   -0.3048 H         1 <0>         0.1455
     44 H9          2.6036   -3.5149    2.8368 H         1 <0>         0.1365
     45 H10         2.5026   -5.5304    4.2610 H         1 <0>         0.1359
     46 H11         0.4045   -6.6780    4.6980 H         1 <0>         0.1352
     47 H12        -1.7278   -5.8736    3.7323 H         1 <0>         0.1600
     48 H13        -1.7792    1.9122   -1.7624 H         1 <0>         0.1440
     49 H14        -4.0153    2.5500   -2.5970 H         1 <0>         0.1336
     50 H15        -5.9967    1.2527   -2.0488 H         1 <0>         0.1332
     51 H16        -5.8575   -0.7687   -0.6249 H         1 <0>         0.1415
     52 H17        -6.1628   -4.9065    2.2103 H         1 <0>         0.4348
     53 H18        -5.9671   -2.3994    1.6094 H         1 <0>         0.1115
     54 H19        -5.7060   -3.4063    0.1559 H         1 <0>         0.1103
     55 H20        -0.6958   -2.4158   -0.1353 H         1 <0>         0.4186
     56 H21         0.4349   -4.4415   -1.9347 H         1 <0>         0.1256
     57 H22         0.7403   -4.3189   -0.1854 H         1 <0>         0.1191
     58 H23        -0.8932   -4.7035   -0.7789 H         1 <0>         0.1256
     59 H24         0.9168    0.8112   -3.7748 H         1 <0>         0.0633
     60 H25         0.9482   -0.9479   -4.0446 H         1 <0>         0.0514
     61 H26        -0.4433    0.0130   -4.6003 H         1 <0>         0.1100
     62 H27        -0.9785   -2.5293   -1.7546 H         1 <0>         0.4274
@<TRIPOS>BOND
     1    1    2 1
     2    1   39 1
     3    1   40 1
     4    1   41 1
     5    2   10 1
     6    2   21 1
     7    2    3 1
     8    3    4 1
     9    3    5 1
    10    3   37 1
    11    5    6 1
    12    5    7 1
    13    5   35 1
    14    7    8 1
    15    7   42 1
    16    7   43 1
    17    8    9 1
    18    8   10 1
    19    8   11 1
    20   11   19 1
    21   11   12 1
    22   12   17 ar
    23   12   13 ar
    24   13   14 ar
    25   13   44 1
    26   14   15 ar
    27   14   45 1
    28   15   16 ar
    29   15   46 1
    30   16   17 ar
    31   16   47 1
    32   17   18 1
    33   18   30 ar
    34   18   19 ar
    35   19   20 ar
    36   20   28 ar
    37   20   21 1
    38   21   22 1
    39   22   27 ar
    40   22   23 ar
    41   23   24 ar
    42   23   48 1
    43   24   25 ar
    44   24   49 1
    45   25   26 ar
    46   25   50 1
    47   26   27 ar
    48   26   51 1
    49   27   28 1
    50   28   29 ar
    51   29   34 1
    52   29   30 ar
    53   30   31 1
    54   31   32 2
    55   31   33 am
    56   33   34 1
    57   33   52 1
    58   34   53 1
    59   34   54 1
    60   35   36 1
    61   35   55 1
    62   35   62 1
    63   36   56 1
    64   36   57 1
    65   36   58 1
    66   37   38 1
    67   38   59 1
    68   38   60 1
    69   38   61 1
@<TRIPOS>MOLECULE
ZINC68203217
   69    73     0     0     0
SMALL
USER_CHARGES

@<TRIPOS>ATOM
      1 C1         -0.1628    1.3084   -0.2207 C.3       1 <0>        -0.1696
      2 C2         -0.1088   -0.2035    0.0075 C.3       1 <0>         0.1443
      3 H1          0.3296   -0.6892   -0.8643 H         1 <0>         0.0945
      4 C3         -1.5258   -0.7394    0.2355 C.3       1 <0>        -0.1287
      5 C4         -2.0843   -0.1563    1.5355 C.3       1 <0>        -0.1149
      6 C5         -1.2075   -0.5938    2.7110 C.3       1 <0>        -0.1220
      7 H2         -1.1811   -1.6824    2.7597 H         1 <0>         0.1011
      8 C6          0.2130   -0.0563    2.5111 C.3       1 <0>         0.1413
      9 N1          0.7063   -0.4937    1.1949 N.pl3     1 <0>        -0.5857
     10 C7          1.9116   -1.1672    1.0766 C.ar      1 <0>         0.4905
     11 C8          2.4755   -1.3910   -0.1789 C.ar      1 <0>        -0.3165
     12 C9          3.6884   -2.0726   -0.2479 C.ar      1 <0>         0.2466
     13 N2          4.2649   -2.4851    0.8819 N.ar      1 <0>        -0.5956
     14 C10         3.6986   -2.2537    2.0552 C.ar      1 <0>         0.6133
     15 N3          2.5485   -1.6039    2.1591 N.ar      1 <0>        -0.6138
     16 N4          4.3272   -2.6979    3.2055 N.pl3     1 <0>        -0.6996
     17 C11         5.6022   -3.4135    3.1137 C.3       1 <0>         0.1064
     18 C12         4.3291   -2.3362   -1.5585 C.ar      1 <0>         0.0874
     19 C13         3.7024   -1.8855   -2.7352 C.ar      1 <0>        -0.1331
     20 C14         4.2476   -2.1010   -3.9568 C.ar      1 <0>         0.0022
     21 C15         5.4708   -2.7913   -4.0674 C.ar      1 <0>        -0.2331
     22 C16         6.1370   -3.2681   -2.8453 C.ar      1 <0>         0.2310
     23 C17         5.5290   -3.0126   -1.5995 C.ar      1 <0>        -0.1179
     24 N5          7.2483   -3.8737   -3.2258 N.pl3     1 <0>        -0.4232
     25 H3          8.0726   -4.1953   -5.1424 H         1 <0>         0.4692
     26 N6          7.3460   -3.8202   -4.6205 N.pl3     1 <0>        -0.4346
     27 C18         6.2845   -3.1732   -5.1303 C.2       1 <0>         0.5274
     28 N7          6.0427   -2.9300   -6.4737 N.pl3     1 <0>        -0.7843
     29 C19        -1.7771   -0.0466    3.9944 C.2       1 <0>         0.5221
     30 O1         -1.1127    0.6978    4.6839 O.2       1 <0>        -0.5333
     31 N8         -3.0248   -0.3843    4.3760 N.am      1 <0>        -0.7251
     32 C20        -3.5785    0.1477    5.6236 C.3       1 <0>         0.1446
     33 C21        -3.1396   -0.7351    6.7937 C.3       1 <0>        -0.1282
     34 C22        -3.7179   -0.1794    8.0967 C.3       1 <0>        -0.1182
     35 C23        -5.2455   -0.1670    8.0122 C.3       1 <0>        -0.1233
     36 C24        -5.6844    0.7157    6.8422 C.3       1 <0>        -0.1170
     37 C25        -5.1062    0.1601    5.5392 C.3       1 <0>        -0.1259
     38 H4          0.8466    1.6884   -0.3776 H         1 <0>         0.0621
     39 H5         -0.7721    1.5218   -1.0989 H         1 <0>         0.0739
     40 H6         -0.6015    1.7921    0.6521 H         1 <0>         0.0662
     41 H7         -2.1639   -0.4467   -0.5983 H         1 <0>         0.0866
     42 H8         -1.4963   -1.8266    0.3075 H         1 <0>         0.0719
     43 H9         -2.0904    0.9319    1.4723 H         1 <0>         0.0768
     44 H10        -3.1017   -0.5167    1.6875 H         1 <0>         0.0739
     45 H11         0.2008    1.0329    2.5527 H         1 <0>         0.0784
     46 H12         0.8648   -0.4466    3.2927 H         1 <0>         0.1050
     47 H13         1.9838   -1.0446   -1.0759 H         1 <0>         0.1457
     48 H14         3.9236   -2.5353    4.0724 H         1 <0>         0.4187
     49 H15         5.9411   -3.6820    4.1144 H         1 <0>         0.0785
     50 H16         5.4693   -4.3181    2.5203 H         1 <0>         0.0585
     51 H17         6.3450   -2.7730    2.6383 H         1 <0>         0.0588
     52 H18         2.7642   -1.3555   -2.6629 H         1 <0>         0.1525
     53 H19         3.7454   -1.7446   -4.8440 H         1 <0>         0.1517
     54 H20         5.9975   -3.3471   -0.6857 H         1 <0>         0.1668
     55 H21         5.2431   -2.4519   -6.7438 H         1 <0>         0.4458
     56 H22         6.6732   -3.2379   -7.1434 H         1 <0>         0.4282
     57 H23        -3.5562   -0.9797    3.8245 H         1 <0>         0.3992
     58 H24        -3.2149    1.1635    5.7785 H         1 <0>         0.0891
     59 H25        -3.5032   -1.7509    6.6388 H         1 <0>         0.0628
     60 H26        -2.0513   -0.7439    6.8538 H         1 <0>         0.0663
     61 H27        -3.4052   -0.8083    8.9302 H         1 <0>         0.0660
     62 H28        -3.3543    0.8364    8.2515 H         1 <0>         0.0650
     63 H29        -5.6091   -1.1829    7.8574 H         1 <0>         0.0628
     64 H30        -5.6575    0.2288    8.9405 H         1 <0>         0.0659
     65 H31        -6.7727    0.7245    6.7820 H         1 <0>         0.0689
     66 H32        -5.3208    1.7315    6.9970 H         1 <0>         0.0659
     67 H33        -5.4189    0.7889    4.7056 H         1 <0>         0.0685
     68 H34        -5.4697   -0.8558    5.3843 H         1 <0>         0.0678
     69 H35         7.8936   -4.2890   -2.6326 H         1 <0>         0.4736
@<TRIPOS>BOND
     1    1    2 1
     2    1   38 1
     3    1   39 1
     4    1   40 1
     5    2    3 1
     6    2    9 1
     7    2    4 1
     8    4    5 1
     9    4   41 1
    10    4   42 1
    11    5    6 1
    12    5   43 1
    13    5   44 1
    14    6    7 1
    15    6    8 1
    16    6   29 1
    17    8    9 1
    18    8   45 1
    19    8   46 1
    20    9   10 1
    21   10   15 ar
    22   10   11 ar
    23   11   12 ar
    24   11   47 1
    25   12   13 ar
    26   12   18 1
    27   13   14 ar
    28   14   15 ar
    29   14   16 1
    30   16   17 1
    31   16   48 1
    32   17   49 1
    33   17   50 1
    34   17   51 1
    35   18   23 ar
    36   18   19 ar
    37   19   20 ar
    38   19   52 1
    39   20   21 ar
    40   20   53 1
    41   21   22 ar
    42   21   27 2
    43   22   23 ar
    44   22   24 2
    45   23   54 1
    46   24   26 1
    47   24   69 1
    48   25   26 1
    49   26   27 1
    50   27   28 1
    51   28   55 1
    52   28   56 1
    53   29   30 2
    54   29   31 am
    55   31   32 1
    56   31   57 1
    57   32   37 1
    58   32   33 1
    59   32   58 1
    60   33   34 1
    61   33   59 1
    62   33   60 1
    63   34   35 1
    64   34   61 1
    65   34   62 1
    66   35   36 1
    67   35   63 1
    68   35   64 1
    69   36   37 1
    70   36   65 1
    71   36   66 1
    72   37   67 1
    73   37   68 1
@<TRIPOS>MOLECULE
ZINC68203217
   68    72     0     0     0
SMALL
USER_CHARGES

@<TRIPOS>ATOM
      1 C1         -0.1628    1.3084   -0.2207 C.3       1 <0>        -0.1674
      2 C2         -0.1088   -0.2035    0.0075 C.3       1 <0>         0.1454
      3 H1          0.3296   -0.6892   -0.8643 H         1 <0>         0.0967
      4 C3         -1.5258   -0.7394    0.2355 C.3       1 <0>        -0.1282
      5 C4         -2.0843   -0.1563    1.5355 C.3       1 <0>        -0.1121
      6 C5         -1.2075   -0.5938    2.7110 C.3       1 <0>        -0.1224
      7 H2         -1.1811   -1.6824    2.7597 H         1 <0>         0.1007
      8 C6          0.2130   -0.0563    2.5111 C.3       1 <0>         0.1452
      9 N1          0.7063   -0.4937    1.1949 N.pl3     1 <0>        -0.5930
     10 C7          1.9116   -1.1672    1.0766 C.ar      1 <0>         0.4840
     11 C8          2.4755   -1.3910   -0.1789 C.ar      1 <0>        -0.3324
     12 C9          3.6884   -2.0726   -0.2479 C.ar      1 <0>         0.2823
     13 N2          4.2649   -2.4851    0.8819 N.ar      1 <0>        -0.5957
     14 C10         3.6986   -2.2537    2.0552 C.ar      1 <0>         0.6062
     15 N3          2.5485   -1.6039    2.1591 N.ar      1 <0>        -0.6270
     16 N4          4.3272   -2.6979    3.2055 N.pl3     1 <0>        -0.7050
     17 C11         5.6022   -3.4135    3.1137 C.3       1 <0>         0.1083
     18 C12         4.3291   -2.3362   -1.5585 C.ar      1 <0>        -0.0032
     19 C13         3.7024   -1.8855   -2.7352 C.ar      1 <0>        -0.1572
     20 C14         4.2476   -2.1010   -3.9568 C.ar      1 <0>        -0.0236
     21 C15         5.4708   -2.7913   -4.0674 C.ar      1 <0>        -0.2598
     22 C16         6.1370   -3.2681   -2.8453 C.ar      1 <0>         0.1316
     23 C17         5.5290   -3.0126   -1.5995 C.ar      1 <0>        -0.0600
     24 N5          7.2483   -3.8737   -3.2258 N.2       1 <0>        -0.3135
     25 N6          7.3460   -3.8202   -4.6205 N.pl3     1 <0>        -0.4606
     26 C18         6.2845   -3.1732   -5.1303 C.2       1 <0>         0.3953
     27 N7          6.0427   -2.9300   -6.4737 N.pl3     1 <0>        -0.8409
     28 C19        -1.7771   -0.0466    3.9944 C.2       1 <0>         0.5234
     29 O1         -1.1127    0.6978    4.6839 O.2       1 <0>        -0.5336
     30 N8         -3.0248   -0.3843    4.3760 N.am      1 <0>        -0.7272
     31 C20        -3.5785    0.1477    5.6236 C.3       1 <0>         0.1450
     32 C21        -3.1396   -0.7351    6.7937 C.3       1 <0>        -0.1291
     33 C22        -3.7179   -0.1794    8.0967 C.3       1 <0>        -0.1178
     34 C23        -5.2455   -0.1670    8.0122 C.3       1 <0>        -0.1226
     35 C24        -5.6844    0.7157    6.8422 C.3       1 <0>        -0.1164
     36 C25        -5.1062    0.1601    5.5392 C.3       1 <0>        -0.1260
     37 H3          0.8466    1.6884   -0.3776 H         1 <0>         0.0624
     38 H4         -0.7721    1.5218   -1.0989 H         1 <0>         0.0703
     39 H5         -0.6015    1.7921    0.6521 H         1 <0>         0.0625
     40 H6         -2.1639   -0.4467   -0.5983 H         1 <0>         0.0834
     41 H7         -1.4963   -1.8266    0.3075 H         1 <0>         0.0712
     42 H8         -2.0904    0.9319    1.4723 H         1 <0>         0.0748
     43 H9         -3.1017   -0.5167    1.6875 H         1 <0>         0.0701
     44 H10         0.2008    1.0329    2.5527 H         1 <0>         0.0726
     45 H11         0.8648   -0.4466    3.2927 H         1 <0>         0.1030
     46 H12         1.9838   -1.0446   -1.0759 H         1 <0>         0.1414
     47 H13         3.9236   -2.5353    4.0724 H         1 <0>         0.4132
     48 H14         5.4693   -4.3181    2.5203 H         1 <0>         0.0589
     49 H15         6.3450   -2.7730    2.6383 H         1 <0>         0.0591
     50 H16         5.9411   -3.6820    4.1144 H         1 <0>         0.0728
     51 H17         2.7642   -1.3555   -2.6629 H         1 <0>         0.1243
     52 H18         3.7454   -1.7446   -4.8440 H         1 <0>         0.1194
     53 H19         5.9975   -3.3471   -0.6857 H         1 <0>         0.1423
     54 H20         5.2431   -2.4519   -6.7438 H         1 <0>         0.4211
     55 H21         6.6732   -3.2379   -7.1434 H         1 <0>         0.4057
     56 H22        -3.5562   -0.9797    3.8245 H         1 <0>         0.3990
     57 H23        -3.2149    1.1635    5.7785 H         1 <0>         0.0882
     58 H24        -3.5032   -1.7509    6.6388 H         1 <0>         0.0627
     59 H25        -2.0513   -0.7439    6.8538 H         1 <0>         0.0673
     60 H26        -3.4052   -0.8083    8.9302 H         1 <0>         0.0652
     61 H27        -3.3543    0.8364    8.2515 H         1 <0>         0.0646
     62 H28        -5.6091   -1.1829    7.8574 H         1 <0>         0.0625
     63 H29        -5.6575    0.2288    8.9405 H         1 <0>         0.0644
     64 H30        -6.7727    0.7245    6.7820 H         1 <0>         0.0675
     65 H31        -5.3208    1.7315    6.9970 H         1 <0>         0.0654
     66 H32        -5.4189    0.7889    4.7056 H         1 <0>         0.0683
     67 H33        -5.4697   -0.8558    5.3843 H         1 <0>         0.0675
     68 H34         8.0731   -4.1944   -5.1423 H         1 <0>         0.4393
@<TRIPOS>BOND
     1    1    2 1
     2    1   37 1
     3    1   38 1
     4    1   39 1
     5    2    3 1
     6    2    9 1
     7    2    4 1
     8    4    5 1
     9    4   40 1
    10    4   41 1
    11    5    6 1
    12    5   42 1
    13    5   43 1
    14    6    7 1
    15    6    8 1
    16    6   28 1
    17    8    9 1
    18    8   44 1
    19    8   45 1
    20    9   10 1
    21   10   15 ar
    22   10   11 ar
    23   11   12 ar
    24   11   46 1
    25   12   13 ar
    26   12   18 1
    27   13   14 ar
    28   14   15 ar
    29   14   16 1
    30   16   17 1
    31   16   47 1
    32   17   48 1
    33   17   49 1
    34   17   50 1
    35   18   23 ar
    36   18   19 ar
    37   19   20 ar
    38   19   51 1
    39   20   21 ar
    40   20   52 1
    41   21   22 ar
    42   21   26 2
    43   22   23 ar
    44   22   24 2
    45   23   53 1
    46   24   25 1
    47   25   26 1
    48   25   68 1
    49   26   27 1
    50   27   54 1
    51   27   55 1
    52   28   29 2
    53   28   30 am
    54   30   31 1
    55   30   56 1
    56   31   36 1
    57   31   32 1
    58   31   57 1
    59   32   33 1
    60   32   58 1
    61   32   59 1
    62   33   34 1
    63   33   60 1
    64   33   61 1
    65   34   35 1
    66   34   62 1
    67   34   63 1
    68   35   36 1
    69   35   64 1
    70   35   65 1
    71   36   66 1
    72   36   67 1
@<TRIPOS>MOLECULE
ZINC71295347
   54    55     0     0     0
SMALL
USER_CHARGES

@<TRIPOS>ATOM
      1 C1          0.0148    1.5031    0.0101 C.3       1 <0>        -0.1266
      2 C2          0.0185   -0.0039    0.0019 C.ar      1 <0>         0.0879
      3 C3          0.0221   -0.7031   -1.1870 C.ar      1 <0>        -0.2800
      4 C4          0.0255   -2.0965   -1.1625 C.ar      1 <0>         0.4773
      5 N1          0.0252   -2.7599   -0.0150 N.ar      1 <0>        -0.5765
      6 C5          0.0218   -2.1331    1.1502 C.ar      1 <0>         0.4975
      7 C6          0.0242   -0.7280    1.2029 C.ar      1 <0>        -0.2076
      8 C7          0.0267   -0.0473    2.4628 C.1       1 <0>         0.2671
      9 N2          0.0286    0.4927    3.4622 N.1       1 <0>        -0.4332
     10 N3          0.0217   -2.8650    2.3245 N.pl3     1 <0>        -0.7022
     11 C8          0.0253   -4.3291    2.2750 C.3       1 <0>         0.1452
     12 H1         -0.5619   -4.6653    1.4205 H         1 <0>         0.0976
     13 C9          1.4638   -4.8311    2.1345 C.3       1 <0>        -0.1681
     14 C10        -0.5851   -4.8844    3.5634 C.3       1 <0>        -0.1309
     15 C11        -2.0601   -4.4857    3.6421 C.3       1 <0>        -0.1173
     16 C12        -2.6705   -5.0410    4.9305 C.3       1 <0>        -0.1448
     17 C13        -4.1455   -4.6423    5.0092 C.3       1 <0>         0.1248
     18 C14        -4.8933   -5.2139    3.8030 C.3       1 <0>        -0.1420
     19 C15        -4.7559   -5.1976    6.2976 C.3       1 <0>        -0.1801
     20 O1         -4.2546   -3.2175    5.0060 O.3       1 <0>        -0.5583
     21 N4          0.0286   -2.7997   -2.3569 N.pl3     1 <0>        -0.6143
     22 C16         0.1533   -4.1945   -2.3480 C.2       1 <0>         0.3113
     23 C17         0.1830   -5.0128   -1.2071 C.2       1 <0>        -0.2720
     24 C18         0.3131   -6.2943   -1.6190 C.2       1 <0>         0.0884
     25 N5          0.3642   -6.2926   -2.9677 N.pl3     1 <0>        -0.4707
     26 H2          0.4555   -7.0738   -3.5354 H         1 <0>         0.4386
     27 N6          0.2570   -4.9661   -3.4045 N.2       1 <0>        -0.3301
     28 C19         0.3885   -7.5087   -0.7298 C.3       1 <0>        -0.0946
     29 H3          1.0416    1.8690    0.0088 H         1 <0>         0.0872
     30 H4         -0.5028    1.8700   -0.8762 H         1 <0>         0.0832
     31 H5         -0.4970    1.8603    0.9037 H         1 <0>         0.0723
     32 H6          0.0220   -0.1752   -2.1292 H         1 <0>         0.1427
     33 H7          0.0192   -2.4086    3.1804 H         1 <0>         0.4096
     34 H8          1.4665   -5.9205    2.0977 H         1 <0>         0.0662
     35 H9          1.8986   -4.4355    1.2166 H         1 <0>         0.0664
     36 H10         2.0510   -4.4950    2.9890 H         1 <0>         0.0558
     37 H11        -0.5018   -5.9712    3.5659 H         1 <0>         0.0808
     38 H12        -0.0523   -4.4773    4.4228 H         1 <0>         0.0663
     39 H13        -2.1433   -3.3989    3.6397 H         1 <0>         0.0694
     40 H14        -2.5929   -4.8929    2.7828 H         1 <0>         0.0678
     41 H15        -2.5872   -6.1279    4.9330 H         1 <0>         0.0715
     42 H16        -2.1377   -4.6339    5.7899 H         1 <0>         0.0633
     43 H17        -4.8101   -6.3007    3.8055 H         1 <0>         0.0687
     44 H18        -5.9442   -4.9298    3.8591 H         1 <0>         0.0607
     45 H19        -4.4585   -4.8183    2.8851 H         1 <0>         0.0659
     46 H20        -4.2231   -4.7905    7.1570 H         1 <0>         0.0572
     47 H21        -5.8067   -4.9136    6.3537 H         1 <0>         0.0636
     48 H22        -4.6726   -6.2845    6.3001 H         1 <0>         0.0653
     49 H23        -3.8028   -2.7868    5.7445 H         1 <0>         0.3742
     50 H24        -0.0555   -2.3257   -3.1990 H         1 <0>         0.4273
     51 H25         0.1142   -4.6781   -0.1826 H         1 <0>         0.1894
     52 H26        -0.6162   -7.8930   -0.5537 H         1 <0>         0.0813
     53 H27         0.9916   -8.2767   -1.2141 H         1 <0>         0.0712
     54 H28         0.8446   -7.2347    0.2215 H         1 <0>         0.0864
@<TRIPOS>BOND
     1    1    2 1
     2    1   29 1
     3    1   30 1
     4    1   31 1
     5    2    7 ar
     6    2    3 ar
     7    3    4 ar
     8    3   32 1
     9    4    5 ar
    10    4   21 1
    11    5    6 ar
    12    6    7 ar
    13    6   10 1
    14    7    8 1
    15    8    9 3
    16   10   11 1
    17   10   33 1
    18   11   12 1
    19   11   13 1
    20   11   14 1
    21   13   34 1
    22   13   35 1
    23   13   36 1
    24   14   15 1
    25   14   37 1
    26   14   38 1
    27   15   16 1
    28   15   39 1
    29   15   40 1
    30   16   17 1
    31   16   41 1
    32   16   42 1
    33   17   18 1
    34   17   19 1
    35   17   20 1
    36   18   43 1
    37   18   44 1
    38   18   45 1
    39   19   46 1
    40   19   47 1
    41   19   48 1
    42   20   49 1
    43   21   22 1
    44   21   50 1
    45   22   27 2
    46   22   23 1
    47   23   24 2
    48   23   51 1
    49   24   25 1
    50   24   28 1
    51   25   26 1
    52   25   27 1
    53   28   52 1
    54   28   53 1
    55   28   54 1
@<TRIPOS>MOLECULE
ZINC71295348
   54    55     0     0     0
SMALL
USER_CHARGES

@<TRIPOS>ATOM
      1 C1         -0.3671    1.4684    0.0397 C.3       1 <0>        -0.1266
      2 C2         -0.1037   -0.0151    0.0115 C.ar      1 <0>         0.0878
      3 C3         -0.1614   -0.7197   -1.1728 C.ar      1 <0>        -0.2799
      4 C4          0.0869   -2.0910   -1.1671 C.ar      1 <0>         0.4773
      5 N1          0.3775   -2.7284   -0.0418 N.ar      1 <0>        -0.5759
      6 C5          0.4443   -2.0954    1.1180 C.ar      1 <0>         0.4975
      7 C6          0.2114   -0.7105    1.1880 C.ar      1 <0>        -0.2087
      8 C7          0.2890   -0.0221    2.4413 C.1       1 <0>         0.2670
      9 N2          0.3506    0.5240    3.4355 N.1       1 <0>        -0.4336
     10 N3          0.7510   -2.7997    2.2689 N.pl3     1 <0>        -0.7028
     11 C8          1.0005   -4.2417    2.2005 C.3       1 <0>         0.1454
     12 H1          1.5031   -4.4794    1.2630 H         1 <0>         0.0988
     13 C9         -0.3302   -4.9935    2.2707 C.3       1 <0>        -0.1694
     14 C10         1.8864   -4.6623    3.3749 C.3       1 <0>        -0.1305
     15 C11         3.2618   -4.0065    3.2367 C.3       1 <0>        -0.1168
     16 C12         4.1477   -4.4270    4.4111 C.3       1 <0>        -0.1447
     17 C13         5.5231   -3.7712    4.2728 C.3       1 <0>         0.1255
     18 C14         5.3648   -2.2494    4.2727 C.3       1 <0>        -0.1423
     19 C15         6.4089   -4.1918    5.4473 C.3       1 <0>        -0.1799
     20 O1          6.1281   -4.1873    3.0469 O.3       1 <0>        -0.5582
     21 N4          0.0286   -2.7997   -2.3569 N.pl3     1 <0>        -0.6147
     22 C16         0.1533   -4.1945   -2.3480 C.2       1 <0>         0.3120
     23 C17         0.1830   -5.0128   -1.2071 C.2       1 <0>        -0.2693
     24 C18         0.3131   -6.2943   -1.6190 C.2       1 <0>         0.0893
     25 N5          0.3642   -6.2926   -2.9677 N.pl3     1 <0>        -0.4705
     26 H2          0.4555   -7.0738   -3.5354 H         1 <0>         0.4389
     27 N6          0.2570   -4.9661   -3.4045 N.2       1 <0>        -0.3293
     28 C19         0.3885   -7.5087   -0.7298 C.3       1 <0>        -0.0943
     29 H3          0.5683    2.0064   -0.1144 H         1 <0>         0.0874
     30 H4         -1.0701    1.7277   -0.7519 H         1 <0>         0.0831
     31 H5         -0.7898    1.7441    1.0058 H         1 <0>         0.0720
     32 H6         -0.3974   -0.2130   -2.0969 H         1 <0>         0.1427
     33 H7          0.8008   -2.3388    3.1209 H         1 <0>         0.4090
     34 H8         -0.9614   -4.6939    1.4340 H         1 <0>         0.0662
     35 H9         -0.1446   -6.0663    2.2199 H         1 <0>         0.0671
     36 H10        -0.8328   -4.7557    3.2083 H         1 <0>         0.0564
     37 H11         1.4249   -4.3449    4.3100 H         1 <0>         0.0662
     38 H12         1.9991   -5.7464    3.3750 H         1 <0>         0.0803
     39 H13         3.7233   -4.3239    2.3016 H         1 <0>         0.0711
     40 H14         3.1490   -2.9223    3.2366 H         1 <0>         0.0653
     41 H15         3.6862   -4.1096    5.3462 H         1 <0>         0.0701
     42 H16         4.2604   -5.5112    4.4112 H         1 <0>         0.0649
     43 H17         4.9033   -1.9321    5.2078 H         1 <0>         0.0682
     44 H18         6.3447   -1.7823    4.1742 H         1 <0>         0.0611
     45 H19         4.7337   -1.9499    3.4360 H         1 <0>         0.0651
     46 H20         6.5217   -5.2759    5.4473 H         1 <0>         0.0576
     47 H21         7.3888   -3.7246    5.3488 H         1 <0>         0.0637
     48 H22         5.9475   -3.8744    6.3824 H         1 <0>         0.0652
     49 H23         6.2593   -5.1429    2.9775 H         1 <0>         0.3739
     50 H24        -0.0985   -2.3295   -3.1958 H         1 <0>         0.4273
     51 H25         0.1142   -4.6781   -0.1826 H         1 <0>         0.1852
     52 H26        -0.6162   -7.8930   -0.5537 H         1 <0>         0.0811
     53 H27         0.9916   -8.2767   -1.2141 H         1 <0>         0.0714
     54 H28         0.8446   -7.2347    0.2215 H         1 <0>         0.0863
@<TRIPOS>BOND
     1    1    2 1
     2    1   29 1
     3    1   30 1
     4    1   31 1
     5    2    7 ar
     6    2    3 ar
     7    3    4 ar
     8    3   32 1
     9    4    5 ar
    10    4   21 1
    11    5    6 ar
    12    6    7 ar
    13    6   10 1
    14    7    8 1
    15    8    9 3
    16   10   11 1
    17   10   33 1
    18   11   12 1
    19   11   13 1
    20   11   14 1
    21   13   34 1
    22   13   35 1
    23   13   36 1
    24   14   15 1
    25   14   37 1
    26   14   38 1
    27   15   16 1
    28   15   39 1
    29   15   40 1
    30   16   17 1
    31   16   41 1
    32   16   42 1
    33   17   18 1
    34   17   19 1
    35   17   20 1
    36   18   43 1
    37   18   44 1
    38   18   45 1
    39   19   46 1
    40   19   47 1
    41   19   48 1
    42   20   49 1
    43   21   22 1
    44   21   50 1
    45   22   27 2
    46   22   23 1
    47   23   24 2
    48   23   51 1
    49   24   25 1
    50   24   28 1
    51   25   26 1
    52   25   27 1
    53   28   52 1
    54   28   53 1
    55   28   54 1
@<TRIPOS>MOLECULE
ZINC03938688
   39    41     0     0     0
SMALL
USER_CHARGES

@<TRIPOS>ATOM
      1 C1         -0.0095    1.3826    0.0704 C.ar      1 <0>        -0.0343
      2 C2          0.5587    1.0580   -1.1482 C.ar      1 <0>        -0.1609
      3 C3          1.7655    0.3862   -1.1955 C.ar      1 <0>         0.1753
      4 C4          2.4129    0.0342   -0.0053 C.ar      1 <0>        -0.1954
      5 C5          1.8304    0.3669    1.2233 C.ar      1 <0>         0.1741
      6 C6          0.6231    1.0388    1.2514 C.ar      1 <0>        -0.1610
      7 F1          2.4463    0.0317    2.3781 F         1 <0>        -0.1212
      8 C7          3.6999   -0.6827   -0.0456 C.2       1 <0>         0.6210
      9 O1          4.7383   -0.0615   -0.1600 O.2       1 <0>        -0.4669
     10 N1          3.7255   -2.0272    0.0446 N.am      1 <0>        -0.3962
     11 C8          4.8314   -2.8210    0.1249 C.2       1 <0>         0.5948
     12 N2          4.4249   -4.0694    0.1979 N.2       1 <0>        -0.5873
     13 C9          3.0869   -4.1118    0.1675 C.2       1 <0>         0.5191
     14 N3          2.6183   -2.8904    0.0808 N.2       1 <0>        -0.3480
     15 N4          2.3148   -5.2702    0.2247 N.pl3     1 <0>        -0.6226
     16 C10         2.9267   -6.5079    0.4407 C.ar      1 <0>         0.2365
     17 C11         4.1432   -6.5760    1.1080 C.ar      1 <0>        -0.1584
     18 C12         4.7450   -7.8008    1.3202 C.ar      1 <0>         0.0098
     19 C13         4.1379   -8.9586    0.8692 C.ar      1 <0>        -0.7033
     20 C14         2.9269   -8.8944    0.2046 C.ar      1 <0>         0.0112
     21 C15         2.3170   -7.6734   -0.0063 C.ar      1 <0>        -0.1777
     22 S1          4.9094  -10.5191    1.1415 S.o2      1 <0>         2.7034
     23 O2          4.4084  -11.3993    0.1448 O.2       1 <0>        -0.9656
     24 O3          6.2977  -10.2630    1.3036 O.2       1 <0>        -0.9650
     25 N5          4.3605  -11.0895    2.5960 N.pl3     1 <0>        -1.2510
     26 N6          6.1422   -2.3912    0.1281 N.pl3     1 <0>        -0.7911
     27 F2          2.3185    0.0697   -2.3868 F         1 <0>        -0.1201
     28 H1         -0.9506    1.9116    0.0998 H         1 <0>         0.1546
     29 H2          0.0576    1.3300   -2.0654 H         1 <0>         0.1549
     30 H3          0.1721    1.2963    2.1984 H         1 <0>         0.1546
     31 H4          1.3525   -5.2176    0.1147 H         1 <0>         0.4325
     32 H5          4.6180   -5.6722    1.4601 H         1 <0>         0.1556
     33 H6          5.6909   -7.8544    1.8385 H         1 <0>         0.1456
     34 H7          2.4556   -9.8005   -0.1466 H         1 <0>         0.1475
     35 H8          1.3691   -7.6243   -0.5215 H         1 <0>         0.1387
     36 H9          3.7284  -10.5673    3.1145 H         1 <0>         0.4165
     37 H10         4.6709  -11.9458    2.9296 H         1 <0>         0.4206
     38 H11         6.3422   -1.4439    0.0694 H         1 <0>         0.4292
     39 H12         6.8640   -3.0364    0.1890 H         1 <0>         0.4303
@<TRIPOS>BOND
     1    1    6 ar
     2    1    2 ar
     3    1   28 1
     4    2    3 ar
     5    2   29 1
     6    3    4 ar
     7    3   27 1
     8    4    5 ar
     9    4    8 1
    10    5    6 ar
    11    5    7 1
    12    6   30 1
    13    8    9 2
    14    8   10 am
    15   10   14 1
    16   10   11 1
    17   11   12 2
    18   11   26 1
    19   12   13 1
    20   13   14 2
    21   13   15 1
    22   15   16 1
    23   15   31 1
    24   16   21 ar
    25   16   17 ar
    26   17   18 ar
    27   17   32 1
    28   18   19 ar
    29   18   33 1
    30   19   20 ar
    31   19   22 1
    32   20   21 ar
    33   20   34 1
    34   21   35 1
    35   22   23 2
    36   22   24 2
    37   22   25 1
    38   25   36 1
    39   25   37 1
    40   26   38 1
    41   26   39 1
@<TRIPOS>MOLECULE
ZINC22067501
   69    73     0     0     0
SMALL
USER_CHARGES

@<TRIPOS>ATOM
      1 C1          0.0084    1.5224    0.1265 C.3       1 <0>         0.0217
      2 O1          0.0428    0.0939    0.1101 O.3       1 <0>        -0.3001
      3 C2         -1.1536   -0.5522    0.0904 C.ar      1 <0>         0.1089
      4 C3         -2.3121    0.1716    0.0815 C.ar      1 <0>        -0.1462
      5 C4         -3.5443   -0.4926    0.0612 C.ar      1 <0>        -0.1846
      6 C5         -3.5833   -1.9090    0.0500 C.ar      1 <0>         0.2024
      7 C6         -2.3836   -2.6308    0.0589 C.ar      1 <0>        -0.1852
      8 C7         -1.1842   -1.9535    0.0737 C.ar      1 <0>         0.1673
      9 O2         -0.0186   -2.6512    0.0769 O.3       1 <0>        -0.2936
     10 C8         -0.1158   -4.0768    0.0592 C.3       1 <0>         0.0553
     11 C9          1.2887   -4.6838    0.0658 C.3       1 <0>        -0.1154
     12 C10         1.1846   -6.2102    0.0468 C.3       1 <0>         0.0585
     13 N1          2.5331   -6.7930    0.0532 N.3       1 <0>        -0.5362
     14 C11         3.2472   -6.4822   -1.1937 C.3       1 <0>         0.0123
     15 C12         4.6647   -7.0559   -1.1202 C.3       1 <0>         0.0626
     16 O3          4.5921   -8.4628   -0.8741 O.3       1 <0>        -0.3853
     17 C13         3.9035   -8.8014    0.3327 C.3       1 <0>         0.0628
     18 C14         2.4782   -8.2454    0.2739 C.3       1 <0>         0.0172
     19 N2         -4.7778   -2.5210    0.0301 N.ar      1 <0>        -0.5455
     20 C15        -5.8852   -1.8180    0.0213 C.ar      1 <0>         0.3432
     21 N3         -5.8977   -0.4946    0.0307 N.ar      1 <0>        -0.5826
     22 C16        -4.7732    0.2093    0.0508 C.ar      1 <0>         0.4671
     23 N4         -4.8012    1.5891    0.0614 N.pl3     1 <0>        -0.6379
     24 C17        -6.0224    2.2651   -0.0406 C.ar      1 <0>         0.1335
     25 C18        -6.0954    3.4666   -0.7337 C.ar      1 <0>        -0.1257
     26 C19        -7.3000    4.1333   -0.8342 C.ar      1 <0>        -0.1003
     27 C20        -8.4388    3.6030   -0.2418 C.ar      1 <0>         0.1299
     28 C21        -8.3658    2.4016    0.4513 C.ar      1 <0>        -0.1248
     29 C22        -7.1626    1.7317    0.5466 C.ar      1 <0>        -0.0898
     30 N5         -9.6604    4.2797   -0.3430 N.am      1 <0>        -0.6685
     31 C23        -9.9643    4.9572   -1.4678 C.2       1 <0>         0.5603
     32 O4         -9.1470    5.0463   -2.3633 O.2       1 <0>        -0.5159
     33 C24       -11.2915    5.5917   -1.6126 C.ar      1 <0>        -0.1391
     34 C25       -12.2302    5.4961   -0.5839 C.ar      1 <0>        -0.0861
     35 C26       -13.4668    6.0910   -0.7253 C.ar      1 <0>        -0.1265
     36 C27       -13.7775    6.7812   -1.8835 C.ar      1 <0>        -0.0898
     37 C28       -12.8518    6.8793   -2.9072 C.ar      1 <0>        -0.1264
     38 C29       -11.6095    6.2940   -2.7763 C.ar      1 <0>        -0.0568
     39 H1          1.0269    1.9102    0.1414 H         1 <0>         0.1066
     40 H2         -0.5050    1.8837   -0.7645 H         1 <0>         0.0572
     41 H3         -0.5231    1.8629    1.0152 H         1 <0>         0.0572
     42 H4         -2.2776    1.2510    0.0905 H         1 <0>         0.1390
     43 H5         -2.3984   -3.7106    0.0509 H         1 <0>         0.1542
     44 H6         -0.6618   -4.4147    0.9400 H         1 <0>         0.0703
     45 H7         -0.6444   -4.3939   -0.8398 H         1 <0>         0.0678
     46 H8          1.8347   -4.3459   -0.8150 H         1 <0>         0.0764
     47 H9          1.8173   -4.3668    0.9647 H         1 <0>         0.0862
     48 H10         0.6386   -6.5481    0.9276 H         1 <0>         0.0816
     49 H11         0.6560   -6.5272   -0.8521 H         1 <0>         0.0405
     50 H12         2.7180   -6.9266   -2.0367 H         1 <0>         0.0446
     51 H13         3.2983   -5.4013   -1.3242 H         1 <0>         0.0905
     52 H14         5.1790   -6.8776   -2.0646 H         1 <0>         0.0993
     53 H15         5.2114   -6.5725   -0.3105 H         1 <0>         0.0611
     54 H16         3.8671   -9.8856    0.4391 H         1 <0>         0.0997
     55 H17         4.4280   -8.3688    1.1847 H         1 <0>         0.0611
     56 H18         1.9680   -8.4515    1.2148 H         1 <0>         0.0882
     57 H19         1.9367   -8.7180   -0.5456 H         1 <0>         0.0448
     58 H20        -6.8291   -2.3426    0.0052 H         1 <0>         0.1968
     59 H21        -3.9744    2.0904    0.1394 H         1 <0>         0.4184
     60 H22        -5.2098    3.8794   -1.1937 H         1 <0>         0.1278
     61 H23        -7.3568    5.0675   -1.3731 H         1 <0>         0.1429
     62 H24        -9.2513    1.9894    0.9121 H         1 <0>         0.1299
     63 H25        -7.1068    0.7952    1.0817 H         1 <0>         0.1501
     64 H26       -10.2879    4.2611    0.3964 H         1 <0>         0.4103
     65 H27       -11.9890    4.9573    0.3205 H         1 <0>         0.1259
     66 H28       -14.1941    6.0175    0.0697 H         1 <0>         0.1314
     67 H29       -14.7471    7.2451   -1.9892 H         1 <0>         0.1297
     68 H30       -13.1008    7.4192   -3.8088 H         1 <0>         0.1324
     69 H31       -10.8861    6.3754   -3.5741 H         1 <0>         0.1377
@<TRIPOS>BOND
     1    1    2 1
     2    1   39 1
     3    1   40 1
     4    1   41 1
     5    2    3 1
     6    3    8 ar
     7    3    4 ar
     8    4    5 ar
     9    4   42 1
    10    5   22 ar
    11    5    6 ar
    12    6    7 ar
    13    6   19 ar
    14    7    8 ar
    15    7   43 1
    16    8    9 1
    17    9   10 1
    18   10   11 1
    19   10   44 1
    20   10   45 1
    21   11   12 1
    22   11   46 1
    23   11   47 1
    24   12   13 1
    25   12   48 1
    26   12   49 1
    27   13   18 1
    28   13   14 1
    29   14   15 1
    30   14   50 1
    31   14   51 1
    32   15   16 1
    33   15   52 1
    34   15   53 1
    35   16   17 1
    36   17   18 1
    37   17   54 1
    38   17   55 1
    39   18   56 1
    40   18   57 1
    41   19   20 ar
    42   20   21 ar
    43   20   58 1
    44   21   22 ar
    45   22   23 1
    46   23   24 1
    47   23   59 1
    48   24   29 ar
    49   24   25 ar
    50   25   26 ar
    51   25   60 1
    52   26   27 ar
    53   26   61 1
    54   27   28 ar
    55   27   30 1
    56   28   29 ar
    57   28   62 1
    58   29   63 1
    59   30   31 am
    60   30   64 1
    61   31   32 2
    62   31   33 1
    63   33   38 ar
    64   33   34 ar
    65   34   35 ar
    66   34   65 1
    67   35   36 ar
    68   35   66 1
    69   36   37 ar
    70   36   67 1
    71   37   38 ar
    72   37   68 1
    73   38   69 1
@<TRIPOS>MOLECULE
ZINC16697102
   68    71     0     0     0
SMALL
USER_CHARGES

@<TRIPOS>ATOM
      1 C1          0.1414    1.0953    0.0252 C.3       1 <0>        -0.1879
      2 C2          0.0344   -0.4077    0.2904 C.3       1 <0>        -0.0179
      3 N1         -1.3805   -0.7845    0.4095 N.4       1 <0>        -0.3831
      4 C3         -1.4799   -2.1986    0.7946 C.3       1 <0>        -0.0114
      5 C4         -0.8914   -2.3887    2.1940 C.3       1 <0>        -0.1507
      6 C5         -0.9950   -3.8615    2.5951 C.3       1 <0>         0.0609
      7 O1         -0.4452   -4.0391    3.9021 O.3       1 <0>        -0.3065
      8 C6         -0.4595   -5.2979    4.4111 C.ar      1 <0>         0.1651
      9 C7         -0.9928   -6.3439    3.6526 C.ar      1 <0>        -0.2107
     10 C8         -1.0196   -7.6158    4.1389 C.ar      1 <0>        -0.0238
     11 C9         -0.5074   -7.8823    5.4144 C.ar      1 <0>        -0.2178
     12 C10         0.0354   -6.8287    6.1913 C.ar      1 <0>         0.2289
     13 C11         0.0571   -5.5307    5.6679 C.ar      1 <0>        -0.1455
     14 N2          0.5204   -7.1100    7.4103 N.ar      1 <0>        -0.5500
     15 C12         0.4909   -8.3384    7.8707 C.ar      1 <0>         0.3626
     16 N3         -0.0056   -9.3531    7.1820 N.ar      1 <0>        -0.5775
     17 C13        -0.5106   -9.1853    5.9662 C.ar      1 <0>         0.4884
     18 N4         -1.0254  -10.2523    5.2597 N.pl3     1 <0>        -0.5978
     19 C14        -1.0192  -11.5341    5.8239 C.2       1 <0>         0.2990
     20 C15        -0.5280  -11.8736    7.0950 C.2       1 <0>        -0.2355
     21 C16        -0.7031  -13.2037    7.2657 C.2       1 <0>         0.1068
     22 N5         -1.2824  -13.6919    6.1487 N.pl3     1 <0>        -0.4559
     23 H1         -1.5251  -14.6176    5.9907 H         1 <0>         0.4419
     24 N6         -1.4765  -12.6271    5.2595 N.2       1 <0>        -0.3116
     25 C17        -0.3191  -13.9996    8.4864 C.3       1 <0>        -0.0770
     26 C18        -1.4265  -13.9219    9.5056 C.2       1 <0>         0.5143
     27 O2         -2.4289  -13.2831    9.2644 O.2       1 <0>        -0.5002
     28 N7         -1.3030  -14.5622   10.6851 N.am      1 <0>        -0.6720
     29 C19        -2.2828  -14.4064   11.6717 C.ar      1 <0>         0.1711
     30 C20        -1.9219  -14.3818   13.0129 C.ar      1 <0>        -0.1532
     31 C21        -2.8902  -14.2274   13.9854 C.ar      1 <0>        -0.0700
     32 C22        -4.2191  -14.0976   13.6262 C.ar      1 <0>        -0.1667
     33 C23        -4.5833  -14.1215   12.2902 C.ar      1 <0>         0.1178
     34 C24        -3.6165  -14.2702   11.3118 C.ar      1 <0>        -0.1591
     35 F1         -5.8825  -13.9949   11.9421 F         1 <0>        -0.1354
     36 C25        -2.0519   -0.5800   -0.8810 C.3       1 <0>        -0.0098
     37 C26        -3.5535   -0.8247   -0.7191 C.3       1 <0>         0.0446
     38 O3         -4.1050    0.1610    0.1562 O.3       1 <0>        -0.5793
     39 H2          1.1903    1.3917    0.0323 H         1 <0>         0.1072
     40 H3         -0.2944    1.3246   -0.9472 H         1 <0>         0.0804
     41 H4         -0.3955    1.6404    0.8016 H         1 <0>         0.0817
     42 H5          0.4880   -0.9556   -0.5355 H         1 <0>         0.1307
     43 H6          0.5544   -0.6511    1.2170 H         1 <0>         0.1338
     44 H7         -2.5269   -2.5019    0.7965 H         1 <0>         0.1336
     45 H8         -0.9261   -2.8092    0.0814 H         1 <0>         0.1348
     46 H9          0.1556   -2.0854    2.1921 H         1 <0>         0.1011
     47 H10        -1.4452   -1.7781    2.9071 H         1 <0>         0.1012
     48 H11        -2.0419   -4.1648    2.5970 H         1 <0>         0.0752
     49 H12        -0.4411   -4.4721    1.8820 H         1 <0>         0.0757
     50 H13        -1.3888   -6.1408    2.6686 H         1 <0>         0.1349
     51 H14        -1.4346   -8.4154    3.5432 H         1 <0>         0.1334
     52 H15         0.4712   -4.7175    6.2456 H         1 <0>         0.1508
     53 H16         0.8901   -8.5298    8.8558 H         1 <0>         0.2027
     54 H17        -1.3916  -10.1149    4.3721 H         1 <0>         0.4252
     55 H18        -0.0885  -11.1933    7.8093 H         1 <0>         0.1852
     56 H19        -0.1563  -15.0401    8.2054 H         1 <0>         0.1142
     57 H20         0.5968  -13.5910    8.9133 H         1 <0>         0.1312
     58 H21        -0.5348  -15.1312   10.8499 H         1 <0>         0.4166
     59 H22        -0.8844  -14.4838   13.2950 H         1 <0>         0.1350
     60 H23        -2.6091  -14.2084   15.0280 H         1 <0>         0.1399
     61 H24        -4.9744  -13.9777   14.3888 H         1 <0>         0.1383
     62 H25        -3.8995  -14.2849   10.2696 H         1 <0>         0.1494
     63 H26        -1.8848    0.4425   -1.2196 H         1 <0>         0.1421
     64 H27        -1.6474   -1.2765   -1.6154 H         1 <0>         0.1431
     65 H28        -4.0394   -0.7588   -1.6926 H         1 <0>         0.0960
     66 H29        -3.7166   -1.8167   -0.2980 H         1 <0>         0.0707
     67 H30        -5.0389    0.0226    0.3657 H         1 <0>         0.4093
     68 H31        -1.8228   -0.2123    1.1131 H         1 <0>         0.4316
@<TRIPOS>BOND
     1    1    2 1
     2    1   39 1
     3    1   40 1
     4    1   41 1
     5    2    3 1
     6    2   42 1
     7    2   43 1
     8    3    4 1
     9    3   36 1
    10    3   68 1
    11    4    5 1
    12    4   44 1
    13    4   45 1
    14    5    6 1
    15    5   46 1
    16    5   47 1
    17    6    7 1
    18    6   48 1
    19    6   49 1
    20    7    8 1
    21    8   13 ar
    22    8    9 ar
    23    9   10 ar
    24    9   50 1
    25   10   11 ar
    26   10   51 1
    27   11   17 ar
    28   11   12 ar
    29   12   13 ar
    30   12   14 ar
    31   13   52 1
    32   14   15 ar
    33   15   16 ar
    34   15   53 1
    35   16   17 ar
    36   17   18 1
    37   18   19 1
    38   18   54 1
    39   19   24 2
    40   19   20 1
    41   20   21 2
    42   20   55 1
    43   21   22 1
    44   21   25 1
    45   22   23 1
    46   22   24 1
    47   25   26 1
    48   25   56 1
    49   25   57 1
    50   26   27 2
    51   26   28 am
    52   28   29 1
    53   28   58 1
    54   29   34 ar
    55   29   30 ar
    56   30   31 ar
    57   30   59 1
    58   31   32 ar
    59   31   60 1
    60   32   33 ar
    61   32   61 1
    62   33   34 ar
    63   33   35 1
    64   34   62 1
    65   36   37 1
    66   36   63 1
    67   36   64 1
    68   37   38 1
    69   37   65 1
    70   37   66 1
    71   38   67 1
@<TRIPOS>MOLECULE
ZINC16697102
   68    71     0     0     0
SMALL
USER_CHARGES

@<TRIPOS>ATOM
      1 C1          0.1009    1.0895    0.0671 C.3       1 <0>        -0.1880
      2 C2          0.0005   -0.4150    0.3267 C.3       1 <0>        -0.0178
      3 N1         -1.4127   -0.7982    0.4447 N.4       1 <0>        -0.3831
      4 C3         -1.5060   -2.2142    0.8244 C.3       1 <0>        -0.0114
      5 C4         -0.9163   -2.4070    2.2230 C.3       1 <0>        -0.1510
      6 C5         -1.0135   -3.8818    2.6185 C.3       1 <0>         0.0610
      7 O1         -0.4626   -4.0619    3.9247 O.3       1 <0>        -0.3058
      8 C6         -0.4714   -5.3227    4.4290 C.ar      1 <0>         0.1652
      9 C7         -1.0003   -6.3681    3.6667 C.ar      1 <0>        -0.2079
     10 C8         -1.0216   -7.6420    4.1481 C.ar      1 <0>        -0.0271
     11 C9         -0.5079   -7.9111    5.4225 C.ar      1 <0>        -0.2157
     12 C10         0.0306   -6.8581    6.2032 C.ar      1 <0>         0.2279
     13 C11         0.0466   -5.5580    5.6848 C.ar      1 <0>        -0.1434
     14 N2          0.5172   -7.1419    7.4211 N.ar      1 <0>        -0.5462
     15 C12         0.4930   -8.3722    7.8768 C.ar      1 <0>         0.3627
     16 N3          0.0007   -9.3864    7.1844 N.ar      1 <0>        -0.5729
     17 C13        -0.5054   -9.2161    5.9694 C.ar      1 <0>         0.4842
     18 N4         -1.0159  -10.2829    5.2588 N.pl3     1 <0>        -0.6133
     19 C14        -1.0041  -11.5601    5.8152 C.2       1 <0>         0.2975
     20 C15        -0.5278  -11.8985    7.0451 C.2       1 <0>        -0.2522
     21 C16        -0.7053  -13.2747    7.2096 C.2       1 <0>         0.0931
     22 N5         -1.2647  -13.7522    6.1276 N.2       1 <0>        -0.2441
     23 N6         -1.4709  -12.6946    5.2325 N.pl3     1 <0>        -0.4898
     24 H1         -1.8732  -12.7611    4.3523 H         1 <0>         0.4364
     25 C17        -0.3175  -14.0738    8.4270 C.3       1 <0>        -0.0571
     26 C18        -1.5188  -14.8275    8.9368 C.2       1 <0>         0.5153
     27 O2         -2.5849  -14.7257    8.3676 O.2       1 <0>        -0.4982
     28 N7         -1.4084  -15.6146   10.0253 N.am      1 <0>        -0.6749
     29 C19        -2.5443  -16.2321   10.5602 C.ar      1 <0>         0.1739
     30 C20        -2.6655  -16.3952   11.9344 C.ar      1 <0>        -0.1553
     31 C21        -3.7876  -17.0044   12.4607 C.ar      1 <0>        -0.0709
     32 C22        -4.7909  -17.4530   11.6216 C.ar      1 <0>        -0.1690
     33 C23        -4.6742  -17.2924   10.2511 C.ar      1 <0>         0.1173
     34 C24        -3.5547  -16.6775    9.7191 C.ar      1 <0>        -0.1594
     35 F1         -5.6558  -17.7320    9.4336 F         1 <0>        -0.1360
     36 C25        -2.0854   -0.5918   -0.8449 C.3       1 <0>        -0.0099
     37 C26        -3.5858   -0.8435   -0.6835 C.3       1 <0>         0.0446
     38 O3         -4.1414    0.1365    0.1957 O.3       1 <0>        -0.5792
     39 H2          1.1486    1.3904    0.0751 H         1 <0>         0.1074
     40 H3         -0.3361    1.3206   -0.9043 H         1 <0>         0.0805
     41 H4         -0.4380    1.6293    0.8457 H         1 <0>         0.0817
     42 H5          0.4562   -0.9578   -0.5014 H         1 <0>         0.1308
     43 H6          0.5217   -0.6596    1.2522 H         1 <0>         0.1337
     44 H7         -2.5517   -2.5220    0.8255 H         1 <0>         0.1335
     45 H8         -0.9498   -2.8197    0.1089 H         1 <0>         0.1347
     46 H9          0.1294   -2.0993    2.2220 H         1 <0>         0.1014
     47 H10        -1.4725   -1.8015    2.9385 H         1 <0>         0.1015
     48 H11        -2.0591   -4.1896    2.6196 H         1 <0>         0.0752
     49 H12        -0.4572   -4.4873    1.9030 H         1 <0>         0.0757
     50 H13        -1.3975   -6.1630    2.6836 H         1 <0>         0.1354
     51 H14        -1.4333   -8.4411    3.5496 H         1 <0>         0.1313
     52 H15         0.4574   -4.7453    6.2654 H         1 <0>         0.1520
     53 H16         0.8932   -8.5656    8.8611 H         1 <0>         0.2055
     54 H17        -1.3830  -10.1437    4.3718 H         1 <0>         0.4209
     55 H18        -0.0902  -11.2232    7.7655 H         1 <0>         0.1880
     56 H19         0.4693  -14.7803    8.1624 H         1 <0>         0.1181
     57 H20         0.0452  -13.4002    9.2034 H         1 <0>         0.1229
     58 H21        -0.5415  -15.7530   10.4378 H         1 <0>         0.4158
     59 H22        -1.8824  -16.0460   12.5909 H         1 <0>         0.1343
     60 H23        -3.8814  -17.1310   13.5291 H         1 <0>         0.1388
     61 H24        -5.6670  -17.9297   12.0358 H         1 <0>         0.1372
     62 H25        -3.4650  -16.5484    8.6506 H         1 <0>         0.1513
     63 H26        -1.9227    0.4328   -1.1796 H         1 <0>         0.1424
     64 H27        -1.6780   -1.2838   -1.5820 H         1 <0>         0.1432
     65 H28        -4.0723   -0.7760   -1.6566 H         1 <0>         0.0961
     66 H29        -3.7446   -1.8378   -0.2661 H         1 <0>         0.0704
     67 H30        -5.0746   -0.0067    0.4048 H         1 <0>         0.4093
     68 H31        -1.8573   -0.2307    1.1505 H         1 <0>         0.4316
@<TRIPOS>BOND
     1    1    2 1
     2    1   39 1
     3    1   40 1
     4    1   41 1
     5    2    3 1
     6    2   42 1
     7    2   43 1
     8    3    4 1
     9    3   36 1
    10    3   68 1
    11    4    5 1
    12    4   44 1
    13    4   45 1
    14    5    6 1
    15    5   46 1
    16    5   47 1
    17    6    7 1
    18    6   48 1
    19    6   49 1
    20    7    8 1
    21    8   13 ar
    22    8    9 ar
    23    9   10 ar
    24    9   50 1
    25   10   11 ar
    26   10   51 1
    27   11   17 ar
    28   11   12 ar
    29   12   13 ar
    30   12   14 ar
    31   13   52 1
    32   14   15 ar
    33   15   16 ar
    34   15   53 1
    35   16   17 ar
    36   17   18 1
    37   18   19 1
    38   18   54 1
    39   19   23 1
    40   19   20 2
    41   20   21 1
    42   20   55 1
    43   21   22 2
    44   21   25 1
    45   22   23 1
    46   23   24 1
    47   25   26 1
    48   25   56 1
    49   25   57 1
    50   26   27 2
    51   26   28 am
    52   28   29 1
    53   28   58 1
    54   29   34 ar
    55   29   30 ar
    56   30   31 ar
    57   30   59 1
    58   31   32 ar
    59   31   60 1
    60   32   33 ar
    61   32   61 1
    62   33   34 ar
    63   33   35 1
    64   34   62 1
    65   36   37 1
    66   36   63 1
    67   36   64 1
    68   37   38 1
    69   37   65 1
    70   37   66 1
    71   38   67 1
@<TRIPOS>MOLECULE
ZINC06718813
   46    49     0     0     0
SMALL
USER_CHARGES
3-[4-(3-amino-1H-indazol-4-yl)phenyl]-1-(2-fluoro-5-methyl-phenyl)urea
@<TRIPOS>ATOM
      1 C1          6.9492   -0.6708   -4.4566 C.3       1 <0>        -0.1151
      2 C2          7.3188   -0.0066   -3.1554 C.ar      1 <0>        -0.0747
      3 C3          8.6152   -0.0905   -2.6815 C.ar      1 <0>        -0.1060
      4 C4          8.9590    0.5169   -1.4879 C.ar      1 <0>        -0.1295
      5 C5          8.0061    1.2101   -0.7639 C.ar      1 <0>         0.0645
      6 C6          6.7020    1.2957   -1.2387 C.ar      1 <0>         0.1336
      7 C7          6.3607    0.6802   -2.4351 C.ar      1 <0>        -0.0953
      8 N1          5.7336    1.9963   -0.5085 N.am      1 <0>        -0.6783
      9 C8          4.4547    1.5712   -0.5040 C.2       1 <0>         0.7069
     10 O1          4.1265    0.6239   -1.1921 O.2       1 <0>        -0.5500
     11 N2          3.5395    2.1961    0.2631 N.am      1 <0>        -0.6801
     12 C9          2.2409    1.6865    0.3572 C.ar      1 <0>         0.1677
     13 C10         1.1632    2.5541    0.4899 C.ar      1 <0>        -0.1430
     14 C11        -0.1180    2.0545    0.5834 C.ar      1 <0>        -0.0892
     15 C12        -0.3326    0.6766    0.5442 C.ar      1 <0>        -0.0682
     16 C13         0.7509   -0.1919    0.4104 C.ar      1 <0>        -0.0779
     17 C14         2.0300    0.3132    0.3174 C.ar      1 <0>        -0.1142
     18 C15        -1.7083    0.1367    0.6449 C.ar      1 <0>         0.0376
     19 C16        -2.0347   -0.7648    1.6483 C.ar      1 <0>        -0.1557
     20 C17        -3.3230   -1.2675    1.7456 C.ar      1 <0>        -0.0592
     21 C18        -4.2968   -0.8911    0.8473 C.ar      1 <0>        -0.1529
     22 C19        -3.9969    0.0086   -0.1734 C.ar      1 <0>         0.1547
     23 C20        -2.6946    0.5292   -0.2801 C.ar      1 <0>        -0.1858
     24 C21        -2.7034    1.4283   -1.4324 C.2       1 <0>         0.3642
     25 N3         -3.9099    1.4169   -1.9352 N.2       1 <0>        -0.3205
     26 N4         -4.7292    0.5606   -1.1926 N.pl3     1 <0>        -0.5119
     27 H1         -5.6955    0.3797   -1.3759 H         1 <0>         0.4473
     28 N5         -1.6172    2.1667   -1.9108 N.pl3     1 <0>        -0.8360
     29 F1          8.3418    1.8036    0.4023 F         1 <0>        -0.1384
     30 H2          6.6188   -1.6912   -4.2627 H         1 <0>         0.0755
     31 H3          6.1436   -0.1125   -4.9335 H         1 <0>         0.0695
     32 H4          7.8178   -0.6890   -5.1149 H         1 <0>         0.0704
     33 H5          9.3607   -0.6319   -3.2448 H         1 <0>         0.1352
     34 H6          9.9724    0.4496   -1.1204 H         1 <0>         0.1410
     35 H7          5.3477    0.7413   -2.8045 H         1 <0>         0.1523
     36 H8          5.9835    2.7876   -0.0061 H         1 <0>         0.4118
     37 H9          3.7818    2.9993    0.7499 H         1 <0>         0.4106
     38 H10         1.3298    3.6208    0.5203 H         1 <0>         0.1310
     39 H11        -0.9554    2.7293    0.6824 H         1 <0>         0.1315
     40 H12         0.5876   -1.2590    0.3794 H         1 <0>         0.1314
     41 H13         2.8692   -0.3587    0.2138 H         1 <0>         0.1391
     42 H14        -1.2822   -1.0738    2.3586 H         1 <0>         0.1292
     43 H15        -3.5651   -1.9655    2.5334 H         1 <0>         0.1325
     44 H16        -5.2951   -1.2940    0.9345 H         1 <0>         0.1278
     45 H17        -0.7342    2.0309   -1.5329 H         1 <0>         0.4118
     46 H18        -1.7465    2.8151   -2.6206 H         1 <0>         0.4050
@<TRIPOS>BOND
     1    1    2 1
     2    1   30 1
     3    1   31 1
     4    1   32 1
     5    2    7 ar
     6    2    3 ar
     7    3    4 ar
     8    3   33 1
     9    4    5 ar
    10    4   34 1
    11    5    6 ar
    12    5   29 1
    13    6    7 ar
    14    6    8 1
    15    7   35 1
    16    8    9 am
    17    8   36 1
    18    9   10 2
    19    9   11 am
    20   11   12 1
    21   11   37 1
    22   12   17 ar
    23   12   13 ar
    24   13   14 ar
    25   13   38 1
    26   14   15 ar
    27   14   39 1
    28   15   16 ar
    29   15   18 1
    30   16   17 ar
    31   16   40 1
    32   17   41 1
    33   18   23 ar
    34   18   19 ar
    35   19   20 ar
    36   19   42 1
    37   20   21 ar
    38   20   43 1
    39   21   22 ar
    40   21   44 1
    41   22   26 1
    42   22   23 ar
    43   23   24 1
    44   24   25 2
    45   24   28 1
    46   25   26 1
    47   26   27 1
    48   28   45 1
    49   28   46 1
@<TRIPOS>MOLECULE
ZINC18128389
   33    36     0     0     0
SMALL
USER_CHARGES

@<TRIPOS>ATOM
      1 C1          0.0638    1.4312    0.1574 C.ar      1 <0>        -0.1643
      2 C2          1.2626    2.1328    0.1117 C.ar      1 <0>         0.0268
      3 C3          2.4743    1.4857    0.0311 C.ar      1 <0>        -0.1620
      4 C4          2.5128    0.0855   -0.0060 C.ar      1 <0>         0.2322
      5 N1          3.5164   -0.8009   -0.0816 N.pl3     1 <0>        -0.5650
      6 C5          3.0564   -2.0538   -0.0886 C.2       1 <0>         0.1804
      7 C6          3.8386   -3.2099   -0.1592 C.2       1 <0>        -0.0647
      8 C7          3.4475   -4.5234   -0.6931 C.ar      1 <0>        -0.1318
      9 C8          2.2679   -5.0133   -1.2583 C.ar      1 <0>        -0.0804
     10 C9          2.2043   -6.3255   -1.6753 C.ar      1 <0>        -0.0984
     11 C10         3.3069   -7.1553   -1.5336 C.ar      1 <0>        -0.0276
     12 C11         4.4799   -6.6813   -0.9754 C.ar      1 <0>        -0.0979
     13 C12         4.5665   -5.3626   -0.5489 C.ar      1 <0>         0.1950
     14 N2          5.6049   -4.6464    0.0348 N.am      1 <0>        -0.6418
     15 C13         5.2427   -3.3758    0.2816 C.2       1 <0>         0.5642
     16 O1          5.9425   -2.5161    0.7813 O.2       1 <0>        -0.4560
     17 Br1         3.2046   -8.9537   -2.1090 Br        1 <0>         0.0046
     18 C14         1.5769   -2.0135   -0.0090 C.2       1 <0>         0.3786
     19 C15         1.2429   -0.6467    0.0431 C.ar      1 <0>        -0.2244
     20 C16         0.0391    0.0671    0.1244 C.ar      1 <0>         0.0336
     21 N3          0.7218   -3.0736    0.0095 N.pl3     1 <0>        -0.4672
     22 O2         -0.6764   -2.8566   -0.0469 O.3       1 <0>        -0.2764
     23 H1         -0.8662    1.9760    0.2247 H         1 <0>         0.1536
     24 H2          1.2426    3.2122    0.1399 H         1 <0>         0.1580
     25 H3          3.3917    2.0546   -0.0037 H         1 <0>         0.1576
     26 H4          1.4096   -4.3670   -1.3678 H         1 <0>         0.1367
     27 H5          1.2942   -6.7085   -2.1129 H         1 <0>         0.1581
     28 H6          5.3307   -7.3383   -0.8707 H         1 <0>         0.1586
     29 H7          6.4796   -5.0150    0.2346 H         1 <0>         0.4391
     30 H8         -0.9030   -0.4598    0.1606 H         1 <0>         0.1529
     31 H9          1.0706   -3.9773    0.0613 H         1 <0>         0.4449
     32 H10        -1.2015   -3.6684   -0.0284 H         1 <0>         0.4295
     33 H11         4.4555   -0.5622   -0.1258 H         1 <0>         0.4535
@<TRIPOS>BOND
     1    1   20 ar
     2    1    2 ar
     3    1   23 1
     4    2    3 ar
     5    2   24 1
     6    3    4 ar
     7    3   25 1
     8    4   19 ar
     9    4    5 2
    10    5    6 1
    11    5   33 1
    12    6    7 2
    13    6   18 1
    14    7   15 1
    15    7    8 1
    16    8   13 ar
    17    8    9 ar
    18    9   10 ar
    19    9   26 1
    20   10   11 ar
    21   10   27 1
    22   11   12 ar
    23   11   17 1
    24   12   13 ar
    25   12   28 1
    26   13   14 1
    27   14   15 am
    28   14   29 1
    29   15   16 2
    30   18   19 2
    31   18   21 1
    32   19   20 ar
    33   20   30 1
    34   21   22 1
    35   21   31 1
    36   22   32 1
@<TRIPOS>MOLECULE
ZINC18128389
   32    35     0     0     0
SMALL
USER_CHARGES

@<TRIPOS>ATOM
      1 C1         -0.0167    1.3786    0.0096 C.ar      1 <0>        -0.1132
      2 C2          1.1711    2.0915    0.0021 C.ar      1 <0>        -0.0970
      3 C3          2.3854    1.4389   -0.0134 C.ar      1 <0>        -0.0688
      4 C4          2.4288    0.0402   -0.0213 C.ar      1 <0>         0.0644
      5 C5          1.2145   -0.6754   -0.0131 C.ar      1 <0>        -0.1490
      6 C6          0.0021   -0.0041    0.0020 C.ar      1 <0>        -0.0563
      7 C7          1.5943   -2.1087   -0.0249 C.2       1 <0>         0.1336
      8 N1          0.8072   -3.1466   -0.0228 N.2       1 <0>        -0.2349
      9 O1         -0.5976   -2.9698   -0.0072 O.3       1 <0>        -0.3836
     10 C8          3.0817   -2.0878   -0.0398 C.2       1 <0>         0.2951
     11 N2          3.4696   -0.8320   -0.0367 N.2       1 <0>        -0.4080
     12 C9          3.9602   -3.2612   -0.0548 C.2       1 <0>        -0.1488
     13 C10         4.4831   -3.9595   -1.2437 C.ar      1 <0>        -0.0458
     14 C11         4.3382   -3.7657   -2.6157 C.ar      1 <0>        -0.0655
     15 C12         4.9738   -4.6145   -3.4959 C.ar      1 <0>        -0.1051
     16 C13         5.7549   -5.6581   -3.0202 C.ar      1 <0>        -0.0712
     17 C14         5.9059   -5.8608   -1.6640 C.ar      1 <0>        -0.0873
     18 C15         5.2730   -5.0147   -0.7605 C.ar      1 <0>         0.1064
     19 N3          5.2397   -4.9705    0.6219 N.pl3     1 <0>        -0.5830
     20 H1          5.7038   -5.5899    1.2066 H         1 <0>         0.4230
     21 C16         4.4700   -3.9323    1.0457 C.2       1 <0>         0.3208
     22 O2          4.2364   -3.6077    2.3374 O.3       1 <0>        -0.4557
     23 Br1         6.6199   -6.8133   -4.2422 Br        1 <0>        -0.0411
     24 H2         -0.9600    1.9042    0.0260 H         1 <0>         0.1361
     25 H3          1.1455    3.1712    0.0081 H         1 <0>         0.1381
     26 H4          3.3037    2.0075   -0.0198 H         1 <0>         0.1377
     27 H5         -0.9246   -0.5587    0.0082 H         1 <0>         0.1338
     28 H6         -1.0982   -3.7972   -0.0068 H         1 <0>         0.4133
     29 H7          3.7304   -2.9542   -2.9877 H         1 <0>         0.1324
     30 H8          4.8631   -4.4671   -4.5601 H         1 <0>         0.1385
     31 H9          6.5159   -6.6763   -1.3042 H         1 <0>         0.1366
     32 H10         3.4610   -4.0424    2.7182 H         1 <0>         0.4043
@<TRIPOS>BOND
     1    1    6 ar
     2    1    2 ar
     3    1   24 1
     4    2    3 ar
     5    2   25 1
     6    3    4 ar
     7    3   26 1
     8    4   11 1
     9    4    5 ar
    10    5    6 ar
    11    5    7 1
    12    6   27 1
    13    7    8 2
    14    7   10 1
    15    8    9 1
    16    9   28 1
    17   10   11 2
    18   10   12 1
    19   12   21 2
    20   12   13 1
    21   13   18 ar
    22   13   14 ar
    23   14   15 ar
    24   14   29 1
    25   15   16 ar
    26   15   30 1
    27   16   17 ar
    28   16   23 1
    29   17   18 ar
    30   17   31 1
    31   18   19 1
    32   19   20 1
    33   19   21 1
    34   21   22 1
    35   22   32 1
@<TRIPOS>MOLECULE
ZINC18128389
   32    35     0     0     0
SMALL
USER_CHARGES

@<TRIPOS>ATOM
      1 C1         -0.0167    1.3786    0.0096 C.ar      1 <0>        -0.1119
      2 C2          1.1711    2.0915    0.0021 C.ar      1 <0>        -0.0954
      3 C3          2.3854    1.4389   -0.0134 C.ar      1 <0>        -0.0689
      4 C4          2.4288    0.0402   -0.0213 C.ar      1 <0>         0.0710
      5 C5          1.2145   -0.6754   -0.0131 C.ar      1 <0>        -0.1054
      6 C6          0.0021   -0.0041    0.0020 C.ar      1 <0>        -0.0585
      7 C7          1.5943   -2.1087   -0.0249 C.2       1 <0>         0.1354
      8 N1          0.8072   -3.1466   -0.0228 N.2       1 <0>        -0.2396
      9 O1          1.3564   -4.4517   -0.0362 O.3       1 <0>        -0.3718
     10 C8          3.0817   -2.0878   -0.0398 C.2       1 <0>         0.2486
     11 N2          3.4696   -0.8320   -0.0367 N.2       1 <0>        -0.4172
     12 C9          3.9602   -3.2612   -0.0548 C.2       1 <0>        -0.1389
     13 C10         4.4831   -3.9595   -1.2437 C.ar      1 <0>        -0.0428
     14 C11         4.3382   -3.7657   -2.6157 C.ar      1 <0>        -0.0658
     15 C12         4.9738   -4.6145   -3.4959 C.ar      1 <0>        -0.1062
     16 C13         5.7549   -5.6581   -3.0202 C.ar      1 <0>        -0.0717
     17 C14         5.9059   -5.8608   -1.6640 C.ar      1 <0>        -0.0880
     18 C15         5.2730   -5.0147   -0.7605 C.ar      1 <0>         0.1073
     19 N3          5.2397   -4.9705    0.6219 N.pl3     1 <0>        -0.5835
     20 H1          5.7038   -5.5899    1.2066 H         1 <0>         0.4217
     21 C16         4.4700   -3.9323    1.0457 C.2       1 <0>         0.3167
     22 O2          4.2364   -3.6077    2.3374 O.3       1 <0>        -0.4566
     23 Br1         6.6199   -6.8133   -4.2422 Br        1 <0>        -0.0421
     24 H2         -0.9600    1.9042    0.0260 H         1 <0>         0.1378
     25 H3          1.1455    3.1712    0.0081 H         1 <0>         0.1389
     26 H4          3.3037    2.0075   -0.0198 H         1 <0>         0.1387
     27 H5         -0.9246   -0.5587    0.0082 H         1 <0>         0.1332
     28 H6          0.6948   -5.1569   -0.0335 H         1 <0>         0.4103
     29 H7          3.7304   -2.9542   -2.9877 H         1 <0>         0.1299
     30 H8          4.8631   -4.4671   -4.5601 H         1 <0>         0.1375
     31 H9          6.5159   -6.6763   -1.3042 H         1 <0>         0.1356
     32 H10         3.4610   -4.0424    2.7182 H         1 <0>         0.4021
@<TRIPOS>BOND
     1    1    6 ar
     2    1    2 ar
     3    1   24 1
     4    2    3 ar
     5    2   25 1
     6    3    4 ar
     7    3   26 1
     8    4   11 1
     9    4    5 ar
    10    5    6 ar
    11    5    7 1
    12    6   27 1
    13    7    8 2
    14    7   10 1
    15    8    9 1
    16    9   28 1
    17   10   11 2
    18   10   12 1
    19   12   21 2
    20   12   13 1
    21   13   18 ar
    22   13   14 ar
    23   14   15 ar
    24   14   29 1
    25   15   16 ar
    26   15   30 1
    27   16   17 ar
    28   16   23 1
    29   17   18 ar
    30   17   31 1
    31   18   19 1
    32   19   20 1
    33   19   21 1
    34   21   22 1
    35   22   32 1
@<TRIPOS>MOLECULE
ZINC18825334
   48    52     0     0     0
SMALL
USER_CHARGES
4-[[9-chloro-7-(2,6-difluorophenyl)-5H-pyrimido[5,4-d][2]benzazepin-2-yl]amino]benzoic acid
@<TRIPOS>ATOM
      1 C1          2.2776    0.3903   -0.5698 C.ar      1 <0>        -0.0509
      2 C2          1.1421    1.1799   -0.5633 C.ar      1 <0>        -0.1622
      3 C3         -0.1043    0.6031   -0.4066 C.ar      1 <0>         0.1578
      4 C4         -0.2153   -0.7818   -0.2549 C.ar      1 <0>        -0.1229
      5 C5          0.9369   -1.5728   -0.2630 C.ar      1 <0>         0.1499
      6 C6          2.1761   -0.9809   -0.4208 C.ar      1 <0>        -0.1633
      7 F1          0.8397   -2.9124   -0.1175 F         1 <0>        -0.1231
      8 C7         -1.5453   -1.4071   -0.0861 C.2       1 <0>         0.2536
      9 N1         -2.1650   -1.7678   -1.1512 N.2       1 <0>        -0.4634
     10 C8         -3.4819   -2.3942   -1.1195 C.3       1 <0>         0.0964
     11 C9         -4.4898   -1.4068   -0.6038 C.ar      1 <0>        -0.2574
     12 C10        -5.5098   -0.9746   -1.4374 C.ar      1 <0>         0.2162
     13 N2         -6.3794   -0.0861   -0.9844 N.ar      1 <0>        -0.5366
     14 C11        -6.2835    0.3896    0.2490 C.ar      1 <0>         0.5701
     15 N3         -5.3286   -0.0031    1.0745 N.ar      1 <0>        -0.5552
     16 C12        -4.4183   -0.9022    0.6848 C.ar      1 <0>         0.2552
     17 C13        -3.3769   -1.3202    1.6484 C.ar      1 <0>        -0.0142
     18 C14        -2.0497   -1.5581    1.2881 C.ar      1 <0>        -0.0587
     19 C15        -1.1358   -1.9616    2.2712 C.ar      1 <0>        -0.0846
     20 C16        -1.5377   -2.1181    3.5805 C.ar      1 <0>        -0.0213
     21 C17        -2.8549   -1.8776    3.9370 C.ar      1 <0>        -0.0981
     22 C18        -3.7670   -1.4826    2.9833 C.ar      1 <0>        -0.0636
     23 Cl1        -0.3917   -2.6181    4.7848 Cl        1 <0>        -0.0577
     24 N4         -7.2095    1.3241    0.6851 N.pl3     1 <0>        -0.6261
     25 C19        -8.1519    1.8366   -0.2021 C.ar      1 <0>         0.1418
     26 C20        -9.4292    2.1564    0.2498 C.ar      1 <0>        -0.1598
     27 C21       -10.3616    2.6678   -0.6235 C.ar      1 <0>        -0.0590
     28 C22       -10.0281    2.8564   -1.9684 C.ar      1 <0>        -0.1232
     29 C23        -8.7457    2.5290   -2.4200 C.ar      1 <0>        -0.0681
     30 C24        -7.8166    2.0227   -1.5403 C.ar      1 <0>        -0.1261
     31 C25       -11.0259    3.3995   -2.9077 C.2       1 <0>         0.4893
     32 O1        -10.7345    3.5633   -4.0760 O.co2     1 <0>        -0.6323
     33 F2         -1.2128    1.3755   -0.4056 F         1 <0>        -0.1209
     34 H1          3.2486    0.8468   -0.6927 H         1 <0>         0.1483
     35 H2          1.2295    2.2500   -0.6806 H         1 <0>         0.1486
     36 H3          3.0673   -1.5909   -0.4273 H         1 <0>         0.1485
     37 H4         -3.4574   -3.2644   -0.4636 H         1 <0>         0.0791
     38 H5         -3.7607   -2.7058   -2.1261 H         1 <0>         0.1121
     39 H6         -5.5938   -1.3585   -2.4434 H         1 <0>         0.1778
     40 H7         -0.1076   -2.1514    2.0006 H         1 <0>         0.1393
     41 H8         -3.1667   -1.9996    4.9638 H         1 <0>         0.1452
     42 H9         -4.7921   -1.2962    3.2678 H         1 <0>         0.1468
     43 H10        -7.2009    1.6210    1.6085 H         1 <0>         0.4210
     44 H11        -9.6873    2.0066    1.2877 H         1 <0>         0.1185
     45 H12       -11.3510    2.9199   -0.2713 H         1 <0>         0.1349
     46 H13        -8.4848    2.6738   -3.4580 H         1 <0>         0.1294
     47 H14        -6.8261    1.7696   -1.8885 H         1 <0>         0.1253
     48 O2        -12.2611    3.7145   -2.4709 O.co2     1 <0>        -0.7564
@<TRIPOS>BOND
     1    1    6 ar
     2    1    2 ar
     3    1   34 1
     4    2    3 ar
     5    2   35 1
     6    3    4 ar
     7    3   33 1
     8    4    5 ar
     9    4    8 1
    10    5    6 ar
    11    5    7 1
    12    6   36 1
    13    8   18 1
    14    8    9 2
    15    9   10 1
    16   10   11 1
    17   10   37 1
    18   10   38 1
    19   11   16 ar
    20   11   12 ar
    21   12   13 ar
    22   12   39 1
    23   13   14 ar
    24   14   15 ar
    25   14   24 1
    26   15   16 ar
    27   16   17 1
    28   17   22 ar
    29   17   18 ar
    30   18   19 ar
    31   19   20 ar
    32   19   40 1
    33   20   21 ar
    34   20   23 1
    35   21   22 ar
    36   21   41 1
    37   22   42 1
    38   24   25 1
    39   24   43 1
    40   25   30 ar
    41   25   26 ar
    42   26   27 ar
    43   26   44 1
    44   27   28 ar
    45   27   45 1
    46   28   29 ar
    47   28   31 1
    48   29   30 ar
    49   29   46 1
    50   30   47 1
    51   31   32 2
    52   31   48 1
@<TRIPOS>MOLECULE
ZINC16052729
   53    57     0     0     0
SMALL
USER_CHARGES
N-cyclopropyl-6-[(6,7-dimethoxy-4-quinolyl)oxy]naphthalene-1-carboxamide
@<TRIPOS>ATOM
      1 C1          2.2883    1.8769    4.8172 C.3       1 <0>         0.0223
      2 O1          3.4330    2.7289    4.7408 O.3       1 <0>        -0.2991
      3 C2          3.9092    3.0131    3.4993 C.ar      1 <0>         0.1297
      4 C3          3.2913    2.4869    2.4018 C.ar      1 <0>        -0.1686
      5 C4          3.7825    2.7806    1.1209 C.ar      1 <0>        -0.1023
      6 C5          3.1691    2.2541   -0.0380 C.ar      1 <0>         0.1425
      7 C6          3.7065    2.5927   -1.2673 C.ar      1 <0>        -0.1794
      8 C7          4.8192    3.4222   -1.3277 C.ar      1 <0>         0.1404
      9 N1          5.3847    3.9013   -0.2447 N.ar      1 <0>        -0.4674
     10 C8          4.9176    3.6150    0.9764 C.ar      1 <0>         0.1527
     11 C9          5.5352    4.1366    2.1252 C.ar      1 <0>        -0.1720
     12 C10         5.0299    3.8441    3.3592 C.ar      1 <0>         0.1455
     13 O2          5.6277    4.3559    4.4670 O.3       1 <0>        -0.2993
     14 C11         6.7653    5.1958    4.2608 C.3       1 <0>         0.0207
     15 O3          2.0836    1.4464    0.0515 O.3       1 <0>        -0.2519
     16 C12         0.8582    2.0297    0.1184 C.ar      1 <0>         0.1267
     17 C13         0.7599    3.4219    0.1999 C.ar      1 <0>        -0.1744
     18 C14        -0.4544    4.0338    0.2677 C.ar      1 <0>        -0.0731
     19 C15        -1.6245    3.2617    0.2558 C.ar      1 <0>        -0.0357
     20 C16        -1.5301    1.8512    0.1678 C.ar      1 <0>        -0.0235
     21 C17        -0.2626    1.2484    0.1046 C.ar      1 <0>        -0.1455
     22 C18        -2.7037    1.0771    0.1612 C.ar      1 <0>        -0.0776
     23 C19        -3.9228    1.6826    0.2282 C.ar      1 <0>        -0.1191
     24 C20        -4.0357    3.0647    0.3092 C.ar      1 <0>        -0.0790
     25 C21        -2.9042    3.8671    0.3244 C.ar      1 <0>        -0.1160
     26 C22        -3.0315    5.3337    0.4106 C.2       1 <0>         0.5673
     27 O4         -2.0437    6.0364    0.3145 O.2       1 <0>        -0.5279
     28 N2         -4.2426    5.8954    0.5958 N.am      1 <0>        -0.6961
     29 C23        -4.3690    7.3524    0.6814 C.3       1 <0>         0.0761
     30 C24        -5.2766    7.9197    1.7747 C.3       1 <0>        -0.1912
     31 C25        -5.7199    7.9673    0.3103 C.3       1 <0>        -0.1871
     32 H1          1.4569    2.3364    4.2827 H         1 <0>         0.0578
     33 H2          2.5222    0.9128    4.3655 H         1 <0>         0.0590
     34 H3          2.0127    1.7314    5.8618 H         1 <0>         0.1066
     35 H4          2.4284    1.8480    2.5189 H         1 <0>         0.1457
     36 H5          3.2630    2.2133   -2.1761 H         1 <0>         0.1478
     37 H6          5.2305    3.6795   -2.2926 H         1 <0>         0.1693
     38 H7          6.3990    4.7781    2.0318 H         1 <0>         0.1550
     39 H8          6.4764    6.0576    3.6593 H         1 <0>         0.0610
     40 H9          7.1451    5.5359    5.2242 H         1 <0>         0.1064
     41 H10         7.5421    4.6344    3.7417 H         1 <0>         0.0610
     42 H11         1.6592    4.0199    0.2090 H         1 <0>         0.1285
     43 H12        -0.5160    5.1102    0.3300 H         1 <0>         0.1749
     44 H13        -0.1748    0.1739    0.0409 H         1 <0>         0.1412
     45 H14        -2.6391    0.0009    0.0984 H         1 <0>         0.1357
     46 H15        -4.8170    1.0771    0.2178 H         1 <0>         0.1341
     47 H16        -5.0141    3.5190    0.3612 H         1 <0>         0.1276
     48 H17        -5.0305    5.3348    0.6725 H         1 <0>         0.4021
     49 H18        -3.4721    7.9178    0.4283 H         1 <0>         0.1409
     50 H19        -5.7797    7.2089    2.4302 H         1 <0>         0.0980
     51 H20        -4.9771    8.8585    2.2405 H         1 <0>         0.1050
     52 H21        -5.7118    8.9374   -0.1866 H         1 <0>         0.1063
     53 H22        -6.5145    7.2878    0.0021 H         1 <0>         0.0984
@<TRIPOS>BOND
     1    1    2 1
     2    1   32 1
     3    1   33 1
     4    1   34 1
     5    2    3 1
     6    3   12 ar
     7    3    4 ar
     8    4    5 ar
     9    4   35 1
    10    5   10 ar
    11    5    6 ar
    12    6    7 ar
    13    6   15 1
    14    7    8 ar
    15    7   36 1
    16    8    9 ar
    17    8   37 1
    18    9   10 ar
    19   10   11 ar
    20   11   12 ar
    21   11   38 1
    22   12   13 1
    23   13   14 1
    24   14   39 1
    25   14   40 1
    26   14   41 1
    27   15   16 1
    28   16   21 ar
    29   16   17 ar
    30   17   18 ar
    31   17   42 1
    32   18   19 ar
    33   18   43 1
    34   19   25 ar
    35   19   20 ar
    36   20   21 ar
    37   20   22 ar
    38   21   44 1
    39   22   23 ar
    40   22   45 1
    41   23   24 ar
    42   23   46 1
    43   24   25 ar
    44   24   47 1
    45   25   26 1
    46   26   27 2
    47   26   28 am
    48   28   29 1
    49   28   48 1
    50   29   31 1
    51   29   30 1
    52   29   49 1
    53   30   31 1
    54   30   50 1
    55   30   51 1
    56   31   52 1
    57   31   53 1
@<TRIPOS>MOLECULE
ZINC03834032
   40    42     0     0     0
SMALL
USER_CHARGES
3-[2,4-dimethyl-5-[(2-oxoindolin-3-ylidene)methyl]-1H-pyrrol-3-yl]propanoic acid
@<TRIPOS>ATOM
      1 C1          2.3355    2.0608   -0.1114 C.3       1 <0>        -0.0903
      2 C2          0.8597    2.3235   -0.2670 C.2       1 <0>        -0.0813
      3 C3          0.2566    3.5618   -0.4946 C.2       1 <0>        -0.1584
      4 C4         -1.0833    3.3665   -0.5730 C.2       1 <0>         0.0723
      5 N1         -1.3469    2.0457   -0.4087 N.pl3     1 <0>        -0.5120
      6 H1         -2.2268    1.6378   -0.4247 H         1 <0>         0.4155
      7 C5         -0.1556    1.3809   -0.2113 C.2       1 <0>        -0.0360
      8 C6          0.0021   -0.0041    0.0020 C.2       1 <0>         0.1041
      9 C7         -0.9659   -0.7120    0.6886 C.2       1 <0>        -0.2329
     10 C8         -1.0457   -2.1775    0.8763 C.ar      1 <0>        -0.0833
     11 C9         -0.2455   -3.2373    0.4616 C.ar      1 <0>        -0.0729
     12 C10        -0.5899   -4.5293    0.8035 C.ar      1 <0>        -0.1392
     13 C11        -1.7274   -4.7687    1.5567 C.ar      1 <0>        -0.0940
     14 C12        -2.5279   -3.7246    1.9729 C.ar      1 <0>        -0.1371
     15 C13        -2.1978   -2.4158    1.6381 C.ar      1 <0>         0.1338
     16 N2         -2.8154   -1.2041    1.9219 N.am      1 <0>        -0.6544
     17 C14        -2.1345   -0.1721    1.3953 C.2       1 <0>         0.5549
     18 O1         -2.4356    1.0049    1.4857 O.2       1 <0>        -0.5122
     19 C15        -2.1123    4.4415   -0.8108 C.3       1 <0>        -0.0923
     20 C16         0.9690    4.8829   -0.6298 C.3       1 <0>        -0.0291
     21 C17         1.3229    5.1235   -2.0987 C.3       1 <0>        -0.1463
     22 C18         2.0353    6.4446   -2.2339 C.2       1 <0>         0.4582
     23 O2          2.2389    7.1240   -1.2557 O.co2     1 <0>        -0.6425
     24 H2          2.7719    1.8501   -1.0877 H         1 <0>         0.0707
     25 H3          2.8171    2.9382    0.3202 H         1 <0>         0.0733
     26 H4          2.4847    1.2042    0.5458 H         1 <0>         0.0583
     27 H5          0.8793   -0.5115   -0.3712 H         1 <0>         0.1497
     28 H6          0.6417   -3.0498   -0.1250 H         1 <0>         0.1280
     29 H7          0.0287   -5.3548    0.4836 H         1 <0>         0.1276
     30 H8         -1.9907   -5.7824    1.8204 H         1 <0>         0.1279
     31 H9         -3.4123   -3.9241    2.5598 H         1 <0>         0.1238
     32 H10        -3.6320   -1.1141    2.4377 H         1 <0>         0.4139
     33 H11        -2.2796    4.5537   -1.8820 H         1 <0>         0.0757
     34 H12        -3.0472    4.1636   -0.3242 H         1 <0>         0.0629
     35 H13        -1.7543    5.3847   -0.3982 H         1 <0>         0.0887
     36 H14         0.3193    5.6838   -0.2767 H         1 <0>         0.0653
     37 H15         1.8817    4.8662   -0.0341 H         1 <0>         0.0677
     38 H16         1.9726    4.3226   -2.4518 H         1 <0>         0.0616
     39 H17         0.4102    5.1402   -2.6943 H         1 <0>         0.0597
     40 O3          2.4435    6.8666   -3.4410 O.co2     1 <0>        -0.7797
@<TRIPOS>BOND
     1    1    2 1
     2    1   24 1
     3    1   25 1
     4    1   26 1
     5    2    7 2
     6    2    3 1
     7    3    4 2
     8    3   20 1
     9    4    5 1
    10    4   19 1
    11    5    6 1
    12    5    7 1
    13    7    8 1
    14    8    9 2
    15    8   27 1
    16    9   17 1
    17    9   10 1
    18   10   15 ar
    19   10   11 ar
    20   11   12 ar
    21   11   28 1
    22   12   13 ar
    23   12   29 1
    24   13   14 ar
    25   13   30 1
    26   14   15 ar
    27   14   31 1
    28   15   16 1
    29   16   17 am
    30   16   32 1
    31   17   18 2
    32   19   33 1
    33   19   34 1
    34   19   35 1
    35   20   21 1
    36   20   36 1
    37   20   37 1
    38   21   22 1
    39   21   38 1
    40   21   39 1
    41   22   23 2
    42   22   40 1
@<TRIPOS>MOLECULE
ZINC02047389
   35    37     0     0     0
SMALL
USER_CHARGES
4-(2-amino-4-methyl-thiazol-5-yl)-N-(3-nitrophenyl)-pyrimidin-2-amine
@<TRIPOS>ATOM
      1 C1         -0.3352    9.7451    0.3855 C.3       1 <0>        -0.0905
      2 C2          1.0683   10.2863    0.4765 C.2       1 <0>         0.1892
      3 C3          2.1516    9.4456    0.4437 C.2       1 <0>        -0.2443
      4 S1          3.4879   10.6229    0.5913 S.3       1 <0>         0.0803
      5 C4          2.5163   12.0599    0.6693 C.2       1 <0>         0.3677
      6 N1          1.2883   11.5754    0.5891 N.2       1 <0>        -0.5897
      7 N2          2.9227   13.3752    0.7905 N.pl3     1 <0>        -0.7863
      8 C5          2.1999    7.9776    0.3258 C.ar      1 <0>         0.3332
      9 C6          3.4297    7.3038    0.3117 C.ar      1 <0>        -0.2707
     10 C7          3.4239    5.9278    0.2000 C.ar      1 <0>         0.2012
     11 N3          2.2663    5.2881    0.1154 N.ar      1 <0>        -0.5701
     12 C8          1.1176    5.9489    0.1256 C.ar      1 <0>         0.5646
     13 N4          1.0742    7.2675    0.2311 N.ar      1 <0>        -0.5547
     14 N5         -0.0691    5.2405    0.0290 N.pl3     1 <0>        -0.6363
     15 C9         -0.0510    3.8425    0.0333 C.ar      1 <0>         0.1760
     16 C10        -0.9835    3.1319   -0.7120 C.ar      1 <0>        -0.1004
     17 C11        -0.9631    1.7513   -0.7052 C.ar      1 <0>        -0.0922
     18 C12        -0.0158    1.0757    0.0425 C.ar      1 <0>        -0.0777
     19 C13         0.9104    1.7799    0.7896 C.ar      1 <0>        -0.0222
     20 C14         0.8989    3.1611    0.7830 C.ar      1 <0>        -0.0570
     21 N6          1.9186    1.0527    1.5932 N.pl3     1 <0>         0.0280
     22 O1          1.9320   -0.1652    1.5961 O.2       1 <0>        -0.1580
     23 O2          2.7348    1.6723    2.2515 O.3       1 <0>        -0.1552
     24 H1         -0.7077    9.5307    1.3872 H         1 <0>         0.0791
     25 H2         -0.9794   10.4840   -0.0912 H         1 <0>         0.0712
     26 H3         -0.3338    8.8291   -0.2054 H         1 <0>         0.0997
     27 H4          2.2629   14.0853    0.8267 H         1 <0>         0.4203
     28 H5          3.8677   13.5883    0.8394 H         1 <0>         0.4243
     29 H6          4.3593    7.8485    0.3862 H         1 <0>         0.1461
     30 H7          4.3533    5.3778    0.1861 H         1 <0>         0.1761
     31 H8         -0.9125    5.7144   -0.0416 H         1 <0>         0.4300
     32 H9         -1.7237    3.6588   -1.2958 H         1 <0>         0.1460
     33 H10        -1.6880    1.1983   -1.2841 H         1 <0>         0.1526
     34 H11        -0.0023   -0.0042    0.0464 H         1 <0>         0.1544
     35 H12         1.6253    3.7105    1.3635 H         1 <0>         0.1650
@<TRIPOS>BOND
     1    1    2 1
     2    1   24 1
     3    1   25 1
     4    1   26 1
     5    2    6 1
     6    2    3 2
     7    3    4 1
     8    3    8 1
     9    4    5 1
    10    5    6 2
    11    5    7 1
    12    7   27 1
    13    7   28 1
    14    8   13 ar
    15    8    9 ar
    16    9   10 ar
    17    9   29 1
    18   10   11 ar
    19   10   30 1
    20   11   12 ar
    21   12   13 ar
    22   12   14 1
    23   14   15 1
    24   14   31 1
    25   15   20 ar
    26   15   16 ar
    27   16   17 ar
    28   16   32 1
    29   17   18 ar
    30   17   33 1
    31   18   19 ar
    32   18   34 1
    33   19   20 ar
    34   19   21 1
    35   20   35 1
    36   21   22 2
    37   21   23 1
@<TRIPOS>MOLECULE
ZINC00016978
   36    38     0     0     0
SMALL
USER_CHARGES
N-(3-chloro-4-fluoro-phenyl)-6,7-dimethoxy-quinazolin-4-amine
@<TRIPOS>ATOM
      1 C1         -0.1077    7.8043   -0.3043 C.3       1 <0>         0.0213
      2 O1          1.1553    7.1532   -0.1529 O.3       1 <0>        -0.2997
      3 C2          1.1387    5.8027    0.0050 C.ar      1 <0>         0.1127
      4 C3         -0.0547    5.1381    0.0126 C.ar      1 <0>        -0.1498
      5 C4         -0.0730    3.7479    0.1756 C.ar      1 <0>        -0.1807
      6 C5          1.1438    3.0387    0.3316 C.ar      1 <0>         0.2015
      7 C6          2.3555    3.7401    0.3208 C.ar      1 <0>        -0.1836
      8 C7          2.3465    5.1079    0.1588 C.ar      1 <0>         0.1645
      9 O2          3.5207    5.7910    0.1475 O.3       1 <0>        -0.2967
     10 C8          4.7173    5.0267    0.3088 C.3       1 <0>         0.0198
     11 N1          1.0981    1.7061    0.4867 N.ar      1 <0>        -0.5395
     12 C9         -0.0526    1.0764    0.4931 C.ar      1 <0>         0.3425
     13 N2         -1.2130    1.6959    0.3460 N.ar      1 <0>        -0.5817
     14 C10        -1.2816    3.0117    0.1912 C.ar      1 <0>         0.4638
     15 N3         -2.4991    3.6452    0.0437 N.pl3     1 <0>        -0.6386
     16 C11        -3.6729    2.8905   -0.0548 C.ar      1 <0>         0.1586
     17 C12        -3.6501    1.6464   -0.6722 C.ar      1 <0>        -0.0781
     18 C13        -4.8088    0.9005   -0.7643 C.ar      1 <0>        -0.1189
     19 C14        -5.9954    1.3962   -0.2511 C.ar      1 <0>         0.0951
     20 C15        -6.0222    2.6392    0.3606 C.ar      1 <0>        -0.0539
     21 C16        -4.8635    3.3866    0.4595 C.ar      1 <0>        -0.1144
     22 Cl1        -7.5113    3.2580    1.0036 Cl        1 <0>        -0.0424
     23 F1         -7.1286    0.6668   -0.3466 F         1 <0>        -0.1253
     24 H1          0.0480    8.8767   -0.4213 H         1 <0>         0.1075
     25 H2         -0.6150    7.4125   -1.1859 H         1 <0>         0.0578
     26 H3         -0.7195    7.6202    0.5788 H         1 <0>         0.0576
     27 H4         -0.9797    5.6826   -0.1070 H         1 <0>         0.1396
     28 H5          3.2905    3.2125    0.4383 H         1 <0>         0.1568
     29 H6          4.6901    4.5069    1.2665 H         1 <0>         0.0625
     30 H7          4.7946    4.2980   -0.4981 H         1 <0>         0.0626
     31 H8          5.5801    5.6924    0.2811 H         1 <0>         0.1078
     32 H9         -0.0529    0.0039    0.6197 H         1 <0>         0.1993
     33 H10        -2.5408    4.6137    0.0082 H         1 <0>         0.4219
     34 H11        -2.7259    1.2610   -1.0767 H         1 <0>         0.1541
     35 H12        -4.7901   -0.0685   -1.2408 H         1 <0>         0.1508
     36 H13        -4.8843    4.3556    0.9360 H         1 <0>         0.1453
@<TRIPOS>BOND
     1    1    2 1
     2    1   24 1
     3    1   25 1
     4    1   26 1
     5    2    3 1
     6    3    8 ar
     7    3    4 ar
     8    4    5 ar
     9    4   27 1
    10    5   14 ar
    11    5    6 ar
    12    6    7 ar
    13    6   11 ar
    14    7    8 ar
    15    7   28 1
    16    8    9 1
    17    9   10 1
    18   10   29 1
    19   10   30 1
    20   10   31 1
    21   11   12 ar
    22   12   13 ar
    23   12   32 1
    24   13   14 ar
    25   14   15 1
    26   15   16 1
    27   15   33 1
    28   16   21 ar
    29   16   17 ar
    30   17   18 ar
    31   17   34 1
    32   18   19 ar
    33   18   35 1
    34   19   20 ar
    35   19   23 1
    36   20   21 ar
    37   20   22 1
    38   21   36 1
@<TRIPOS>MOLECULE
ZINC27439698
   59    62     0     0     0
SMALL
USER_CHARGES

@<TRIPOS>ATOM
      1 C1         -0.2063    1.0844    0.8125 C.2       1 <0>        -0.0780
      2 C2         -0.0916   -0.1284    0.2785 C.2       1 <0>        -0.2217
      3 C3          1.1892   -0.8472    0.3546 C.2       1 <0>         0.5464
      4 O1          2.1435   -0.3327    0.9059 O.2       1 <0>        -0.5301
      5 N1          1.3054   -2.0761   -0.1864 N.am      1 <0>        -0.6549
      6 C4          2.5517   -2.7129   -0.2160 C.ar      1 <0>         0.1200
      7 C5          3.7048   -1.9595   -0.1827 C.ar      1 <0>        -0.0579
      8 C6          4.9490   -2.5997   -0.2120 C.ar      1 <0>        -0.1974
      9 C7          5.0154   -4.0138   -0.2753 C.ar      1 <0>         0.2129
     10 C8          3.8313   -4.7603   -0.3083 C.ar      1 <0>        -0.1947
     11 C9          2.6164   -4.1137   -0.2734 C.ar      1 <0>         0.1622
     12 O2          1.4681   -4.8389   -0.3002 O.3       1 <0>        -0.3093
     13 C10         1.5999   -6.2606   -0.3586 C.3       1 <0>         0.0588
     14 C11         0.2106   -6.9010   -0.3813 C.3       1 <0>        -0.1156
     15 C12         0.3517   -8.4232   -0.4438 C.3       1 <0>         0.0578
     16 N2         -0.9822   -9.0382   -0.4657 N.3       1 <0>        -0.5360
     17 C13        -1.6880   -8.8108    0.8038 C.3       1 <0>         0.0125
     18 C14        -3.0921   -9.4148    0.7161 C.3       1 <0>         0.0626
     19 O3         -2.9885  -10.8047    0.3955 O.3       1 <0>        -0.3850
     20 C15        -2.3071  -11.0626   -0.8351 C.3       1 <0>         0.0628
     21 C16        -0.8951  -10.4753   -0.7631 C.3       1 <0>         0.0171
     22 N3          6.2221   -4.6015   -0.3018 N.ar      1 <0>        -0.5452
     23 C17         7.3156   -3.8777   -0.2694 C.ar      1 <0>         0.3493
     24 N4          7.3023   -2.5556   -0.2097 N.ar      1 <0>        -0.5859
     25 C18         6.1642   -1.8746   -0.1796 C.ar      1 <0>         0.4714
     26 N5          6.1650   -0.4957   -0.1182 N.pl3     1 <0>        -0.6328
     27 C19         7.3694    0.2084   -0.2227 C.ar      1 <0>         0.1581
     28 C20         7.5013    1.4536    0.3785 C.ar      1 <0>        -0.1169
     29 C21         8.6911    2.1472    0.2750 C.ar      1 <0>        -0.1176
     30 C22         9.7524    1.6027   -0.4280 C.ar      1 <0>         0.0901
     31 C23         9.6235    0.3609   -1.0292 C.ar      1 <0>        -0.0524
     32 C24         8.4363   -0.3392   -0.9225 C.ar      1 <0>        -0.0856
     33 Cl1        10.9555   -0.3188   -1.9109 Cl        1 <0>        -0.0424
     34 F1         10.9152    2.2833   -0.5284 F         1 <0>        -0.1264
     35 H1          0.6411    1.5413    1.3020 H         1 <0>         0.1166
     36 H2         -1.1456    1.6141    0.7527 H         1 <0>         0.1209
     37 H3         -0.9390   -0.5853   -0.2110 H         1 <0>         0.1323
     38 H4          0.5255   -2.5194   -0.5554 H         1 <0>         0.4201
     39 H5          3.6489   -0.8820   -0.1348 H         1 <0>         0.1596
     40 H6          3.8708   -5.8385   -0.3565 H         1 <0>         0.1517
     41 H7          2.1429   -6.5383   -1.2620 H         1 <0>         0.0720
     42 H8          2.1473   -6.6110    0.5165 H         1 <0>         0.0691
     43 H9         -0.3323   -6.6233    0.5221 H         1 <0>         0.0760
     44 H10        -0.3367   -6.5506   -1.2564 H         1 <0>         0.0860
     45 H11         0.8947   -8.7010   -1.3473 H         1 <0>         0.0821
     46 H12         0.8990   -8.7736    0.4312 H         1 <0>         0.0409
     47 H13        -1.1377   -9.2854    1.6162 H         1 <0>         0.0448
     48 H14        -1.7636   -7.7398    0.9914 H         1 <0>         0.0895
     49 H15        -3.5986   -9.2990    1.6743 H         1 <0>         0.0993
     50 H16        -3.6604   -8.9035   -0.0609 H         1 <0>         0.0609
     51 H17        -2.2459  -12.1385   -0.9988 H         1 <0>         0.1001
     52 H18        -2.8525  -10.5991   -1.6572 H         1 <0>         0.0612
     53 H19        -0.3918  -10.6192   -1.7193 H         1 <0>         0.0886
     54 H20        -0.3321  -10.9764    0.0243 H         1 <0>         0.0452
     55 H21         8.2696   -4.3834   -0.2921 H         1 <0>         0.1993
     56 H22         5.3306   -0.0149   -0.0027 H         1 <0>         0.4275
     57 H23         6.6738    1.8794    0.9265 H         1 <0>         0.1431
     58 H24         8.7936    3.1154    0.7424 H         1 <0>         0.1506
     59 H25         8.3373   -1.3092   -1.3869 H         1 <0>         0.1663
@<TRIPOS>BOND
     1    1    2 2
     2    1   35 1
     3    1   36 1
     4    2    3 1
     5    2   37 1
     6    3    4 2
     7    3    5 am
     8    5    6 1
     9    5   38 1
    10    6   11 ar
    11    6    7 ar
    12    7    8 ar
    13    7   39 1
    14    8   25 ar
    15    8    9 ar
    16    9   10 ar
    17    9   22 ar
    18   10   11 ar
    19   10   40 1
    20   11   12 1
    21   12   13 1
    22   13   14 1
    23   13   41 1
    24   13   42 1
    25   14   15 1
    26   14   43 1
    27   14   44 1
    28   15   16 1
    29   15   45 1
    30   15   46 1
    31   16   21 1
    32   16   17 1
    33   17   18 1
    34   17   47 1
    35   17   48 1
    36   18   19 1
    37   18   49 1
    38   18   50 1
    39   19   20 1
    40   20   21 1
    41   20   51 1
    42   20   52 1
    43   21   53 1
    44   21   54 1
    45   22   23 ar
    46   23   24 ar
    47   23   55 1
    48   24   25 ar
    49   25   26 1
    50   26   27 1
    51   26   56 1
    52   27   32 ar
    53   27   28 ar
    54   28   29 ar
    55   28   57 1
    56   29   30 ar
    57   29   58 1
    58   30   31 ar
    59   30   34 1
    60   31   32 ar
    61   31   33 1
    62   32   59 1
@<TRIPOS>MOLECULE
ZINC06718665
   73    77     0     0     0
SMALL
USER_CHARGES
N-(2,6-diethylphenyl)-2-[4-(4-methylpiperazin-1-yl)benzoyl]amino-3,4,7-triazabicyclo[3.3.0]octa-2,9-diene-7-carboxamide
@<TRIPOS>ATOM
      1 C1         -5.3630    0.4217  -17.6839 C.3       1 <0>        -0.1472
      2 C2         -6.2129    1.2204  -16.6937 C.3       1 <0>        -0.0850
      3 C3         -6.6394    0.3236  -15.5602 C.ar      1 <0>        -0.0874
      4 C4         -7.9145   -0.2068  -15.5405 C.ar      1 <0>        -0.1129
      5 C5         -8.3084   -1.0252  -14.4978 C.ar      1 <0>        -0.1138
      6 C6         -7.4261   -1.3194  -13.4746 C.ar      1 <0>        -0.1169
      7 C7         -6.1479   -0.7964  -13.4911 C.ar      1 <0>        -0.0609
      8 C8         -5.7492    0.0258  -14.5368 C.ar      1 <0>         0.1492
      9 N1         -4.4550    0.5577  -14.5563 N.am      1 <0>        -0.6806
     10 C9         -3.9934    1.2465  -13.4938 C.2       1 <0>         0.7340
     11 O1         -4.7170    1.4451  -12.5371 O.2       1 <0>        -0.5470
     12 N2         -2.7297    1.7151  -13.4917 N.am      1 <0>        -0.6287
     13 C10        -2.0760    2.4783  -12.4224 C.3       1 <0>         0.2127
     14 C11        -0.6691    2.7783  -12.8746 C.2       1 <0>        -0.2831
     15 C12        -0.4724    2.2529  -14.1017 C.2       1 <0>         0.0787
     16 N3          0.7948    2.5386  -14.4774 N.pl3     1 <0>        -0.4408
     17 H1          1.2257    2.2737  -15.3400 H         1 <0>         0.4549
     18 N4          1.3979    3.2702  -13.4471 N.2       1 <0>        -0.2467
     19 C13         0.5233    3.4119  -12.4800 C.2       1 <0>         0.3343
     20 N5          0.7372    4.0822  -11.2686 N.am      1 <0>        -0.6346
     21 C14         1.9333    4.6487  -11.0140 C.2       1 <0>         0.5511
     22 O2          2.8269    4.5782  -11.8359 O.2       1 <0>        -0.4789
     23 C15         2.1586    5.3544   -9.7385 C.ar      1 <0>        -0.1395
     24 C16         3.3987    5.9427   -9.4730 C.ar      1 <0>        -0.0271
     25 C17         3.6056    6.6007   -8.2823 C.ar      1 <0>        -0.1357
     26 C18         2.5815    6.6810   -7.3426 C.ar      1 <0>         0.1171
     27 C19         1.3471    6.0917   -7.6018 C.ar      1 <0>        -0.1702
     28 C20         1.1322    5.4368   -8.7928 C.ar      1 <0>        -0.0556
     29 N6          2.7939    7.3463   -6.1401 N.pl3     1 <0>        -0.4879
     30 C21         1.5892    7.3117   -5.2992 C.3       1 <0>         0.0172
     31 C22         1.8880    7.9831   -3.9567 C.3       1 <0>         0.0017
     32 C23         3.5288    9.4015   -5.0312 C.3       1 <0>         0.0014
     33 C24         3.2300    8.7301   -6.3737 C.3       1 <0>         0.0240
     34 C25         2.5489   10.0693   -2.9193 C.3       1 <0>        -0.0410
     35 C26        -1.7333    1.5637  -14.5584 C.3       1 <0>         0.1762
     36 C27        -5.1871   -1.1172  -12.3754 C.3       1 <0>        -0.1129
     37 C28        -5.9728   -1.4415  -11.1032 C.3       1 <0>        -0.1457
     38 H2         -4.5276   -0.0390  -17.1567 H         1 <0>         0.0477
     39 H3         -5.9745   -0.3543  -18.1443 H         1 <0>         0.0614
     40 H4         -4.9812    1.0895  -18.4563 H         1 <0>         0.0614
     41 H5         -7.0957    1.6078  -17.2025 H         1 <0>         0.0766
     42 H6         -5.6272    2.0508  -16.2994 H         1 <0>         0.0694
     43 H7         -8.6059    0.0211  -16.3382 H         1 <0>         0.1262
     44 H8         -9.3075   -1.4351  -14.4824 H         1 <0>         0.1252
     45 H9         -7.7368   -1.9586  -12.6614 H         1 <0>         0.1300
     46 H10        -3.8901    0.4307  -15.3346 H         1 <0>         0.4040
     47 H11        -2.0522    1.8869  -11.5070 H         1 <0>         0.0786
     48 H12        -2.6149    3.4094  -12.2474 H         1 <0>         0.0783
     49 H13         0.0245    4.1384  -10.6130 H         1 <0>         0.4201
     50 H14         4.1934    5.8810  -10.2017 H         1 <0>         0.1475
     51 H15         4.5632    7.0557   -8.0766 H         1 <0>         0.1377
     52 H16         0.5561    6.1519   -6.8689 H         1 <0>         0.1361
     53 H17         0.1731    4.9834   -8.9951 H         1 <0>         0.1341
     54 H18         1.2933    6.2763   -5.1301 H         1 <0>         0.1318
     55 H19         0.7806    7.8441   -5.8001 H         1 <0>         0.0745
     56 H20         0.9876    7.9844   -3.3423 H         1 <0>         0.1394
     57 H21         2.6776    7.4344   -3.4434 H         1 <0>         0.1411
     58 H22         4.3373    8.8691   -4.5303 H         1 <0>         0.1414
     59 H23         3.8250   10.4368   -5.2003 H         1 <0>         0.1395
     60 H24         4.1304    8.7288   -6.9880 H         1 <0>         0.1307
     61 H25         2.4402    9.2785   -6.8872 H         1 <0>         0.0728
     62 H26         3.3198    9.5511   -2.3490 H         1 <0>         0.1249
     63 H27         2.8710   11.0909   -3.1209 H         1 <0>         0.1237
     64 H28         1.6224   10.0870   -2.3453 H         1 <0>         0.1236
     65 H29        -1.5349    0.5061  -14.7321 H         1 <0>         0.0936
     66 H30        -2.0990    2.0269  -15.4748 H         1 <0>         0.0932
     67 H31        -4.5787   -1.9770  -12.6557 H         1 <0>         0.0646
     68 H32        -4.5408   -0.2583  -12.1942 H         1 <0>         0.1060
     69 H33        -6.4699   -0.5405  -10.7436 H         1 <0>         0.0576
     70 H34        -6.7189   -2.2054  -11.3218 H         1 <0>         0.0549
     71 H35        -5.2894   -1.8094  -10.3379 H         1 <0>         0.0527
     72 N7          2.3038    9.3796   -4.2040 N.4       1 <0>        -0.4004
     73 H36         1.5530    9.8674   -4.7066 H         1 <0>         0.4277
@<TRIPOS>BOND
     1    1    2 1
     2    1   38 1
     3    1   39 1
     4    1   40 1
     5    2    3 1
     6    2   41 1
     7    2   42 1
     8    3    8 ar
     9    3    4 ar
    10    4    5 ar
    11    4   43 1
    12    5    6 ar
    13    5   44 1
    14    6    7 ar
    15    6   45 1
    16    7    8 ar
    17    7   36 1
    18    8    9 1
    19    9   10 am
    20    9   46 1
    21   10   11 2
    22   10   12 am
    23   12   35 1
    24   12   13 1
    25   13   14 1
    26   13   47 1
    27   13   48 1
    28   14   19 1
    29   14   15 2
    30   15   16 1
    31   15   35 1
    32   16   17 1
    33   16   18 1
    34   18   19 2
    35   19   20 1
    36   20   21 am
    37   20   49 1
    38   21   22 2
    39   21   23 1
    40   23   28 ar
    41   23   24 ar
    42   24   25 ar
    43   24   50 1
    44   25   26 ar
    45   25   51 1
    46   26   27 ar
    47   26   29 1
    48   27   28 ar
    49   27   52 1
    50   28   53 1
    51   29   33 1
    52   29   30 1
    53   30   31 1
    54   30   54 1
    55   30   55 1
    56   31   56 1
    57   31   57 1
    58   31   72 1
    59   32   33 1
    60   32   58 1
    61   32   59 1
    62   32   72 1
    63   33   60 1
    64   33   61 1
    65   34   62 1
    66   34   63 1
    67   34   64 1
    68   34   72 1
    69   35   65 1
    70   35   66 1
    71   36   37 1
    72   36   67 1
    73   36   68 1
    74   37   69 1
    75   37   70 1
    76   37   71 1
    77   72   73 1
@<TRIPOS>MOLECULE
ZINC00590935
   50    53     0     0     0
SMALL
USER_CHARGES
N-[4-(6,7-dimethoxyquinazolin-4-yl)aminophenyl]benzamide
@<TRIPOS>ATOM
      1 C1          5.4407    3.3000    1.3439 C.3       1 <0>         0.0219
      2 O1          4.4707    4.0604    0.6209 O.3       1 <0>        -0.3007
      3 C2          3.5212    3.3633   -0.0586 C.ar      1 <0>         0.1085
      4 C3          3.5316    1.9977   -0.0240 C.ar      1 <0>        -0.1468
      5 C4          2.5549    1.2791   -0.7235 C.ar      1 <0>        -0.1844
      6 C5          1.5625    1.9703   -1.4620 C.ar      1 <0>         0.2015
      7 C6          1.5706    3.3702   -1.4832 C.ar      1 <0>        -0.1839
      8 C7          2.5427    4.0539   -0.7870 C.ar      1 <0>         0.1628
      9 O2          2.5531    5.4123   -0.8062 O.3       1 <0>        -0.2977
     10 C8          1.5300    6.0582   -1.5664 C.3       1 <0>         0.0203
     11 N1          0.6373    1.2571   -2.1233 N.ar      1 <0>        -0.5445
     12 C9          0.6550   -0.0540   -2.0841 C.ar      1 <0>         0.3438
     13 N2          1.5616   -0.7418   -1.4083 N.ar      1 <0>        -0.5789
     14 C10         2.5205   -0.1358   -0.7203 C.ar      1 <0>         0.4648
     15 N3          3.4598   -0.8656   -0.0204 N.pl3     1 <0>        -0.6386
     16 C11         3.3450   -2.2580    0.0615 C.ar      1 <0>         0.1390
     17 C12         2.0893   -2.8514    0.0833 C.ar      1 <0>        -0.0909
     18 C13         1.9763   -4.2252    0.1573 C.ar      1 <0>        -0.0971
     19 C14         3.1180   -5.0133    0.2228 C.ar      1 <0>         0.1281
     20 C15         4.3735   -4.4198    0.2072 C.ar      1 <0>        -0.1221
     21 C16         4.4868   -3.0464    0.1266 C.ar      1 <0>        -0.1284
     22 N4          3.0032   -6.4065    0.3042 N.am      1 <0>        -0.6695
     23 C17         2.0140   -7.0408   -0.3558 C.2       1 <0>         0.5594
     24 O3          1.1707   -6.3983   -0.9507 O.2       1 <0>        -0.5126
     25 C18         1.9545   -8.5178   -0.3564 C.ar      1 <0>        -0.1386
     26 C19         2.9246   -9.2587    0.3208 C.ar      1 <0>        -0.0866
     27 C20         2.8605  -10.6367    0.3203 C.ar      1 <0>        -0.1268
     28 C21         1.8436  -11.2848   -0.3583 C.ar      1 <0>        -0.0902
     29 C22         0.8820  -10.5565   -1.0359 C.ar      1 <0>        -0.1263
     30 C23         0.9314   -9.1779   -1.0390 C.ar      1 <0>        -0.0566
     31 H1          6.1372    3.9765    1.8391 H         1 <0>         0.1065
     32 H2          4.9377    2.6858    2.0909 H         1 <0>         0.0572
     33 H3          5.9870    2.6575    0.6534 H         1 <0>         0.0569
     34 H4          4.2896    1.4750    0.5405 H         1 <0>         0.1388
     35 H5          0.8204    3.9100   -2.0419 H         1 <0>         0.1556
     36 H6          1.6029    5.7500   -2.6094 H         1 <0>         0.0620
     37 H7          0.5530    5.7783   -1.1723 H         1 <0>         0.0620
     38 H8          1.6536    7.1390   -1.4975 H         1 <0>         0.1070
     39 H9         -0.1041   -0.5965   -2.6279 H         1 <0>         0.1976
     40 H10         4.1995   -0.4136    0.4148 H         1 <0>         0.4181
     41 H11         1.2014   -2.2382    0.0372 H         1 <0>         0.1420
     42 H12         1.0000   -4.6868    0.1687 H         1 <0>         0.1424
     43 H13         5.2613   -5.0328    0.2578 H         1 <0>         0.1299
     44 H14         5.4632   -2.5849    0.1137 H         1 <0>         0.1286
     45 H15         3.6356   -6.9150    0.8356 H         1 <0>         0.4097
     46 H16         3.7211   -8.7541    0.8474 H         1 <0>         0.1255
     47 H17         3.6082  -11.2111    0.8470 H         1 <0>         0.1310
     48 H18         1.8002  -12.3639   -0.3587 H         1 <0>         0.1296
     49 H19         0.0907  -11.0685   -1.5633 H         1 <0>         0.1325
     50 H20         0.1803   -8.6106   -1.5686 H         1 <0>         0.1382
@<TRIPOS>BOND
     1    1    2 1
     2    1   31 1
     3    1   32 1
     4    1   33 1
     5    2    3 1
     6    3    8 ar
     7    3    4 ar
     8    4    5 ar
     9    4   34 1
    10    5   14 ar
    11    5    6 ar
    12    6    7 ar
    13    6   11 ar
    14    7    8 ar
    15    7   35 1
    16    8    9 1
    17    9   10 1
    18   10   36 1
    19   10   37 1
    20   10   38 1
    21   11   12 ar
    22   12   13 ar
    23   12   39 1
    24   13   14 ar
    25   14   15 1
    26   15   16 1
    27   15   40 1
    28   16   21 ar
    29   16   17 ar
    30   17   18 ar
    31   17   41 1
    32   18   19 ar
    33   18   42 1
    34   19   20 ar
    35   19   22 1
    36   20   21 ar
    37   20   43 1
    38   21   44 1
    39   22   23 am
    40   22   45 1
    41   23   24 2
    42   23   25 1
    43   25   30 ar
    44   25   26 ar
    45   26   27 ar
    46   26   46 1
    47   27   28 ar
    48   27   47 1
    49   28   29 ar
    50   28   48 1
    51   29   30 ar
    52   29   49 1
    53   30   50 1
@<TRIPOS>MOLECULE
ZINC14951647
   66    70     0     0     0
SMALL
USER_CHARGES

@<TRIPOS>ATOM
      1 C1         -0.0389    1.4645   -0.0020 C.3       1 <0>        -0.0472
      2 N1         -0.0082   -0.0042   -0.0039 N.4       1 <0>        -0.3844
      3 C2         -1.3826   -0.5207   -0.0148 C.3       1 <0>        -0.0233
      4 C3         -1.3523   -2.0482   -0.1323 C.3       1 <0>         0.0948
      5 N2         -0.5114   -2.5826    0.9500 N.pl3     1 <0>        -0.6396
      6 C4          0.8282   -2.0042    1.1370 C.3       1 <0>         0.0958
      7 C5          0.6949   -0.4788    1.1947 C.3       1 <0>        -0.0229
      8 C6         -0.9699   -3.6051    1.7732 C.ar      1 <0>         0.2274
      9 C7         -2.2804   -4.0593    1.6524 C.ar      1 <0>        -0.1950
     10 C8         -2.7374   -5.0708    2.4658 C.ar      1 <0>        -0.0040
     11 C9         -1.8839   -5.6427    3.4140 C.ar      1 <0>        -0.1717
     12 C10        -0.5684   -5.1847    3.5326 C.ar      1 <0>        -0.0339
     13 C11        -0.1159   -4.1765    2.7125 C.ar      1 <0>        -0.1936
     14 C12        -2.3706   -6.7267    4.2879 C.2       1 <0>         0.5543
     15 O1         -3.5154   -7.1239    4.1840 O.2       1 <0>        -0.4844
     16 N3         -1.5467   -7.2771    5.2015 N.am      1 <0>        -0.6362
     17 C13        -2.0090   -8.3066    6.0315 C.2       1 <0>         0.3360
     18 C14        -1.2629   -8.9639    7.0266 C.2       1 <0>        -0.2836
     19 C15        -2.0615   -9.8877    7.6006 C.2       1 <0>         0.0772
     20 N4         -3.2700   -9.8243    6.9971 N.pl3     1 <0>        -0.4390
     21 H1         -4.0412  -10.3741    7.2066 H         1 <0>         0.4475
     22 N5         -3.2148   -8.8225    6.0205 N.2       1 <0>        -0.2478
     23 C16        -1.2931  -10.6143    8.6754 C.3       1 <0>         0.1668
     24 N6          0.0602  -10.0480    8.7093 N.am      1 <0>        -0.6085
     25 C17         0.0971   -9.0062    7.6765 C.3       1 <0>         0.1922
     26 C18         1.0683  -10.4119    9.5265 C.2       1 <0>         0.5249
     27 O2          2.1435   -9.8564    9.4477 O.2       1 <0>        -0.5058
     28 C19         0.8595  -11.5091   10.5383 C.3       1 <0>         0.1234
     29 H2          0.5057  -12.4074   10.0323 H         1 <0>         0.0972
     30 C20        -0.1637  -11.0684   11.5532 C.ar      1 <0>        -0.0973
     31 C21         0.2052  -10.2264   12.5857 C.ar      1 <0>        -0.0814
     32 C22        -0.7333   -9.8222   13.5167 C.ar      1 <0>        -0.1178
     33 C23        -2.0407  -10.2595   13.4149 C.ar      1 <0>        -0.1072
     34 C24        -2.4097  -11.1007   12.3819 C.ar      1 <0>        -0.1200
     35 C25        -1.4722  -11.5015   11.4485 C.ar      1 <0>        -0.1143
     36 O3          2.0953  -11.7897   11.1986 O.3       1 <0>        -0.3486
     37 C26         2.8813  -12.7964   10.5577 C.3       1 <0>         0.0261
     38 H3          0.9809    1.8492   -0.0020 H         1 <0>         0.1258
     39 H4         -0.5606    1.8181   -0.8913 H         1 <0>         0.1258
     40 H5         -0.5598    1.8158    0.8886 H         1 <0>         0.1221
     41 H6         -1.8847   -0.2373    0.9103 H         1 <0>         0.1336
     42 H7         -1.9217   -0.1015   -0.8643 H         1 <0>         0.1430
     43 H8         -2.3640   -2.4429   -0.0390 H         1 <0>         0.1299
     44 H9         -0.9324   -2.3330   -1.0971 H         1 <0>         0.0921
     45 H10         1.2581   -2.3698    2.0695 H         1 <0>         0.1290
     46 H11         1.4683   -2.2845    0.3005 H         1 <0>         0.0916
     47 H12         1.6868   -0.0286    1.2363 H         1 <0>         0.1429
     48 H13         0.1300   -0.1967    2.0831 H         1 <0>         0.1334
     49 H14        -2.9392   -3.6171    0.9197 H         1 <0>         0.1325
     50 H15        -3.7543   -5.4222    2.3721 H         1 <0>         0.1443
     51 H16         0.0933   -5.6245    4.2641 H         1 <0>         0.1325
     52 H17         0.9015   -3.8250    2.8008 H         1 <0>         0.1323
     53 H18        -0.6337   -6.9603    5.2844 H         1 <0>         0.4195
     54 H19        -1.7793  -10.4692    9.6401 H         1 <0>         0.1069
     55 H20        -1.2437  -11.6775    8.4405 H         1 <0>         0.0944
     56 H21         0.8554   -9.2496    6.9323 H         1 <0>         0.0785
     57 H22         0.3198   -8.0413    8.1319 H         1 <0>         0.0782
     58 H23         1.2266   -9.8848   12.6652 H         1 <0>         0.1309
     59 H24        -0.4450   -9.1650   14.3237 H         1 <0>         0.1275
     60 H25        -2.7738   -9.9442   14.1427 H         1 <0>         0.1263
     61 H26        -3.4311  -11.4426   12.3026 H         1 <0>         0.1284
     62 H27        -1.7613  -12.1558   10.6393 H         1 <0>         0.1262
     63 H28         3.1234  -12.4776    9.5439 H         1 <0>         0.0469
     64 H29         3.8023  -12.9509   11.1198 H         1 <0>         0.0969
     65 H30         2.3176  -13.7286   10.5206 H         1 <0>         0.0473
     66 H31         0.4768   -0.3282   -0.8272 H         1 <0>         0.4252
@<TRIPOS>BOND
     1    1    2 1
     2    1   38 1
     3    1   39 1
     4    1   40 1
     5    2    7 1
     6    2    3 1
     7    2   66 1
     8    3    4 1
     9    3   41 1
    10    3   42 1
    11    4    5 1
    12    4   43 1
    13    4   44 1
    14    5    6 1
    15    5    8 1
    16    6    7 1
    17    6   45 1
    18    6   46 1
    19    7   47 1
    20    7   48 1
    21    8   13 ar
    22    8    9 ar
    23    9   10 ar
    24    9   49 1
    25   10   11 ar
    26   10   50 1
    27   11   12 ar
    28   11   14 1
    29   12   13 ar
    30   12   51 1
    31   13   52 1
    32   14   15 2
    33   14   16 am
    34   16   17 1
    35   16   53 1
    36   17   22 2
    37   17   18 1
    38   18   25 1
    39   18   19 2
    40   19   20 1
    41   19   23 1
    42   20   21 1
    43   20   22 1
    44   23   24 1
    45   23   54 1
    46   23   55 1
    47   24   25 1
    48   24   26 am
    49   25   56 1
    50   25   57 1
    51   26   27 2
    52   26   28 1
    53   28   29 1
    54   28   30 1
    55   28   36 1
    56   30   35 ar
    57   30   31 ar
    58   31   32 ar
    59   31   58 1
    60   32   33 ar
    61   32   59 1
    62   33   34 ar
    63   33   60 1
    64   34   35 ar
    65   34   61 1
    66   35   62 1
    67   36   37 1
    68   37   63 1
    69   37   64 1
    70   37   65 1
@<TRIPOS>MOLECULE
ZINC14779318
   32    35     0     0     0
SMALL
USER_CHARGES
dihydroxy-methoxy-BLAHone
@<TRIPOS>ATOM
      1 C1          4.1070    2.5394   -1.2965 C.3       1 <0>         0.0299
      2 O1          3.5705    2.1853   -0.0203 O.3       1 <0>        -0.3219
      3 C2          2.4248    1.4585   -0.0138 C.ar      1 <0>         0.1293
      4 C3          1.1809    2.0920    0.0020 C.ar      1 <0>         0.0853
      5 C4         -0.0168    1.3864    0.0097 C.ar      1 <0>        -0.0292
      6 C5          0.0021   -0.0041    0.0020 C.ar      1 <0>        -0.1465
      7 C6          1.2569   -0.6254   -0.0134 C.ar      1 <0>        -0.0770
      8 C7          2.4679    0.0596   -0.0214 C.ar      1 <0>        -0.0292
      9 C8          3.6802   -0.7599   -0.0377 C.ar      1 <0>        -0.0230
     10 C9          4.9538   -0.1962   -0.0473 C.ar      1 <0>        -0.1334
     11 C10         6.0641   -1.0174   -0.0628 C.ar      1 <0>         0.1139
     12 C11         5.9141   -2.4048   -0.0697 C.ar      1 <0>        -0.1331
     13 C12         4.6789   -2.9760   -0.0607 C.ar      1 <0>        -0.0856
     14 C13         3.5265   -2.1711   -0.0443 C.ar      1 <0>        -0.0376
     15 C14         2.2461   -2.7753   -0.0351 C.ar      1 <0>        -0.0942
     16 C15         1.1129   -2.0186   -0.0198 C.ar      1 <0>         0.1426
     17 N1         -0.2561   -2.2769   -0.0080 N.am      1 <0>        -0.6534
     18 C16        -0.9550   -1.1133    0.0053 C.2       1 <0>         0.5790
     19 O2         -2.1679   -1.0094    0.0177 O.2       1 <0>        -0.4860
     20 O3          7.3085   -0.4719   -0.0717 O.3       1 <0>        -0.4949
     21 O4          1.1391    3.4516    0.0092 O.3       1 <0>        -0.4850
     22 H1          4.3315    1.6339   -1.8602 H         1 <0>         0.0515
     23 H2          3.3781    3.1369   -1.8440 H         1 <0>         0.0587
     24 H3          5.0208    3.1175   -1.1588 H         1 <0>         0.1041
     25 H4         -0.9581    1.9158    0.0170 H         1 <0>         0.1529
     26 H5          5.0724    0.8773   -0.0426 H         1 <0>         0.1531
     27 H6          6.7913   -3.0346   -0.0827 H         1 <0>         0.1348
     28 H7          4.5836   -4.0518   -0.0666 H         1 <0>         0.1373
     29 H8          2.1663   -3.8523   -0.0407 H         1 <0>         0.1390
     30 H9         -0.6531   -3.1620   -0.0091 H         1 <0>         0.4265
     31 H10         7.6600   -0.3086   -0.9577 H         1 <0>         0.3932
     32 H11         1.1353    3.8403    0.8946 H         1 <0>         0.3986
@<TRIPOS>BOND
     1    1    2 1
     2    1   22 1
     3    1   23 1
     4    1   24 1
     5    2    3 1
     6    3    8 ar
     7    3    4 ar
     8    4    5 ar
     9    4   21 1
    10    5    6 ar
    11    5   25 1
    12    6   18 1
    13    6    7 ar
    14    7   16 ar
    15    7    8 ar
    16    8    9 ar
    17    9   14 ar
    18    9   10 ar
    19   10   11 ar
    20   10   26 1
    21   11   12 ar
    22   11   20 1
    23   12   13 ar
    24   12   27 1
    25   13   14 ar
    26   13   28 1
    27   14   15 ar
    28   15   16 ar
    29   15   29 1
    30   16   17 1
    31   17   18 am
    32   17   30 1
    33   18   19 2
    34   20   31 1
    35   21   32 1
@<TRIPOS>MOLECULE
ZINC28824607
   59    63     0     0     0
SMALL
USER_CHARGES

@<TRIPOS>ATOM
      1 C1         -0.0178    1.4608    0.0101 C.3       1 <0>         0.0872
      2 N1          0.0021   -0.0041    0.0020 N.pl3     1 <0>        -0.6297
      3 C2          0.0241   -0.7433    1.2666 C.3       1 <0>         0.0893
      4 C3          0.0000   -0.6942   -1.2084 C.ar      1 <0>         0.2395
      5 C4          0.0131   -2.0853   -1.2144 C.ar      1 <0>        -0.1982
      6 C5          0.0111   -2.7702   -2.4092 C.ar      1 <0>        -0.0082
      7 C6         -0.0046   -2.0667   -3.6157 C.ar      1 <0>        -0.1073
      8 C7         -0.0182   -0.6701   -3.6065 C.ar      1 <0>        -0.0429
      9 C8         -0.0209    0.0092   -2.4085 C.ar      1 <0>        -0.1998
     10 C9         -0.0063   -2.7985   -4.8991 C.2       1 <0>         0.3759
     11 N2          0.0055   -4.1047   -5.0243 N.2       1 <0>        -0.4796
     12 H1         -0.0418   -1.2665   -6.3280 H         1 <0>         0.4221
     13 C10        -0.0002   -4.4401   -6.3311 C.ar      1 <0>         0.2679
     14 C11        -0.0168   -3.2427   -7.0640 C.ar      1 <0>        -0.0021
     15 N3         -0.0264   -2.2174   -6.1369 N.pl3     1 <0>        -0.5852
     16 C12        -0.0263   -3.2927   -8.4584 C.ar      1 <0>         0.2431
     17 C13        -0.0188   -4.5449   -9.0702 C.ar      1 <0>        -0.0973
     18 C14        -0.0023   -5.6835   -8.2843 C.ar      1 <0>         0.1428
     19 N4          0.0064   -5.6116   -6.9696 N.ar      1 <0>        -0.4351
     20 Cl1        -0.0305   -4.6749  -10.8013 Cl        1 <0>        -0.0354
     21 N5         -0.0434   -2.1240   -9.2176 N.pl3     1 <0>        -0.6751
     22 C15        -1.3148   -1.5002   -9.6146 C.3       1 <0>         0.1499
     23 C16        -1.2715   -0.0181   -9.2277 C.3       1 <0>         0.0440
     24 N6         -0.0698    0.6001   -9.8036 N.3       1 <0>        -0.5156
     25 C17         1.1535   -0.0005   -9.2550 C.3       1 <0>         0.0379
     26 C18         1.2096   -1.4785   -9.6378 C.3       1 <0>         0.1527
     27 C19        -0.0781    2.0552   -9.6018 C.3       1 <0>         0.0427
     28 C20         1.0303    2.6806  -10.4089 C.2       1 <0>         0.5053
     29 O1          1.7557    1.9829  -11.0856 O.2       1 <0>        -0.4448
     30 N7          1.2154    4.0152  -10.3787 N.am      1 <0>        -0.6258
     31 C21         2.2378    4.5921  -11.1231 C.2       1 <0>         0.2723
     32 N8          3.1096    4.0004  -11.9107 N.2       1 <0>        -0.5214
     33 C22         4.0286    4.6953  -12.5551 C.2       1 <0>         0.0629
     34 C23         4.0303    6.0379  -12.3671 C.2       1 <0>        -0.2429
     35 S1          2.6562    6.2180  -11.2414 S.3       1 <0>         0.1046
     36 H2          1.0048    1.8381    0.0023 H         1 <0>         0.0528
     37 H3         -0.5450    1.8219   -0.8730 H         1 <0>         0.0706
     38 H4         -0.5280    1.8123    0.9069 H         1 <0>         0.0710
     39 H5          0.0224   -0.0395    2.0990 H         1 <0>         0.0766
     40 H6         -0.8567   -1.3823    1.3294 H         1 <0>         0.0594
     41 H7          0.9230   -1.3581    1.3125 H         1 <0>         0.0595
     42 H8          0.0252   -2.6287   -0.2811 H         1 <0>         0.1319
     43 H9          0.0219   -3.8501   -2.4132 H         1 <0>         0.1419
     44 H10        -0.0303   -0.1235   -4.5379 H         1 <0>         0.1160
     45 H11        -0.0356    1.0891   -2.4007 H         1 <0>         0.1299
     46 H12         0.0032   -6.6531   -8.7599 H         1 <0>         0.1753
     47 H13        -1.4476   -1.5935  -10.6924 H         1 <0>         0.0708
     48 H14        -2.1400   -1.9897   -9.0974 H         1 <0>         0.0745
     49 H15        -2.1590    0.4844   -9.6125 H         1 <0>         0.0885
     50 H16        -1.2430    0.0737   -8.1420 H         1 <0>         0.0327
     51 H17         2.0247    0.5148   -9.6596 H         1 <0>         0.1017
     52 H18         1.1481    0.0911   -8.1689 H         1 <0>         0.0258
     53 H19         2.0525   -1.9536   -9.1360 H         1 <0>         0.0719
     54 H20         1.3241   -1.5697  -10.7180 H         1 <0>         0.0719
     55 H21        -1.0366    2.4614   -9.9249 H         1 <0>         0.1130
     56 H22         0.0726    2.2763   -8.5451 H         1 <0>         0.0690
     57 H23         0.6352    4.5733   -9.8375 H         1 <0>         0.4250
     58 H24         4.7474    4.2155  -13.2029 H         1 <0>         0.1766
     59 H25         4.6811    6.7913  -12.7858 H         1 <0>         0.1999
@<TRIPOS>BOND
     1    1    2 1
     2    1   36 1
     3    1   37 1
     4    1   38 1
     5    2    3 1
     6    2    4 1
     7    3   39 1
     8    3   40 1
     9    3   41 1
    10    4    9 ar
    11    4    5 ar
    12    5    6 ar
    13    5   42 1
    14    6    7 ar
    15    6   43 1
    16    7    8 ar
    17    7   10 1
    18    8    9 ar
    19    8   44 1
    20    9   45 1
    21   10   11 2
    22   10   15 1
    23   11   13 1
    24   12   15 1
    25   13   19 ar
    26   13   14 ar
    27   14   16 ar
    28   14   15 1
    29   16   17 ar
    30   16   21 1
    31   17   18 ar
    32   17   20 1
    33   18   19 ar
    34   18   46 1
    35   21   26 1
    36   21   22 1
    37   22   23 1
    38   22   47 1
    39   22   48 1
    40   23   24 1
    41   23   49 1
    42   23   50 1
    43   24   25 1
    44   24   27 1
    45   25   26 1
    46   25   51 1
    47   25   52 1
    48   26   53 1
    49   26   54 1
    50   27   28 1
    51   27   55 1
    52   27   56 1
    53   28   29 2
    54   28   30 am
    55   30   31 1
    56   30   57 1
    57   31   35 1
    58   31   32 2
    59   32   33 1
    60   33   34 2
    61   33   58 1
    62   34   35 1
    63   34   59 1
@<TRIPOS>MOLECULE
ZINC28824607
   60    64     0     0     0
SMALL
USER_CHARGES
2-[4-[6-chloro-2-(4-dimethylaminophenyl)-3H-imidazo[4,5-b]pyridin-7-yl]piperazin-1-yl]-N-thiazol-2-yl-acetamide
@<TRIPOS>ATOM
      1 C1          3.6076    2.9686   -2.1424 C.3       1 <0>         0.0779
      2 N1          2.3612    3.7157   -1.9566 N.pl3     1 <0>        -0.6248
      3 C2          2.3579    5.1759   -2.0752 C.3       1 <0>         0.0772
      4 C3          1.1786    3.0374   -1.6672 C.ar      1 <0>         0.2486
      5 C4          1.1834    1.6508   -1.5550 C.ar      1 <0>        -0.2084
      6 C5          0.0163    0.9777   -1.2685 C.ar      1 <0>        -0.0049
      7 C6         -1.1738    1.6880   -1.0970 C.ar      1 <0>        -0.1198
      8 C7         -1.1743    3.0805   -1.2049 C.ar      1 <0>        -0.0376
      9 C8         -0.0041    3.7481   -1.4916 C.ar      1 <0>        -0.2028
     10 C9         -2.4287    0.9683   -0.7956 C.2       1 <0>         0.3752
     11 N2         -3.6507    1.5589   -0.6035 N.pl3     1 <0>        -0.5977
     12 H1         -3.7483    2.6529   -0.6632 H         1 <0>         0.4640
     13 C10        -4.5596    0.5512   -0.3571 C.ar      1 <0>         0.2668
     14 C11        -3.8308   -0.6486   -0.4019 C.ar      1 <0>         0.0572
     15 N3         -2.5423   -0.3316   -0.6725 N.2       1 <0>        -0.4763
     16 C12        -4.5053   -1.8621   -0.1780 C.ar      1 <0>         0.1754
     17 C13        -5.8740   -1.8137    0.0672 C.ar      1 <0>        -0.1331
     18 C14        -6.5190   -0.5899    0.0832 C.ar      1 <0>         0.1704
     19 N4         -5.8617    0.5364   -0.1127 N.ar      1 <0>        -0.4520
     20 Cl1        -6.7647   -3.2765    0.3511 Cl        1 <0>        -0.0385
     21 N5         -3.8240   -3.0756   -0.2014 N.pl3     1 <0>        -0.4819
     22 C15        -4.3132   -3.9334   -1.2897 C.3       1 <0>         0.0145
     23 C16        -3.4874   -5.2212   -1.3313 C.3       1 <0>         0.0063
     24 N6         -3.5904   -5.9082   -0.0362 N.4       1 <0>        -0.3932
     25 C17        -3.1012   -5.0505    1.0522 C.3       1 <0>        -0.0005
     26 C18        -3.9271   -3.7626    1.0937 C.3       1 <0>         0.0149
     27 C19        -2.8714   -7.1890   -0.0609 C.3       1 <0>        -0.0220
     28 C20        -3.2019   -7.9747    1.1818 C.2       1 <0>         0.5002
     29 O1         -4.0467   -7.5666    1.9505 O.2       1 <0>        -0.4672
     30 N7         -2.5590   -9.1309    1.4390 N.am      1 <0>        -0.6147
     31 C21        -2.8638   -9.8556    2.5852 C.2       1 <0>         0.2705
     32 N8         -3.7367   -9.5772    3.5339 N.2       1 <0>        -0.5047
     33 C22        -3.9075  -10.3836    4.5633 C.2       1 <0>         0.0468
     34 C23        -3.1538  -11.5081    4.6350 C.2       1 <0>        -0.2050
     35 S1         -2.1878  -11.3561    3.1395 S.3       1 <0>         0.0921
     36 H2          3.4128    1.8934   -2.0160 H         1 <0>         0.0826
     37 H3          4.3467    3.2974   -1.3971 H         1 <0>         0.0626
     38 H4          3.9990    3.1540   -3.1535 H         1 <0>         0.0626
     39 H5          1.3396    5.5553   -1.9046 H         1 <0>         0.0827
     40 H6          2.6919    5.4627   -3.0833 H         1 <0>         0.0630
     41 H7          3.0397    5.6061   -1.3268 H         1 <0>         0.0630
     42 H8          2.1032    1.1017   -1.6922 H         1 <0>         0.1349
     43 H9          0.0207   -0.0988   -1.1810 H         1 <0>         0.1376
     44 H10        -2.0923    3.6328   -1.0687 H         1 <0>         0.1218
     45 H11        -0.0048    4.8245   -1.5796 H         1 <0>         0.1357
     46 H12        -7.5052   -0.5712    0.2478 H         1 <0>         0.1612
     47 H13        -5.3708   -4.1803   -1.1148 H         1 <0>         0.0785
     48 H14        -4.2144   -3.4022   -2.2479 H         1 <0>         0.1288
     49 H15        -3.8707   -5.8771   -2.1268 H         1 <0>         0.1428
     50 H16        -2.4346   -4.9754   -1.5342 H         1 <0>         0.1432
     51 H17        -3.2000   -5.5817    2.0103 H         1 <0>         0.1465
     52 H18        -2.0436   -4.8035    0.8772 H         1 <0>         0.1380
     53 H19        -3.5443   -3.1058    1.8887 H         1 <0>         0.1259
     54 H20        -4.9802   -4.0076    1.2960 H         1 <0>         0.0832
     55 H21        -3.1749   -7.7627   -0.9490 H         1 <0>         0.1692
     56 H22        -1.7883   -7.0008   -0.0985 H         1 <0>         0.1643
     57 H23        -1.7929   -9.5012    0.7418 H         1 <0>         0.4650
     58 H24        -4.6277  -10.1511    5.3336 H         1 <0>         0.1794
     59 H25        -3.1407  -12.2819    5.3882 H         1 <0>         0.2070
     60 H26        -4.6530   -6.1221    0.1514 H         1 <0>         0.4477
@<TRIPOS>BOND
     1    1    2 1
     2    1   36 1
     3    1   37 1
     4    1   38 1
     5    2    3 1
     6    2    4 1
     7    3   39 1
     8    3   40 1
     9    3   41 1
    10    4    9 ar
    11    4    5 ar
    12    5    6 ar
    13    5   42 1
    14    6    7 ar
    15    6   43 1
    16    7    8 ar
    17    7   10 1
    18    8    9 ar
    19    8   44 1
    20    9   45 1
    21   10   15 2
    22   10   11 1
    23   11   12 1
    24   11   13 1
    25   13   14 ar
    26   13   19 ar
    27   14   16 ar
    28   14   15 1
    29   16   17 ar
    30   16   21 1
    31   17   18 ar
    32   17   20 1
    33   18   46 1
    34   18   19 ar
    35   21   26 1
    36   21   22 1
    37   22   23 1
    38   22   47 1
    39   22   48 1
    40   23   24 1
    41   23   49 1
    42   23   50 1
    43   24   25 1
    44   24   27 1
    45   24   60 1
    46   25   26 1
    47   25   51 1
    48   25   52 1
    49   26   53 1
    50   26   54 1
    51   27   28 1
    52   27   55 1
    53   27   56 1
    54   28   29 2
    55   28   30 am
    56   30   31 1
    57   30   57 1
    58   31   35 1
    59   31   32 2
    60   32   33 1
    61   33   34 2
    62   33   58 1
    63   34   35 1
    64   34   59 1
@<TRIPOS>MOLECULE
ZINC28824607
   59    63     0     0     0
SMALL
USER_CHARGES
2-[4-[6-chloro-2-(4-dimethylaminophenyl)-3H-imidazo[4,5-b]pyridin-7-yl]piperazin-1-yl]-N-thiazol-2-yl-acetamide
@<TRIPOS>ATOM
      1 C1          3.6076    2.9686   -2.1424 C.3       1 <0>         0.0789
      2 N1          2.3612    3.7157   -1.9566 N.pl3     1 <0>        -0.6272
      3 C2          2.3579    5.1759   -2.0752 C.3       1 <0>         0.0792
      4 C3          1.1786    3.0374   -1.6672 C.ar      1 <0>         0.2443
      5 C4          1.1834    1.6508   -1.5550 C.ar      1 <0>        -0.2062
      6 C5          0.0163    0.9777   -1.2685 C.ar      1 <0>        -0.0061
      7 C6         -1.1738    1.6880   -1.0970 C.ar      1 <0>        -0.1119
      8 C7         -1.1743    3.0805   -1.2049 C.ar      1 <0>        -0.0405
      9 C8         -0.0041    3.7481   -1.4916 C.ar      1 <0>        -0.2034
     10 C9         -2.4287    0.9683   -0.7956 C.2       1 <0>         0.3648
     11 N2         -3.6507    1.5589   -0.6035 N.pl3     1 <0>        -0.5982
     12 H1         -3.7483    2.6529   -0.6632 H         1 <0>         0.4605
     13 C10        -4.5596    0.5512   -0.3571 C.ar      1 <0>         0.2650
     14 C11        -3.8308   -0.6486   -0.4019 C.ar      1 <0>         0.0537
     15 N3         -2.5423   -0.3316   -0.6725 N.2       1 <0>        -0.4692
     16 C12        -4.5053   -1.8621   -0.1780 C.ar      1 <0>         0.1869
     17 C13        -5.8740   -1.8137    0.0672 C.ar      1 <0>        -0.1373
     18 C14        -6.5190   -0.5899    0.0832 C.ar      1 <0>         0.1713
     19 N4         -5.8617    0.5364   -0.1127 N.ar      1 <0>        -0.4585
     20 Cl1        -6.7647   -3.2765    0.3511 Cl        1 <0>        -0.0328
     21 N5         -3.8240   -3.0756   -0.2014 N.pl3     1 <0>        -0.4860
     22 C15        -4.3132   -3.9334   -1.2897 C.3       1 <0>         0.0183
     23 C16        -3.4874   -5.2212   -1.3313 C.3       1 <0>         0.0064
     24 N6         -3.5904   -5.9082   -0.0362 N.4       1 <0>        -0.3878
     25 C17        -3.1012   -5.0505    1.0522 C.3       1 <0>         0.0063
     26 C18        -3.9271   -3.7626    1.0937 C.3       1 <0>         0.0179
     27 C19        -2.8714   -7.1890   -0.0609 C.3       1 <0>         0.0013
     28 C20        -3.2019   -7.9747    1.1818 C.2       1 <0>         0.4389
     29 O1         -4.0467   -7.5666    1.9505 O.3       1 <0>        -0.5883
     30 N7         -2.5590   -9.1309    1.4390 N.2       1 <0>        -0.6499
     31 C21        -2.8638   -9.8556    2.5852 C.2       1 <0>         0.3643
     32 N8         -3.7367   -9.5772    3.5339 N.2       1 <0>        -0.5847
     33 C22        -3.9075  -10.3836    4.5633 C.2       1 <0>         0.0678
     34 C23        -3.1538  -11.5081    4.6350 C.2       1 <0>        -0.2987
     35 S1         -2.1878  -11.3561    3.1395 S.3       1 <0>        -0.0284
     36 H2          3.4128    1.8934   -2.0160 H         1 <0>         0.0834
     37 H3          4.3467    3.2974   -1.3971 H         1 <0>         0.0609
     38 H4          3.9990    3.1540   -3.1535 H         1 <0>         0.0608
     39 H5          1.3396    5.5553   -1.9046 H         1 <0>         0.0820
     40 H6          2.6919    5.4627   -3.0833 H         1 <0>         0.0607
     41 H7          3.0397    5.6061   -1.3268 H         1 <0>         0.0608
     42 H8          2.1032    1.1017   -1.6922 H         1 <0>         0.1348
     43 H9          0.0207   -0.0988   -1.1810 H         1 <0>         0.1397
     44 H10        -2.0923    3.6328   -1.0687 H         1 <0>         0.1211
     45 H11        -0.0048    4.8245   -1.5796 H         1 <0>         0.1339
     46 H12        -7.5052   -0.5712    0.2478 H         1 <0>         0.1602
     47 H13        -5.3708   -4.1803   -1.1148 H         1 <0>         0.0752
     48 H14        -4.2144   -3.4022   -2.2479 H         1 <0>         0.1206
     49 H15        -3.8707   -5.8771   -2.1268 H         1 <0>         0.1360
     50 H16        -2.4346   -4.9754   -1.5342 H         1 <0>         0.1354
     51 H17        -3.2000   -5.5817    2.0103 H         1 <0>         0.1532
     52 H18        -2.0436   -4.8035    0.8772 H         1 <0>         0.1273
     53 H19        -3.5443   -3.1058    1.8887 H         1 <0>         0.1187
     54 H20        -4.9802   -4.0076    1.2960 H         1 <0>         0.0809
     55 H21        -3.1749   -7.7627   -0.9490 H         1 <0>         0.1409
     56 H22        -1.7883   -7.0008   -0.0985 H         1 <0>         0.1392
     57 H23        -4.6277  -10.1511    5.3336 H         1 <0>         0.1455
     58 H24        -3.1407  -12.2819    5.3882 H         1 <0>         0.1776
     59 H25        -4.6530   -6.1221    0.1514 H         1 <0>         0.4404
@<TRIPOS>BOND
     1    1    2 1
     2    1   36 1
     3    1   37 1
     4    1   38 1
     5    2    3 1
     6    2    4 1
     7    3   39 1
     8    3   40 1
     9    3   41 1
    10    4    9 ar
    11    4    5 ar
    12    5    6 ar
    13    5   42 1
    14    6    7 ar
    15    6   43 1
    16    7    8 ar
    17    7   10 1
    18    8    9 ar
    19    8   44 1
    20    9   45 1
    21   10   15 2
    22   10   11 1
    23   11   12 1
    24   11   13 1
    25   13   14 ar
    26   13   19 ar
    27   14   16 ar
    28   14   15 1
    29   16   17 ar
    30   16   21 1
    31   17   18 ar
    32   17   20 1
    33   18   46 1
    34   18   19 ar
    35   21   26 1
    36   21   22 1
    37   22   23 1
    38   22   47 1
    39   22   48 1
    40   23   24 1
    41   23   49 1
    42   23   50 1
    43   24   25 1
    44   24   27 1
    45   24   59 1
    46   25   26 1
    47   25   51 1
    48   25   52 1
    49   26   53 1
    50   26   54 1
    51   27   28 1
    52   27   55 1
    53   27   56 1
    54   28   29 1
    55   28   30 2
    56   30   31 1
    57   31   35 1
    58   31   32 2
    59   32   33 1
    60   33   34 2
    61   33   57 1
    62   34   35 1
    63   34   58 1
@<TRIPOS>MOLECULE
ZINC18230030
   32    35     0     0     0
SMALL
USER_CHARGES

@<TRIPOS>ATOM
      1 C1         -0.0024    1.3636   -0.3852 C.ar      1 <0>        -0.1425
      2 C2          1.1843    2.0764   -0.3355 C.ar      1 <0>        -0.0866
      3 C3          2.3918    1.4233   -0.1939 C.ar      1 <0>        -0.1380
      4 C4          2.4281    0.0365   -0.0988 C.ar      1 <0>         0.1367
      5 C5          1.2250   -0.6816   -0.1490 C.ar      1 <0>        -0.0800
      6 C6          0.0127   -0.0131   -0.2925 C.ar      1 <0>        -0.0826
      7 C7          1.5867   -2.1097   -0.0238 C.2       1 <0>        -0.2056
      8 C8          0.7284   -3.2007   -0.0213 C.2       1 <0>         0.2986
      9 C9         -0.7457   -3.1540    0.0907 C.2       1 <0>         0.1829
     10 N1         -1.5003   -2.0946    0.2062 N.2       1 <0>        -0.2631
     11 O1         -2.9062   -2.2339    0.3026 O.3       1 <0>        -0.3834
     12 C10        -1.1809   -4.5701    0.0427 C.ar      1 <0>        -0.1642
     13 C11        -2.4307   -5.1782    0.1013 C.ar      1 <0>        -0.0259
     14 C12        -2.5280   -6.5532    0.0311 C.ar      1 <0>        -0.1512
     15 C13        -1.3849   -7.3243   -0.0969 C.ar      1 <0>        -0.0586
     16 C14        -0.1407   -6.7311   -0.1555 C.ar      1 <0>        -0.1447
     17 C15        -0.0228   -5.3458   -0.0871 C.ar      1 <0>         0.1647
     18 N2          1.0909   -4.5168   -0.1279 N.pl3     1 <0>        -0.6175
     19 C16         3.0493   -2.1247    0.0967 C.2       1 <0>         0.5684
     20 O2          3.7472   -3.1157    0.2192 O.2       1 <0>        -0.5230
     21 N3          3.4842   -0.8541    0.0471 N.am      1 <0>        -0.6490
     22 H1         -0.9413    1.8865   -0.4922 H         1 <0>         0.1273
     23 H2          1.1645    3.1537   -0.4088 H         1 <0>         0.1294
     24 H3          3.3103    1.9903   -0.1572 H         1 <0>         0.1266
     25 H4         -0.9122   -0.5695   -0.3311 H         1 <0>         0.1639
     26 H5         -3.3798   -1.3948    0.3850 H         1 <0>         0.4132
     27 H6         -3.3218   -4.5764    0.2018 H         1 <0>         0.1385
     28 H7         -3.4969   -7.0283    0.0763 H         1 <0>         0.1358
     29 H8         -1.4681   -8.3998   -0.1510 H         1 <0>         0.1377
     30 H9          0.7438   -7.3428   -0.2549 H         1 <0>         0.1344
     31 H10         2.0048   -4.8291   -0.2181 H         1 <0>         0.4389
     32 H11         4.4164   -0.5923    0.1057 H         1 <0>         0.4189
@<TRIPOS>BOND
     1    1    6 ar
     2    1    2 ar
     3    1   22 1
     4    2    3 ar
     5    2   23 1
     6    3    4 ar
     7    3   24 1
     8    4   21 1
     9    4    5 ar
    10    5    6 ar
    11    5    7 1
    12    6   25 1
    13    7    8 2
    14    7   19 1
    15    8   18 1
    16    8    9 1
    17    9   10 2
    18    9   12 1
    19   10   11 1
    20   11   26 1
    21   12   17 ar
    22   12   13 ar
    23   13   14 ar
    24   13   27 1
    25   14   15 ar
    26   14   28 1
    27   15   16 ar
    28   15   29 1
    29   16   17 ar
    30   16   30 1
    31   17   18 1
    32   18   31 1
    33   19   20 2
    34   19   21 am
    35   21   32 1
@<TRIPOS>MOLECULE
ZINC18230030
   32    35     0     0     0
SMALL
USER_CHARGES

@<TRIPOS>ATOM
      1 C1         -0.0166    1.3748    0.0096 C.ar      1 <0>        -0.1225
      2 C2          1.1716    2.0888    0.0021 C.ar      1 <0>        -0.0962
      3 C3          2.3849    1.4332   -0.0130 C.ar      1 <0>        -0.1155
      4 C4          2.4239    0.0437   -0.0209 C.ar      1 <0>         0.0981
      5 C5          1.2204   -0.6769   -0.0133 C.ar      1 <0>        -0.0528
      6 C6          0.0021   -0.0041    0.0020 C.ar      1 <0>        -0.0805
      7 C7          1.5974   -2.1049   -0.0246 C.2       1 <0>        -0.2093
      8 C8          2.9936   -2.1364   -0.0381 C.2       1 <0>         0.3333
      9 N1          3.4675   -0.8669   -0.0358 N.pl3     1 <0>        -0.5789
     10 H1          4.4078   -0.6287   -0.0438 H         1 <0>         0.4230
     11 O1          3.7505   -3.2537   -0.0509 O.3       1 <0>        -0.4537
     12 C9          0.7262   -3.2100   -0.0222 C.2       1 <0>         0.3448
     13 C10         0.1967   -3.8930    1.1657 C.2       1 <0>        -0.1671
     14 C11        -0.6625   -4.9778    0.6376 C.ar      1 <0>        -0.0626
     15 C12        -1.4332   -5.9613    1.2492 C.ar      1 <0>        -0.0741
     16 C13        -2.1438   -6.8553    0.4745 C.ar      1 <0>        -0.1171
     17 C14        -2.0895   -6.7734   -0.9072 C.ar      1 <0>        -0.1048
     18 C15        -1.3281   -5.8025   -1.5238 C.ar      1 <0>        -0.1132
     19 C16        -0.6049   -4.8915   -0.7591 C.ar      1 <0>         0.0632
     20 N2          0.2180   -3.8346   -1.1211 N.pl3     1 <0>        -0.5424
     21 H2          0.4086   -3.5762   -2.0364 H         1 <0>         0.4251
     22 N3          0.4346   -3.6041    2.4257 N.2       1 <0>        -0.2807
     23 O2         -0.0801   -4.2653    3.3097 O.2       1 <0>         0.0258
     24 H3         -0.9601    1.9001    0.0260 H         1 <0>         0.1313
     25 H4          1.1469    3.1685    0.0078 H         1 <0>         0.1340
     26 H5          3.3046    1.9993   -0.0191 H         1 <0>         0.1285
     27 H6         -0.9243   -0.5592    0.0083 H         1 <0>         0.1229
     28 H7          3.9627   -3.5749   -0.9380 H         1 <0>         0.4047
     29 H8         -1.4750   -6.0251    2.3265 H         1 <0>         0.1455
     30 H9         -2.7428   -7.6202    0.9462 H         1 <0>         0.1335
     31 H10        -2.6482   -7.4764   -1.5072 H         1 <0>         0.1325
     32 H11        -1.2933   -5.7487   -2.6019 H         1 <0>         0.1251
@<TRIPOS>BOND
     1    1    6 ar
     2    1    2 ar
     3    1   24 1
     4    2    3 ar
     5    2   25 1
     6    3    4 ar
     7    3   26 1
     8    4    9 1
     9    4    5 ar
    10    5    6 ar
    11    5    7 1
    12    6   27 1
    13    7    8 2
    14    7   12 1
    15    8    9 1
    16    8   11 1
    17    9   10 1
    18   11   28 1
    19   12   20 1
    20   12   13 2
    21   13   14 1
    22   13   22 1
    23   14   19 ar
    24   14   15 ar
    25   15   16 ar
    26   15   29 1
    27   16   17 ar
    28   16   30 1
    29   17   18 ar
    30   17   31 1
    31   18   19 ar
    32   18   32 1
    33   19   20 1
    34   20   21 1
    35   22   23 2
@<TRIPOS>MOLECULE
ZINC18230030
   32    35     0     0     0
SMALL
USER_CHARGES

@<TRIPOS>ATOM
      1 C1         -0.0166    1.3757    0.0096 C.ar      1 <0>        -0.1357
      2 C2          1.1722    2.0867    0.0021 C.ar      1 <0>        -0.0871
      3 C3          2.3853    1.4289   -0.0135 C.ar      1 <0>        -0.1330
      4 C4          2.4252    0.0389   -0.0214 C.ar      1 <0>         0.1465
      5 C5          1.2200   -0.6774   -0.0133 C.ar      1 <0>        -0.0875
      6 C6          0.0021   -0.0041    0.0020 C.ar      1 <0>        -0.0793
      7 C7          1.5867   -2.1097   -0.0238 C.2       1 <0>        -0.2136
      8 C8          0.7284   -3.2007   -0.0213 C.2       1 <0>         0.3077
      9 C9          1.1246   -4.6257   -0.0260 C.2       1 <0>         0.1435
     10 N1          2.3359   -5.1133   -0.0337 N.2       1 <0>        -0.2047
     11 O1          2.5348   -6.5152   -0.0374 O.3       1 <0>        -0.3879
     12 C10        -0.1511   -5.3804   -0.0197 C.ar      1 <0>        -0.1524
     13 C11        -0.4460   -6.7399   -0.0207 C.ar      1 <0>        -0.0325
     14 C12        -1.7620   -7.1560   -0.0139 C.ar      1 <0>        -0.1476
     15 C13        -2.7850   -6.2226   -0.0067 C.ar      1 <0>        -0.0650
     16 C14        -2.5032   -4.8720   -0.0061 C.ar      1 <0>        -0.1436
     17 C15        -1.1821   -4.4335   -0.0119 C.ar      1 <0>         0.1573
     18 N2         -0.6401   -3.1547   -0.0078 N.pl3     1 <0>        -0.6231
     19 C16         3.0542   -2.1288   -0.0380 C.2       1 <0>         0.5661
     20 O2          3.7569   -3.1240   -0.0505 O.2       1 <0>        -0.4814
     21 N3          3.4872   -0.8566   -0.0360 N.am      1 <0>        -0.6546
     22 H1         -0.9596    1.9020    0.0260 H         1 <0>         0.1299
     23 H2          1.1495    3.1665    0.0081 H         1 <0>         0.1317
     24 H3          3.3053    1.9946   -0.0200 H         1 <0>         0.1287
     25 H4         -0.9244   -0.5591    0.0079 H         1 <0>         0.1145
     26 H5          3.4646   -6.7806   -0.0431 H         1 <0>         0.4151
     27 H6          0.3522   -7.4674   -0.0270 H         1 <0>         0.1376
     28 H7         -1.9942   -8.2107   -0.0147 H         1 <0>         0.1348
     29 H8         -3.8126   -6.5549   -0.0018 H         1 <0>         0.1367
     30 H9         -3.3094   -4.1534   -0.0008 H         1 <0>         0.1326
     31 H10        -1.1620   -2.3371    0.0014 H         1 <0>         0.4278
     32 H11         4.4217   -0.5969   -0.0438 H         1 <0>         0.4186
@<TRIPOS>BOND
     1    1    6 ar
     2    1    2 ar
     3    1   22 1
     4    2    3 ar
     5    2   23 1
     6    3    4 ar
     7    3   24 1
     8    4   21 1
     9    4    5 ar
    10    5    6 ar
    11    5    7 1
    12    6   25 1
    13    7    8 2
    14    7   19 1
    15    8   18 1
    16    8    9 1
    17    9   10 2
    18    9   12 1
    19   10   11 1
    20   11   26 1
    21   12   17 ar
    22   12   13 ar
    23   13   14 ar
    24   13   27 1
    25   14   15 ar
    26   14   28 1
    27   15   16 ar
    28   15   29 1
    29   16   17 ar
    30   16   30 1
    31   17   18 1
    32   18   31 1
    33   19   20 2
    34   19   21 am
    35   21   32 1
@<TRIPOS>MOLECULE
ZINC06718723
   66    70     0     0     0
SMALL
USER_CHARGES
N-[3-(2-methoxy-2-phenyl-acetyl)-3,6,7-triazabicyclo[3.3.0]octa-7,9-dien-8-yl]-4-(4-methylpiperazin-1-yl)-benzamide
@<TRIPOS>ATOM
      1 C1          1.1558   -2.3183    1.2595 C.3       1 <0>        -0.0410
      2 C2          0.9823   -1.8889   -1.1176 C.3       1 <0>         0.0017
      3 C3          0.2156   -1.0925   -2.1760 C.3       1 <0>         0.0172
      4 N1          0.3983    0.3450   -1.9314 N.pl3     1 <0>        -0.4879
      5 C4         -0.0890    0.7150   -0.5952 C.3       1 <0>         0.0240
      6 C5          0.6778   -0.0814    0.4632 C.3       1 <0>         0.0014
      7 C6         -0.2262    1.1016   -2.9168 C.ar      1 <0>         0.1171
      8 C7         -0.9021    0.4673   -3.9555 C.ar      1 <0>        -0.1703
      9 C8         -1.5254    1.2132   -4.9296 C.ar      1 <0>        -0.0557
     10 C9         -1.4706    2.6093   -4.8809 C.ar      1 <0>        -0.1394
     11 C10        -0.7865    3.2432   -3.8393 C.ar      1 <0>        -0.0271
     12 C11        -0.1695    2.4917   -2.8657 C.ar      1 <0>        -0.1357
     13 C12        -2.1335    3.4119   -5.9259 C.2       1 <0>         0.5511
     14 O1         -2.0854    4.6262   -5.8820 O.2       1 <0>        -0.4789
     15 N2         -2.7926    2.7993   -6.9293 N.am      1 <0>        -0.6348
     16 C13        -3.4223    3.5616   -7.9218 C.2       1 <0>         0.3339
     17 C14        -4.1411    3.0562   -9.0204 C.2       1 <0>        -0.2838
     18 C15        -4.5895    4.1057   -9.7400 C.2       1 <0>         0.0781
     19 N3         -4.1745    5.2373   -9.1268 N.pl3     1 <0>        -0.4408
     20 H1         -4.3540    6.1718   -9.4341 H         1 <0>         0.4547
     21 N4         -3.4495    4.8713   -7.9863 N.2       1 <0>        -0.2469
     22 C16        -5.3666    3.6009  -10.9294 C.3       1 <0>         0.1723
     23 N5         -5.3544    2.1345  -10.8740 N.am      1 <0>        -0.6108
     24 C17        -4.5861    1.7737   -9.6769 C.3       1 <0>         0.1946
     25 C18        -5.9338    1.2878  -11.7480 C.2       1 <0>         0.5509
     26 O2         -5.7715    0.0915  -11.6318 O.2       1 <0>        -0.4985
     27 C19        -6.7834    1.8276  -12.8695 C.3       1 <0>         0.1225
     28 H2         -7.5012    2.5436  -12.4694 H         1 <0>         0.0950
     29 C20        -5.9023    2.5122  -13.8825 C.ar      1 <0>        -0.1245
     30 C21        -5.1414    1.7597  -14.7575 C.ar      1 <0>        -0.0827
     31 C22        -4.3365    2.3877  -15.6895 C.ar      1 <0>        -0.1181
     32 C23        -4.2853    3.7682  -15.7402 C.ar      1 <0>        -0.1071
     33 C24        -5.0426    4.5207  -14.8620 C.ar      1 <0>        -0.1205
     34 C25        -5.8508    3.8927  -13.9329 C.ar      1 <0>        -0.1134
     35 O3         -7.4835    0.7514  -13.4972 O.3       1 <0>        -0.3511
     36 C26        -8.7453    1.1252  -14.0539 C.3       1 <0>         0.0270
     37 H3          2.2318   -2.1485    1.2201 H         1 <0>         0.1249
     38 H4          0.7771   -2.0242    2.2384 H         1 <0>         0.1237
     39 H5          0.9484   -3.3752    1.0921 H         1 <0>         0.1236
     40 H6          0.8246   -2.9552   -1.2798 H         1 <0>         0.1394
     41 H7          2.0461   -1.6632   -1.1925 H         1 <0>         0.1411
     42 H8          0.5953   -1.3440   -3.1663 H         1 <0>         0.1318
     43 H9         -0.8447   -1.3391   -2.1193 H         1 <0>         0.0745
     44 H10         0.0688    1.7813   -0.4330 H         1 <0>         0.1307
     45 H11        -1.1527    0.4893   -0.5207 H         1 <0>         0.0727
     46 H12         1.7380    0.1652    0.4065 H         1 <0>         0.1415
     47 H13         0.2983    0.1704    1.4535 H         1 <0>         0.1395
     48 H14        -0.9409   -0.6113   -3.9946 H         1 <0>         0.1361
     49 H15        -2.0533    0.7206   -5.7327 H         1 <0>         0.1339
     50 H16        -0.7428    4.3215   -3.7987 H         1 <0>         0.1475
     51 H17         0.3591    2.9807   -2.0608 H         1 <0>         0.1377
     52 H18        -2.8310    1.8307   -6.9643 H         1 <0>         0.4200
     53 H19        -4.8943    3.9403  -11.8513 H         1 <0>         0.1019
     54 H20        -6.3933    3.9643  -10.8842 H         1 <0>         0.0943
     55 H21        -3.7159    1.1817   -9.9601 H         1 <0>         0.0792
     56 H22        -5.2131    1.2048   -8.9904 H         1 <0>         0.0792
     57 H23        -5.1783    0.6812  -14.7152 H         1 <0>         0.1304
     58 H24        -3.7451    1.7999  -16.3759 H         1 <0>         0.1272
     59 H25        -3.6539    4.2589  -16.4662 H         1 <0>         0.1260
     60 H26        -5.0026    5.5992  -14.9016 H         1 <0>         0.1273
     61 H27        -6.4422    4.4805  -13.2465 H         1 <0>         0.1243
     62 H28        -9.3904    1.5117  -13.2649 H         1 <0>         0.0465
     63 H29        -8.5949    1.8955  -14.8103 H         1 <0>         0.0480
     64 H30        -9.2132    0.2534  -14.5113 H         1 <0>         0.0967
     65 N6          0.4679   -1.5242    0.2191 N.4       1 <0>        -0.4004
     66 H31        -0.5381   -1.7261    0.2561 H         1 <0>         0.4278
@<TRIPOS>BOND
     1    1   37 1
     2    1   38 1
     3    1   39 1
     4    1   65 1
     5    2    3 1
     6    2   40 1
     7    2   41 1
     8    2   65 1
     9    3    4 1
    10    3   42 1
    11    3   43 1
    12    4    5 1
    13    4    7 1
    14    5    6 1
    15    5   44 1
    16    5   45 1
    17    6   46 1
    18    6   47 1
    19    6   65 1
    20    7   12 ar
    21    7    8 ar
    22    8    9 ar
    23    8   48 1
    24    9   10 ar
    25    9   49 1
    26   10   11 ar
    27   10   13 1
    28   11   12 ar
    29   11   50 1
    30   12   51 1
    31   13   14 2
    32   13   15 am
    33   15   16 1
    34   15   52 1
    35   16   21 2
    36   16   17 1
    37   17   24 1
    38   17   18 2
    39   18   19 1
    40   18   22 1
    41   19   20 1
    42   19   21 1
    43   22   23 1
    44   22   53 1
    45   22   54 1
    46   23   24 1
    47   23   25 am
    48   24   55 1
    49   24   56 1
    50   25   26 2
    51   25   27 1
    52   27   28 1
    53   27   29 1
    54   27   35 1
    55   29   34 ar
    56   29   30 ar
    57   30   31 ar
    58   30   57 1
    59   31   32 ar
    60   31   58 1
    61   32   33 ar
    62   32   59 1
    63   33   34 ar
    64   33   60 1
    65   34   61 1
    66   35   36 1
    67   36   62 1
    68   36   63 1
    69   36   64 1
    70   65   66 1
@<TRIPOS>MOLECULE
ZINC43129461
   71    74     0     0     0
SMALL
USER_CHARGES

@<TRIPOS>ATOM
      1 C1          0.1412    1.0958    0.0245 C.3       1 <0>        -0.1877
      2 C2          0.0343   -0.4072    0.2899 C.3       1 <0>        -0.0130
      3 N1         -1.3805   -0.7840    0.4090 N.4       1 <0>        -0.3814
      4 C3         -1.4799   -2.1981    0.7943 C.3       1 <0>        -0.0136
      5 C4         -0.8912   -2.3880    2.1937 C.3       1 <0>        -0.1480
      6 C5         -0.9947   -3.8608    2.5950 C.3       1 <0>         0.0597
      7 O1         -0.4449   -4.0381    3.9021 O.3       1 <0>        -0.3038
      8 C6         -0.4591   -5.2969    4.4113 C.ar      1 <0>         0.1781
      9 C7         -0.9923   -6.3430    3.6529 C.ar      1 <0>        -0.2017
     10 C8         -1.0190   -7.6149    4.1393 C.ar      1 <0>        -0.0296
     11 C9         -0.5067   -7.8812    5.4148 C.ar      1 <0>        -0.2176
     12 C10         0.0360   -6.8274    6.1915 C.ar      1 <0>         0.2265
     13 C11         0.0576   -5.5295    5.6681 C.ar      1 <0>        -0.1532
     14 N2          0.5211   -7.1085    7.4106 N.ar      1 <0>        -0.5472
     15 C12         0.4917   -8.3369    7.8711 C.ar      1 <0>         0.3522
     16 N3         -0.0047   -9.3517    7.1826 N.ar      1 <0>        -0.5832
     17 C13        -0.5099   -9.1841    5.9669 C.ar      1 <0>         0.4869
     18 N4         -1.0246  -10.2512    5.2605 N.pl3     1 <0>        -0.6010
     19 C14        -1.0183  -11.5330    5.8248 C.2       1 <0>         0.3061
     20 C15        -0.5270  -11.8723    7.0959 C.2       1 <0>        -0.2334
     21 C16        -0.7020  -13.2023    7.2669 C.2       1 <0>         0.0995
     22 N5         -1.2813  -13.6907    6.1499 N.pl3     1 <0>        -0.4600
     23 H1         -1.5240  -14.6165    5.9920 H         1 <0>         0.4395
     24 N6         -1.4756  -12.6260    5.2606 N.2       1 <0>        -0.3132
     25 C17        -0.3179  -13.9980    8.4876 C.3       1 <0>        -0.0736
     26 C18        -1.4253  -13.9203    9.5069 C.2       1 <0>         0.5124
     27 O2         -2.4277  -13.2816    9.2656 O.2       1 <0>        -0.4954
     28 N7         -1.3017  -14.5605   10.6864 N.am      1 <0>        -0.6738
     29 C19        -2.2814  -14.4046   11.6731 C.ar      1 <0>         0.1731
     30 C20        -1.9205  -14.3798   13.0142 C.ar      1 <0>        -0.1549
     31 C21        -2.8887  -14.2254   13.9867 C.ar      1 <0>        -0.0711
     32 C22        -4.2176  -14.0957   13.6276 C.ar      1 <0>        -0.1683
     33 C23        -4.5819  -14.1198   12.2917 C.ar      1 <0>         0.1190
     34 C24        -3.6151  -14.2686   11.3132 C.ar      1 <0>        -0.1590
     35 F1         -5.8812  -13.9933   11.9436 F         1 <0>        -0.1348
     36 C25        -2.0520   -0.5798   -0.8814 C.3       1 <0>        -0.0107
     37 C26        -3.5536   -0.8245   -0.7194 C.3       1 <0>         0.0927
     38 O3         -4.1052    0.1612    0.1558 O.3       1 <0>        -0.7578
     39 P1         -5.6390    0.1400    0.6447 P.3       1 <0>         2.1017
     40 O4         -6.5846    0.1017   -0.6038 O.2       1 <0>        -1.1721
     41 O5         -5.8881   -1.1299    1.5277 O.3       1 <0>        -1.1714
     42 O6         -5.9368    1.4276    1.4860 O.3       1 <0>        -1.1488
     43 H2          1.1901    1.3923    0.0315 H         1 <0>         0.0965
     44 H3         -0.2947    1.3249   -0.9479 H         1 <0>         0.0817
     45 H4         -0.3956    1.6409    0.8008 H         1 <0>         0.0844
     46 H5          0.4880   -0.9552   -0.5360 H         1 <0>         0.1221
     47 H6          0.5544   -0.6504    1.2165 H         1 <0>         0.1246
     48 H7         -2.5268   -2.5014    0.7963 H         1 <0>         0.1454
     49 H8         -0.9260   -2.8087    0.0813 H         1 <0>         0.1270
     50 H9          0.1557   -2.0846    2.1918 H         1 <0>         0.0937
     51 H10        -1.4451   -1.7773    2.9068 H         1 <0>         0.1060
     52 H11        -2.0417   -4.1641    2.5970 H         1 <0>         0.0850
     53 H12        -0.4409   -4.4714    1.8820 H         1 <0>         0.0737
     54 H13        -1.3884   -6.1401    2.6689 H         1 <0>         0.1410
     55 H14        -1.4340   -8.4146    3.5438 H         1 <0>         0.1329
     56 H15         0.4717   -4.7162    6.2456 H         1 <0>         0.1504
     57 H16         0.8909   -8.5281    8.8563 H         1 <0>         0.1983
     58 H17        -1.3909  -10.1139    4.3729 H         1 <0>         0.4265
     59 H18        -0.0875  -11.1918    7.8102 H         1 <0>         0.1855
     60 H19        -0.1551  -15.0386    8.2067 H         1 <0>         0.1119
     61 H20         0.5980  -13.5893    8.9144 H         1 <0>         0.1297
     62 H21        -0.5335  -15.1293   10.8513 H         1 <0>         0.4154
     63 H22        -0.8830  -14.4817   13.2963 H         1 <0>         0.1340
     64 H23        -2.6076  -14.2062   15.0293 H         1 <0>         0.1384
     65 H24        -4.9729  -13.9757   14.3902 H         1 <0>         0.1374
     66 H25        -3.8982  -14.2834   10.2710 H         1 <0>         0.1503
     67 H26        -1.8850    0.4427   -1.2201 H         1 <0>         0.1337
     68 H27        -1.6475   -1.2764   -1.6158 H         1 <0>         0.1254
     69 H28        -4.0395   -0.7589   -1.6929 H         1 <0>         0.0845
     70 H29        -3.7166   -1.8165   -0.2981 H         1 <0>         0.0571
     71 H30        -1.8229   -0.2118    1.1126 H         1 <0>         0.4394
@<TRIPOS>BOND
     1    1    2 1
     2    1   43 1
     3    1   44 1
     4    1   45 1
     5    2    3 1
     6    2   46 1
     7    2   47 1
     8    3    4 1
     9    3   36 1
    10    3   71 1
    11    4    5 1
    12    4   48 1
    13    4   49 1
    14    5    6 1
    15    5   50 1
    16    5   51 1
    17    6    7 1
    18    6   52 1
    19    6   53 1
    20    7    8 1
    21    8   13 ar
    22    8    9 ar
    23    9   10 ar
    24    9   54 1
    25   10   11 ar
    26   10   55 1
    27   11   17 ar
    28   11   12 ar
    29   12   13 ar
    30   12   14 ar
    31   13   56 1
    32   14   15 ar
    33   15   16 ar
    34   15   57 1
    35   16   17 ar
    36   17   18 1
    37   18   19 1
    38   18   58 1
    39   19   24 2
    40   19   20 1
    41   20   21 2
    42   20   59 1
    43   21   22 1
    44   21   25 1
    45   22   23 1
    46   22   24 1
    47   25   26 1
    48   25   60 1
    49   25   61 1
    50   26   27 2
    51   26   28 am
    52   28   29 1
    53   28   62 1
    54   29   34 ar
    55   29   30 ar
    56   30   31 ar
    57   30   63 1
    58   31   32 ar
    59   31   64 1
    60   32   33 ar
    61   32   65 1
    62   33   34 ar
    63   33   35 1
    64   34   66 1
    65   36   37 1
    66   36   67 1
    67   36   68 1
    68   37   38 1
    69   37   69 1
    70   37   70 1
    71   38   39 1
    72   39   40 2
    73   39   41 1
    74   39   42 1
@<TRIPOS>MOLECULE
ZINC43129461
   73    76     0     0     0
SMALL
USER_CHARGES

@<TRIPOS>ATOM
      1 C1          0.1409    1.0918    0.0251 C.3       1 <0>        -0.1892
      2 C2          0.0339   -0.4112    0.2906 C.3       1 <0>        -0.0152
      3 N1         -1.3809   -0.7879    0.4099 N.4       1 <0>        -0.3842
      4 C3         -1.4803   -2.2020    0.7953 C.3       1 <0>        -0.0158
      5 C4         -0.8914   -2.3919    2.1946 C.3       1 <0>        -0.1503
      6 C5         -0.9949   -3.8647    2.5959 C.3       1 <0>         0.0579
      7 O1         -0.4450   -4.0420    3.9029 O.3       1 <0>        -0.2993
      8 C6         -0.4592   -5.3008    4.4121 C.ar      1 <0>         0.1817
      9 C7         -0.9925   -6.3469    3.6538 C.ar      1 <0>        -0.1818
     10 C8         -1.0193   -7.6187    4.1402 C.ar      1 <0>        -0.0436
     11 C9         -0.5068   -7.8851    5.4157 C.ar      1 <0>        -0.1976
     12 C10         0.0362   -6.8313    6.1923 C.ar      1 <0>         0.2239
     13 C11         0.0578   -5.5334    5.6688 C.ar      1 <0>        -0.1405
     14 N2          0.5214   -7.1125    7.4113 N.ar      1 <0>        -0.5107
     15 C12         0.4920   -8.3409    7.8718 C.ar      1 <0>         0.3510
     16 N3         -0.0046   -9.3556    7.1834 N.ar      1 <0>        -0.5709
     17 C13        -0.5099   -9.1879    5.9677 C.ar      1 <0>         0.4598
     18 N4         -1.0249  -10.2553    5.2612 N.pl3     1 <0>        -0.6021
     19 C14        -1.0187  -11.5304    5.8226 C.2       1 <0>         0.4560
     20 C15        -0.5390  -11.8669    7.0517 C.2       1 <0>        -0.2320
     21 C16        -0.7243  -13.2413    7.2224 C.2       1 <0>         0.2582
     22 N5         -1.2916  -13.7195    6.1448 N.pl3     1 <0>        -0.3700
     23 N6         -1.4952  -12.6642    5.2465 N.pl3     1 <0>        -0.4476
     24 C17        -0.3360  -14.0381    8.4412 C.3       1 <0>        -0.1008
     25 C18        -1.4386  -13.9586    9.4655 C.2       1 <0>         0.5174
     26 O2         -2.4410  -13.3180    9.2291 O.2       1 <0>        -0.5061
     27 N7         -1.3107  -14.5994   10.6443 N.am      1 <0>        -0.6579
     28 C19        -2.2856  -14.4419   11.6355 C.ar      1 <0>         0.1577
     29 C20        -1.9185  -14.4182   12.9750 C.ar      1 <0>        -0.1459
     30 C21        -2.8820  -14.2623   13.9520 C.ar      1 <0>        -0.0677
     31 C22        -4.2123  -14.1302   13.5990 C.ar      1 <0>        -0.1573
     32 C23        -4.5828  -14.1533   12.2647 C.ar      1 <0>         0.1189
     33 C24        -3.6207  -14.3035   11.2818 C.ar      1 <0>        -0.1569
     34 F1         -5.8834  -14.0244   11.9227 F         1 <0>        -0.1323
     35 C25        -2.0526   -0.5836   -0.8804 C.3       1 <0>        -0.0130
     36 C26        -3.5541   -0.8283   -0.7182 C.3       1 <0>         0.1008
     37 O3         -4.1055    0.1575    0.1571 O.3       1 <0>        -0.7650
     38 P1         -5.6393    0.1364    0.6462 P.3       1 <0>         2.2015
     39 O4         -6.5720    0.0987   -0.5849 O.2       1 <0>        -1.0927
     40 O5         -5.8849   -1.1160    1.5170 O.3       1 <0>        -1.0945
     41 O6         -5.9451    1.4596    1.5109 O.3       1 <0>        -0.8978
     42 H1          1.1898    1.3882    0.0319 H         1 <0>         0.1035
     43 H2         -0.2951    1.3210   -0.9472 H         1 <0>         0.0827
     44 H3         -0.3958    1.6370    0.8015 H         1 <0>         0.0823
     45 H4          0.4874   -0.9592   -0.5353 H         1 <0>         0.1283
     46 H5          0.5541   -0.6544    1.2171 H         1 <0>         0.1288
     47 H6         -2.5272   -2.5053    0.7974 H         1 <0>         0.1420
     48 H7         -0.9266   -2.8127    0.0821 H         1 <0>         0.1333
     49 H8          0.1555   -2.0886    2.1924 H         1 <0>         0.0995
     50 H9         -1.4451   -1.7812    2.9077 H         1 <0>         0.1051
     51 H10        -2.0419   -4.1679    2.5981 H         1 <0>         0.0848
     52 H11        -0.4412   -4.4754    1.8828 H         1 <0>         0.0778
     53 H12        -1.3888   -6.1439    2.6698 H         1 <0>         0.1468
     54 H13        -1.4344   -8.4184    3.5448 H         1 <0>         0.1339
     55 H14         0.4720   -4.7201    6.2463 H         1 <0>         0.1595
     56 H15         0.8913   -8.5321    8.8569 H         1 <0>         0.2128
     57 H16        -1.3914  -10.1180    4.3736 H         1 <0>         0.4383
     58 H17        -0.0939  -11.1915    7.7674 H         1 <0>         0.2299
     59 H18        -0.1764  -15.0788    8.1593 H         1 <0>         0.1396
     60 H19         0.5826  -13.6311    8.8639 H         1 <0>         0.1633
     61 H20        -0.5428  -15.1696   10.8056 H         1 <0>         0.4210
     62 H21        -0.8799  -14.5220   13.2523 H         1 <0>         0.1376
     63 H22        -2.5961  -14.2439   14.9933 H         1 <0>         0.1439
     64 H23        -4.9639  -14.0091   14.3651 H         1 <0>         0.1423
     65 H24        -3.9087  -14.3175   10.2410 H         1 <0>         0.1477
     66 H25        -1.8856    0.4389   -1.2191 H         1 <0>         0.1423
     67 H26        -1.6482   -1.2803   -1.6148 H         1 <0>         0.1408
     68 H27        -4.0402   -0.7626   -1.6916 H         1 <0>         0.1052
     69 H28        -3.7172   -1.8203   -0.2969 H         1 <0>         0.0749
     70 H29        -6.8531    1.5139    1.8391 H         1 <0>         0.4246
     71 H30        -1.8231   -0.2157    1.1136 H         1 <0>         0.4343
     72 H31        -1.9019  -12.7316    4.3685 H         1 <0>         0.4711
     73 H32        -1.5334  -14.6468    5.9949 H         1 <0>         0.4758
@<TRIPOS>BOND
     1    1    2 1
     2    1   42 1
     3    1   43 1
     4    1   44 1
     5    2    3 1
     6    2   45 1
     7    2   46 1
     8    3    4 1
     9    3   35 1
    10    3   71 1
    11    4    5 1
    12    4   47 1
    13    4   48 1
    14    5    6 1
    15    5   49 1
    16    5   50 1
    17    6    7 1
    18    6   51 1
    19    6   52 1
    20    7    8 1
    21    8   13 ar
    22    8    9 ar
    23    9   10 ar
    24    9   53 1
    25   10   11 ar
    26   10   54 1
    27   11   17 ar
    28   11   12 ar
    29   12   13 ar
    30   12   14 ar
    31   13   55 1
    32   14   15 ar
    33   15   16 ar
    34   15   56 1
    35   16   17 ar
    36   17   18 1
    37   18   19 1
    38   18   57 1
    39   19   20 2
    40   19   23 1
    41   20   58 1
    42   20   21 1
    43   21   24 1
    44   21   22 2
    45   22   23 1
    46   22   73 1
    47   23   72 1
    48   24   25 1
    49   24   59 1
    50   24   60 1
    51   25   26 2
    52   25   27 am
    53   27   28 1
    54   27   61 1
    55   28   33 ar
    56   28   29 ar
    57   29   30 ar
    58   29   62 1
    59   30   31 ar
    60   30   63 1
    61   31   32 ar
    62   31   64 1
    63   32   33 ar
    64   32   34 1
    65   33   65 1
    66   35   36 1
    67   35   66 1
    68   35   67 1
    69   36   37 1
    70   36   68 1
    71   36   69 1
    72   37   38 1
    73   38   39 2
    74   38   40 1
    75   38   41 1
    76   41   70 1
@<TRIPOS>MOLECULE
ZINC16052730
   56    60     0     0     0
SMALL
USER_CHARGES
N-(4-chlorophenyl)-6-[(6,7-dimethoxy-4-quinolyl)oxy]naphthalene-1-carboxamide
@<TRIPOS>ATOM
      1 C1          2.6893    6.4089    4.7046 C.3       1 <0>         0.0224
      2 O1          2.2948    7.7772    4.5854 O.3       1 <0>        -0.2990
      3 C2          2.1900    8.2821    3.3272 C.ar      1 <0>         0.1299
      4 C3          2.4587    7.4829    2.2539 C.ar      1 <0>        -0.1690
      5 C4          2.3501    8.0038    0.9558 C.ar      1 <0>        -0.1013
      6 C5          2.6199    7.2065   -0.1791 C.ar      1 <0>         0.1416
      7 C6          2.4858    7.7883   -1.4274 C.ar      1 <0>        -0.1800
      8 C7          2.1014    9.1193   -1.5294 C.ar      1 <0>         0.1403
      9 N1          1.8581    9.8525   -0.4685 N.ar      1 <0>        -0.4668
     10 C8          1.9680    9.3547    0.7690 C.ar      1 <0>         0.1528
     11 C9          1.7032   10.1536    1.8937 C.ar      1 <0>        -0.1720
     12 C10         1.8065    9.6185    3.1454 C.ar      1 <0>         0.1457
     13 O2          1.5442   10.3943    4.2298 O.3       1 <0>        -0.2992
     14 C11         1.1580   11.7475    3.9813 C.3       1 <0>         0.0206
     15 O3          2.9932    5.9094   -0.0491 O.3       1 <0>        -0.2514
     16 C12         2.0160    4.9669    0.0061 C.ar      1 <0>         0.1272
     17 C13         0.6756    5.3630    0.0344 C.ar      1 <0>        -0.1711
     18 C14        -0.3245    4.4408    0.0888 C.ar      1 <0>        -0.0761
     19 C15        -0.0107    3.0747    0.1179 C.ar      1 <0>        -0.0333
     20 C16         1.3458    2.6686    0.0894 C.ar      1 <0>        -0.0239
     21 C17         2.3557    3.6437    0.0328 C.ar      1 <0>        -0.1440
     22 C18         1.6598    1.2985    0.1178 C.ar      1 <0>        -0.0725
     23 C19         0.6642    0.3695    0.1722 C.ar      1 <0>        -0.1204
     24 C20        -0.6720    0.7481    0.1954 C.ar      1 <0>        -0.0743
     25 C21        -1.0277    2.0889    0.1749 C.ar      1 <0>        -0.1205
     26 C22        -2.4478    2.4839    0.2049 C.2       1 <0>         0.5656
     27 O4         -2.7561    3.6543    0.0854 O.2       1 <0>        -0.5074
     28 N2         -3.4044    1.5480    0.3648 N.am      1 <0>        -0.6646
     29 C23        -4.7402    1.9327    0.5207 C.ar      1 <0>         0.1524
     30 C24        -5.0479    3.1782    1.0527 C.ar      1 <0>        -0.1162
     31 C25        -6.3676    3.5576    1.2007 C.ar      1 <0>        -0.0870
     32 C26        -7.3829    2.6934    0.8301 C.ar      1 <0>        -0.0520
     33 C27        -7.0792    1.4497    0.3046 C.ar      1 <0>        -0.0872
     34 C28        -5.7612    1.0676    0.1492 C.ar      1 <0>        -0.1366
     35 Cl1        -9.0408    3.1706    1.0241 Cl        1 <0>        -0.0681
     36 H1          2.7339    6.1341    5.7584 H         1 <0>         0.1067
     37 H2          1.9633    5.7758    4.1944 H         1 <0>         0.0576
     38 H3          3.6714    6.2731    4.2517 H         1 <0>         0.0591
     39 H4          2.7532    6.4546    2.4031 H         1 <0>         0.1459
     40 H5          2.6796    7.2101   -2.3188 H         1 <0>         0.1476
     41 H6          2.0003    9.5631   -2.5088 H         1 <0>         0.1693
     42 H7          1.4071   11.1846    1.7681 H         1 <0>         0.1552
     43 H8          1.9544   12.2592    3.4408 H         1 <0>         0.0611
     44 H9          0.2464   11.7613    3.3840 H         1 <0>         0.0611
     45 H10         0.9788   12.2541    4.9296 H         1 <0>         0.1066
     46 H11         0.4301    6.4145    0.0125 H         1 <0>         0.1293
     47 H12        -1.3558    4.7605    0.1095 H         1 <0>         0.1742
     48 H13         3.3945    3.3491    0.0101 H         1 <0>         0.1420
     49 H14         2.6921    0.9816    0.0960 H         1 <0>         0.1370
     50 H15         0.9186   -0.6799    0.1931 H         1 <0>         0.1357
     51 H16        -1.4415   -0.0087    0.2344 H         1 <0>         0.1287
     52 H17        -3.1665    0.6077    0.3717 H         1 <0>         0.4133
     53 H18        -4.2559    3.8512    1.3461 H         1 <0>         0.1517
     54 H19        -6.6074    4.5277    1.6101 H         1 <0>         0.1381
     55 H20        -7.8735    0.7775    0.0156 H         1 <0>         0.1390
     56 H21        -5.5247    0.0970   -0.2613 H         1 <0>         0.1362
@<TRIPOS>BOND
     1    1    2 1
     2    1   36 1
     3    1   37 1
     4    1   38 1
     5    2    3 1
     6    3   12 ar
     7    3    4 ar
     8    4    5 ar
     9    4   39 1
    10    5   10 ar
    11    5    6 ar
    12    6    7 ar
    13    6   15 1
    14    7    8 ar
    15    7   40 1
    16    8    9 ar
    17    8   41 1
    18    9   10 ar
    19   10   11 ar
    20   11   12 ar
    21   11   42 1
    22   12   13 1
    23   13   14 1
    24   14   43 1
    25   14   44 1
    26   14   45 1
    27   15   16 1
    28   16   21 ar
    29   16   17 ar
    30   17   18 ar
    31   17   46 1
    32   18   19 ar
    33   18   47 1
    34   19   25 ar
    35   19   20 ar
    36   20   21 ar
    37   20   22 ar
    38   21   48 1
    39   22   23 ar
    40   22   49 1
    41   23   24 ar
    42   23   50 1
    43   24   25 ar
    44   24   51 1
    45   25   26 1
    46   26   27 2
    47   26   28 am
    48   28   29 1
    49   28   52 1
    50   29   34 ar
    51   29   30 ar
    52   30   31 ar
    53   30   53 1
    54   31   32 ar
    55   31   54 1
    56   32   33 ar
    57   32   35 1
    58   33   34 ar
    59   33   55 1
    60   34   56 1
@<TRIPOS>MOLECULE
ZINC14761282
   30    32     0     0     0
SMALL
USER_CHARGES
2,3,6,8-tetrahydroxy-1-methyl-xanthen-9-one
@<TRIPOS>ATOM
      1 C1         -4.9185    5.5078    0.0779 C.3       1 <0>        -0.1280
      2 C2         -3.5589    6.1577    0.0694 C.ar      1 <0>         0.0027
      3 C3         -2.4048    5.3710    0.0883 C.ar      1 <0>        -0.2276
      4 C4         -1.1351    5.9695    0.0801 C.ar      1 <0>         0.1781
      5 C5         -1.0400    7.3557    0.0535 C.ar      1 <0>        -0.1694
      6 C6         -2.1856    8.1307    0.0344 C.ar      1 <0>         0.1596
      7 C7         -3.4480    7.5321    0.0426 C.ar      1 <0>         0.0442
      8 O1         -4.5676    8.3049    0.0246 O.3       1 <0>        -0.4751
      9 O2         -2.0823    9.4845    0.0080 O.3       1 <0>        -0.4786
     10 O3         -0.0131    5.2197    0.0996 O.3       1 <0>        -0.2248
     11 C8         -0.0194    3.8712    0.1264 C.ar      1 <0>         0.1996
     12 C9          1.1807    3.1742    0.1442 C.ar      1 <0>        -0.1877
     13 C10         1.1827    1.7884    0.1728 C.ar      1 <0>         0.1985
     14 C11        -0.0121    1.0771    0.1840 C.ar      1 <0>        -0.2101
     15 C12        -1.2187    1.7514    0.1609 C.ar      1 <0>         0.2237
     16 C13        -1.2274    3.1533    0.1372 C.ar      1 <0>        -0.2714
     17 C14        -2.4972    3.8983    0.1181 C.2       1 <0>         0.4404
     18 O4         -3.5727    3.3265    0.1261 O.2       1 <0>        -0.4278
     19 O5         -2.3868    1.0612    0.1665 O.3       1 <0>        -0.4737
     20 O6          2.3631    1.1188    0.1904 O.3       1 <0>        -0.4885
     21 H1         -5.1981    5.2636    1.1027 H         1 <0>         0.0812
     22 H2         -5.6520    6.1943   -0.3451 H         1 <0>         0.0771
     23 H3         -4.8888    4.5955   -0.5179 H         1 <0>         0.1005
     24 H4         -0.0693    7.8290    0.0476 H         1 <0>         0.1557
     25 H5         -4.8934    8.5457    0.9026 H         1 <0>         0.3881
     26 H6         -2.0550    9.8940    0.8835 H         1 <0>         0.3991
     27 H7          2.1163    3.7136    0.1362 H         1 <0>         0.1540
     28 H8          0.0026   -0.0026    0.2063 H         1 <0>         0.1507
     29 H9         -2.7320    0.8796    1.0513 H         1 <0>         0.4040
     30 H10         2.7079    0.9062   -0.6877 H         1 <0>         0.4055
@<TRIPOS>BOND
     1    1    2 1
     2    1   21 1
     3    1   22 1
     4    1   23 1
     5    2    7 ar
     6    2    3 ar
     7    3   17 1
     8    3    4 ar
     9    4    5 ar
    10    4   10 1
    11    5    6 ar
    12    5   24 1
    13    6    7 ar
    14    6    9 1
    15    7    8 1
    16    8   25 1
    17    9   26 1
    18   10   11 1
    19   11   16 ar
    20   11   12 ar
    21   12   13 ar
    22   12   27 1
    23   13   14 ar
    24   13   20 1
    25   14   15 ar
    26   14   28 1
    27   15   16 ar
    28   15   19 1
    29   16   17 1
    30   17   18 2
    31   19   29 1
    32   20   30 1
@<TRIPOS>MOLECULE
ZINC39716080
   55    58     0     0     0
SMALL
USER_CHARGES

@<TRIPOS>ATOM
      1 C1          1.3709    0.9111    1.0902 C.3       1 <0>        -0.1500
      2 C2          0.8626   -0.4828    0.7164 C.3       1 <0>        -0.0138
      3 O1          1.5780   -0.9605   -0.4246 O.3       1 <0>        -0.2863
      4 C3          1.2738   -2.2022   -0.8641 C.2       1 <0>         0.2884
      5 C4          1.9722   -2.7703   -1.9417 C.2       1 <0>        -0.2388
      6 C5          1.6579   -4.0136   -2.3716 C.2       1 <0>         0.1912
      7 N1          0.6716   -4.7371   -1.7802 N.am      1 <0>        -0.4588
      8 C6         -0.0307   -4.2436   -0.7433 C.2       1 <0>         0.5583
      9 O2         -0.9109   -4.9119   -0.2287 O.2       1 <0>        -0.5208
     10 C7          0.2582   -2.9493   -0.2479 C.2       1 <0>        -0.3934
     11 C8         -0.4935   -2.3973    0.8847 C.2       1 <0>         0.6183
     12 O3         -0.0910   -2.5638    2.0211 O.2       1 <0>        -0.5010
     13 N2         -1.6297   -1.7060    0.6666 N.am      1 <0>        -0.6687
     14 C9         -2.2973   -1.1003    1.7381 C.ar      1 <0>         0.1889
     15 C10        -1.5939   -0.7393    2.8798 C.ar      1 <0>        -0.1353
     16 C11        -2.2520   -0.1418    3.9369 C.ar      1 <0>        -0.0623
     17 C12        -3.6157    0.0981    3.8594 C.ar      1 <0>         0.0222
     18 C13        -4.3209   -0.2625    2.7179 C.ar      1 <0>         0.1272
     19 C14        -3.6616   -0.8554    1.6571 C.ar      1 <0>        -0.1748
     20 F1         -5.6496   -0.0295    2.6427 F         1 <0>        -0.1204
     21 O4         -4.2629    0.6861    4.9011 O.3       1 <0>        -0.2283
     22 C15        -4.8804   -0.1183    5.8035 C.ar      1 <0>         0.2111
     23 C16        -4.7587   -1.5058    5.7249 C.ar      1 <0>        -0.2962
     24 C17        -5.3988   -2.2921    6.6581 C.ar      1 <0>         0.1928
     25 N3         -6.1224   -1.7502    7.6209 N.ar      1 <0>        -0.5470
     26 C18        -6.2644   -0.4378    7.7323 C.ar      1 <0>         0.4493
     27 C19        -5.6448    0.4207    6.8319 C.ar      1 <0>        -0.1891
     28 Cl1        -5.8279    2.1401    6.9855 Cl        1 <0>        -0.0463
     29 N4         -7.0368    0.0864    8.7636 N.pl3     1 <0>        -0.8375
     30 C20         0.3796   -6.0211   -2.2590 C.ar      1 <0>         0.0846
     31 C21        -0.8417   -6.2745   -2.8691 C.ar      1 <0>        -0.0573
     32 C22        -1.1277   -7.5407   -3.3403 C.ar      1 <0>        -0.1416
     33 C23        -0.1974   -8.5575   -3.2043 C.ar      1 <0>         0.1182
     34 C24         1.0213   -8.3069   -2.5961 C.ar      1 <0>        -0.1418
     35 C25         1.3134   -7.0405   -2.1291 C.ar      1 <0>        -0.0757
     36 F2         -0.4793   -9.7958   -3.6651 F         1 <0>        -0.1305
     37 H1          2.4344    0.8595    1.3235 H         1 <0>         0.0712
     38 H2          1.2153    1.5912    0.2527 H         1 <0>         0.0688
     39 H3          0.8252    1.2755    1.9605 H         1 <0>         0.0855
     40 H4          1.0182   -1.1629    1.5538 H         1 <0>         0.1059
     41 H5         -0.2009   -0.4312    0.4830 H         1 <0>         0.0892
     42 H6          2.7603   -2.2141   -2.4276 H         1 <0>         0.1700
     43 H7          2.2016   -4.4397   -3.2018 H         1 <0>         0.1815
     44 H8         -1.9850   -1.6281   -0.2326 H         1 <0>         0.4184
     45 H9         -0.5320   -0.9261    2.9413 H         1 <0>         0.1608
     46 H10        -1.7044    0.1383    4.8246 H         1 <0>         0.1504
     47 H11        -4.2083   -1.1319    0.7676 H         1 <0>         0.1503
     48 H12        -4.1696   -1.9586    4.9412 H         1 <0>         0.1433
     49 H13        -5.3078   -3.3667    6.6012 H         1 <0>         0.1690
     50 H14        -7.4683   -0.5084    9.3968 H         1 <0>         0.4115
     51 H15        -7.1439    1.0466    8.8495 H         1 <0>         0.4122
     52 H16        -1.5677   -5.4819   -2.9747 H         1 <0>         0.1389
     53 H17        -2.0775   -7.7381   -3.8149 H         1 <0>         0.1476
     54 H18         1.7454   -9.1012   -2.4910 H         1 <0>         0.1484
     55 H19         2.2658   -6.8442   -1.6592 H         1 <0>         0.1425
@<TRIPOS>BOND
     1    1    2 1
     2    1   37 1
     3    1   38 1
     4    1   39 1
     5    2    3 1
     6    2   40 1
     7    2   41 1
     8    3    4 1
     9    4   10 2
    10    4    5 1
    11    5    6 2
    12    5   42 1
    13    6    7 1
    14    6   43 1
    15    7    8 am
    16    7   30 1
    17    8    9 2
    18    8   10 1
    19   10   11 1
    20   11   12 2
    21   11   13 am
    22   13   14 1
    23   13   44 1
    24   14   19 ar
    25   14   15 ar
    26   15   16 ar
    27   15   45 1
    28   16   17 ar
    29   16   46 1
    30   17   18 ar
    31   17   21 1
    32   18   19 ar
    33   18   20 1
    34   19   47 1
    35   21   22 1
    36   22   27 ar
    37   22   23 ar
    38   23   24 ar
    39   23   48 1
    40   24   25 ar
    41   24   49 1
    42   25   26 ar
    43   26   27 ar
    44   26   29 1
    45   27   28 1
    46   29   50 1
    47   29   51 1
    48   30   35 ar
    49   30   31 ar
    50   31   32 ar
    51   31   52 1
    52   32   33 ar
    53   32   53 1
    54   33   34 ar
    55   33   36 1
    56   34   35 ar
    57   34   54 1
    58   35   55 1
@<TRIPOS>MOLECULE
ZINC05765089
   29    31     0     0     0
SMALL
USER_CHARGES

@<TRIPOS>ATOM
      1 C1         -0.0184    1.5028    0.0103 C.3       1 <0>        -0.1367
      2 C2          0.0021   -0.0041    0.0020 C.ar      1 <0>         0.0282
      3 C3         -0.0973   -0.6847   -1.1788 C.ar      1 <0>        -0.1804
      4 C4         -0.0792   -2.0771   -1.1881 C.ar      1 <0>         0.1822
      5 C5          0.0345   -2.7895   -0.0055 C.ar      1 <0>        -0.1820
      6 C6          0.1334   -2.1139    1.2039 C.ar      1 <0>         0.1783
      7 C7          0.1281   -0.7086    1.1986 C.ar      1 <0>        -0.2401
      8 C8          0.2606   -0.0000    2.4884 C.2       1 <0>         0.4451
      9 O1          0.0373    1.1924    2.5965 O.2       1 <0>        -0.4312
     10 C9          0.6790   -0.8246    3.6365 C.ar      1 <0>        -0.2676
     11 C10         1.0900   -0.2324    4.8377 C.ar      1 <0>         0.2207
     12 C11         1.4887   -1.0348    5.8911 C.ar      1 <0>        -0.2061
     13 C12         1.4773   -2.4184    5.7537 C.ar      1 <0>         0.1948
     14 C13         1.0665   -3.0096    4.5691 C.ar      1 <0>        -0.1861
     15 C14         0.6594   -2.2235    3.5001 C.ar      1 <0>         0.1917
     16 O2          0.2346   -2.8057    2.3566 O.3       1 <0>        -0.2230
     17 O3          1.8734   -3.1989    6.7909 O.3       1 <0>        -0.4878
     18 O4          1.0974    1.1182    4.9664 O.3       1 <0>        -0.4756
     19 O5         -0.1745   -2.7426   -2.3671 O.3       1 <0>        -0.4906
     20 H1          1.0041    1.8799    0.0331 H         1 <0>         0.0805
     21 H2         -0.5190    1.8643   -0.8879 H         1 <0>         0.0715
     22 H3         -0.5549    1.8540    0.8917 H         1 <0>         0.1033
     23 H4         -0.1904   -0.1412   -2.1075 H         1 <0>         0.1438
     24 H5          0.0459   -3.8693   -0.0240 H         1 <0>         0.1507
     25 H6          1.8091   -0.5869    6.8201 H         1 <0>         0.1508
     26 H7          1.0628   -4.0857    4.4778 H         1 <0>         0.1534
     27 H8          1.1576   -3.4480    7.3914 H         1 <0>         0.4043
     28 H9          0.2677    1.4861    5.3001 H         1 <0>         0.4052
     29 H10         0.6778   -2.9235   -2.7866 H         1 <0>         0.4025
@<TRIPOS>BOND
     1    1    2 1
     2    1   20 1
     3    1   21 1
     4    1   22 1
     5    2    7 ar
     6    2    3 ar
     7    3    4 ar
     8    3   23 1
     9    4    5 ar
    10    4   19 1
    11    5    6 ar
    12    5   24 1
    13    6   16 1
    14    6    7 ar
    15    7    8 1
    16    8    9 2
    17    8   10 1
    18   10   15 ar
    19   10   11 ar
    20   11   12 ar
    21   11   18 1
    22   12   13 ar
    23   12   25 1
    24   13   14 ar
    25   13   17 1
    26   14   15 ar
    27   14   26 1
    28   15   16 1
    29   17   27 1
    30   18   28 1
    31   19   29 1
@<TRIPOS>MOLECULE
ZINC05765089
   28    30     0     0     0
SMALL
USER_CHARGES

@<TRIPOS>ATOM
      1 C1         -0.0184    1.5028    0.0103 C.3       1 <0>        -0.0946
      2 C2          0.0021   -0.0041    0.0020 C.2       1 <0>         0.0591
      3 C3         -0.0968   -0.6775   -1.1722 C.2       1 <0>        -0.3221
      4 C4         -0.0783   -2.0856   -1.1867 C.2       1 <0>         0.4022
      5 O1         -0.1681   -2.6860   -2.2518 O.2       1 <0>        -0.5987
      6 C5          0.0425   -2.8026    0.0086 C.2       1 <0>        -0.3470
      7 C6          0.1436   -2.1263    1.2084 C.2       1 <0>         0.2078
      8 O2          0.2608   -2.8142    2.3642 O.3       1 <0>        -0.2309
      9 C7          0.3622   -2.1866    3.5553 C.ar      1 <0>         0.1969
     10 C8          0.4816   -2.9256    4.7214 C.ar      1 <0>        -0.1992
     11 C9          0.5864   -2.2840    5.9466 C.ar      1 <0>         0.1800
     12 C10         0.5734   -0.8945    6.0237 C.ar      1 <0>        -0.2252
     13 C11         0.4551   -0.1369    4.8762 C.ar      1 <0>         0.2188
     14 C12         0.3485   -0.7788    3.6264 C.ar      1 <0>        -0.2281
     15 C13         0.2270   -0.0212    2.4378 C.2       1 <0>         0.3730
     16 C14         0.1294   -0.7127    1.2115 C.2       1 <0>        -0.3487
     17 O3          0.2105    1.3262    2.4751 O.3       1 <0>        -0.5701
     18 O4          0.4414    1.2171    4.9510 O.3       1 <0>        -0.4672
     19 O5          0.7023   -3.0184    7.0814 O.3       1 <0>        -0.4921
     20 H1          0.9099    1.8764    0.4425 H         1 <0>         0.0718
     21 H2         -0.1174    1.8704   -1.0110 H         1 <0>         0.0406
     22 H3         -0.8624    1.8514    0.6054 H         1 <0>         0.0727
     23 H4         -0.1903   -0.1313   -2.0992 H         1 <0>         0.1086
     24 H5          0.0562   -3.8824   -0.0069 H         1 <0>         0.1152
     25 H6          0.4926   -4.0046    4.6761 H         1 <0>         0.1454
     26 H7          0.6557   -0.4076    6.9842 H         1 <0>         0.1400
     27 H8          1.3170    1.6232    4.8909 H         1 <0>         0.3962
     28 H9          1.6154   -3.2188    7.3287 H         1 <0>         0.3956
@<TRIPOS>BOND
     1    1    2 1
     2    1   20 1
     3    1   21 1
     4    1   22 1
     5    2   16 1
     6    2    3 2
     7    3    4 1
     8    3   23 1
     9    4    5 2
    10    4    6 1
    11    6    7 2
    12    6   24 1
    13    7   16 1
    14    7    8 1
    15    8    9 1
    16    9   14 ar
    17    9   10 ar
    18   10   11 ar
    19   10   25 1
    20   11   12 ar
    21   11   19 1
    22   12   13 ar
    23   12   26 1
    24   13   14 ar
    25   13   18 1
    26   14   15 1
    27   15   16 2
    28   15   17 1
    29   18   27 1
    30   19   28 1
@<TRIPOS>MOLECULE
ZINC03950132
   46    49     0     0     0
SMALL
USER_CHARGES
4-(2-amino-4-methyl-thiazol-5-yl)-N-(4-morpholinophenyl)-pyrimidin-2-amine
@<TRIPOS>ATOM
      1 C1          4.1560   -0.7976    0.1288 C.3       1 <0>        -0.0903
      2 C2          5.0273    0.0086   -0.7995 C.2       1 <0>         0.1857
      3 C3          4.5164    1.0708   -1.5011 C.2       1 <0>        -0.2392
      4 S1          5.9673    1.6025   -2.3985 S.3       1 <0>         0.0763
      5 C4          7.0692    0.4161   -1.7712 C.2       1 <0>         0.3657
      6 N1          6.2965   -0.2857   -0.9592 N.2       1 <0>        -0.5890
      7 N2          8.4111    0.2448   -2.0535 N.pl3     1 <0>        -0.7876
      8 C5          3.1483    1.6180   -1.5155 C.ar      1 <0>         0.3312
      9 C6          2.8322    2.7257   -2.3152 C.ar      1 <0>        -0.2802
     10 C7          1.5368    3.2027   -2.2949 C.ar      1 <0>         0.1966
     11 N3          0.6368    2.6054   -1.5271 N.ar      1 <0>        -0.5647
     12 C8          0.9611    1.5596   -0.7803 C.ar      1 <0>         0.5701
     13 N4          2.1912    1.0711   -0.7636 N.ar      1 <0>        -0.5604
     14 N5         -0.0111    0.9658    0.0074 N.pl3     1 <0>        -0.6370
     15 C9         -1.2863    1.5388    0.0969 C.ar      1 <0>         0.1437
     16 C10        -1.4323    2.9189    0.0487 C.ar      1 <0>        -0.0851
     17 C11        -2.6897    3.4834    0.1313 C.ar      1 <0>        -0.1473
     18 C12        -3.8073    2.6715    0.2739 C.ar      1 <0>         0.0899
     19 C13        -3.6607    1.2916    0.3278 C.ar      1 <0>        -0.1158
     20 C14        -2.4038    0.7269    0.2395 C.ar      1 <0>        -0.1224
     21 N6         -5.0813    3.2440    0.3639 N.pl3     1 <0>        -0.4867
     22 C15        -5.9729    2.7112   -0.6765 C.3       1 <0>         0.0197
     23 C16        -7.3681    3.3176   -0.5049 C.3       1 <0>         0.0614
     24 O1         -7.2718    4.7437   -0.5527 O.3       1 <0>        -0.3833
     25 C17        -6.4117    5.2965    0.4473 C.3       1 <0>         0.0618
     26 C18        -5.0068    4.7101    0.2853 C.3       1 <0>         0.0127
     27 H1          3.7021   -1.6212   -0.4225 H         1 <0>         0.0783
     28 H2          4.7625   -1.1956    0.9423 H         1 <0>         0.0703
     29 H3          3.3730   -0.1593    0.5381 H         1 <0>         0.1010
     30 H4          8.9087   -0.4711   -1.6283 H         1 <0>         0.4198
     31 H5          8.8554    0.8405   -2.6769 H         1 <0>         0.4237
     32 H6          3.5844    3.1948   -2.9320 H         1 <0>         0.1421
     33 H7          1.2595    4.0540   -2.8990 H         1 <0>         0.1715
     34 H8          0.1898    0.1510    0.4938 H         1 <0>         0.4230
     35 H9         -0.5628    3.5505   -0.0578 H         1 <0>         0.1350
     36 H10        -2.8037    4.5566    0.0890 H         1 <0>         0.1283
     37 H11        -4.5298    0.6602    0.4391 H         1 <0>         0.1282
     38 H12        -2.2898   -0.3462    0.2811 H         1 <0>         0.1273
     39 H13        -5.5813    2.9716   -1.6599 H         1 <0>         0.0534
     40 H14        -6.0334    1.6268   -0.5837 H         1 <0>         0.0927
     41 H15        -7.7817    3.0127    0.4564 H         1 <0>         0.0622
     42 H16        -8.0182    2.9696   -1.3076 H         1 <0>         0.1028
     43 H17        -6.7975    5.0492    1.4363 H         1 <0>         0.0619
     44 H18        -6.3694    6.3797    0.3336 H         1 <0>         0.1028
     45 H19        -4.3621    5.0849    1.0802 H         1 <0>         0.0937
     46 H20        -4.5990    5.0025   -0.6823 H         1 <0>         0.0563
@<TRIPOS>BOND
     1    1    2 1
     2    1   27 1
     3    1   28 1
     4    1   29 1
     5    2    6 1
     6    2    3 2
     7    3    4 1
     8    3    8 1
     9    4    5 1
    10    5    6 2
    11    5    7 1
    12    7   30 1
    13    7   31 1
    14    8   13 ar
    15    8    9 ar
    16    9   10 ar
    17    9   32 1
    18   10   11 ar
    19   10   33 1
    20   11   12 ar
    21   12   13 ar
    22   12   14 1
    23   14   15 1
    24   14   34 1
    25   15   20 ar
    26   15   16 ar
    27   16   17 ar
    28   16   35 1
    29   17   18 ar
    30   17   36 1
    31   18   19 ar
    32   18   21 1
    33   19   20 ar
    34   19   37 1
    35   20   38 1
    36   21   26 1
    37   21   22 1
    38   22   23 1
    39   22   39 1
    40   22   40 1
    41   23   24 1
    42   23   41 1
    43   23   42 1
    44   24   25 1
    45   25   26 1
    46   25   43 1
    47   25   44 1
    48   26   45 1
    49   26   46 1
@<TRIPOS>MOLECULE
ZINC34885047
   54    57     0     0     0
SMALL
USER_CHARGES

@<TRIPOS>ATOM
      1 C1          0.1956   -8.1849    0.9094 C.3       1 <0>        -0.0785
      2 C2          0.1293   -6.7057    0.6288 C.2       1 <0>         0.0885
      3 C3          0.1319   -5.6909    1.5895 C.2       1 <0>        -0.2739
      4 C4          0.0607   -4.4980    0.9369 C.2       1 <0>         0.3068
      5 N1          0.0151   -4.7636   -0.3942 N.pl3     1 <0>        -0.4950
      6 N2          0.0654   -6.1540   -0.5558 N.2       1 <0>        -0.2801
      7 H1         -0.0392   -4.1072   -1.1063 H         1 <0>         0.4357
      8 N3          0.0383   -3.2359    1.5267 N.pl3     1 <0>        -0.6259
      9 C5         -0.0499   -3.1163    2.9062 C.ar      1 <0>         0.4764
     10 C6         -0.1829   -1.8625    3.4985 C.ar      1 <0>        -0.3500
     11 C7         -0.2684   -1.7891    4.8868 C.ar      1 <0>         0.4670
     12 N4         -0.2207   -2.9110    5.5990 N.ar      1 <0>        -0.5905
     13 C8         -0.0933   -4.0907    5.0014 C.ar      1 <0>         0.4457
     14 N5         -0.0141   -4.1975    3.6794 N.ar      1 <0>        -0.5725
     15 C9         -0.0437   -5.3108    5.8245 C.2       1 <0>        -0.1368
     16 C10        -0.0261   -6.5180    5.2356 C.2       1 <0>        -0.0158
     17 C11        -0.0947   -7.7396    6.0570 C.ar      1 <0>        -0.0835
     18 C12        -0.1840   -7.6460    7.4485 C.ar      1 <0>        -0.1003
     19 C13        -0.2478   -8.7936    8.2106 C.ar      1 <0>        -0.1231
     20 C14        -0.2236  -10.0356    7.6008 C.ar      1 <0>        -0.1032
     21 C15        -0.1348  -10.1361    6.2234 C.ar      1 <0>        -0.1213
     22 C16        -0.0766   -8.9972    5.4478 C.ar      1 <0>        -0.0908
     23 N6         -0.4010   -0.5618    5.5181 N.pl3     1 <0>        -0.6188
     24 C17        -0.2758   -0.4454    6.9792 C.3       1 <0>         0.1037
     25 C18         0.7164    0.6792    7.2935 C.3       1 <0>        -0.0227
     26 N7          0.2862    1.9120    6.6219 N.4       1 <0>        -0.3852
     27 C19         0.3403    1.7332    5.1655 C.3       1 <0>        -0.0217
     28 C20        -0.6649    0.6617    4.7452 C.3       1 <0>         0.0996
     29 C21         1.1746    3.0152    7.0113 C.3       1 <0>        -0.0471
     30 H2         -0.8145   -8.5793    1.0198 H         1 <0>         0.0807
     31 H3          0.6944   -8.6897    0.0821 H         1 <0>         0.0762
     32 H4          0.7547   -8.3554    1.8294 H         1 <0>         0.0794
     33 H5          0.1811   -5.8284    2.6596 H         1 <0>         0.1832
     34 H6          0.0843   -2.4408    0.9729 H         1 <0>         0.4221
     35 H7         -0.2185   -0.9676    2.8949 H         1 <0>         0.1410
     36 H8         -0.0216   -5.2351    6.9016 H         1 <0>         0.1430
     37 H9          0.0384   -6.5933    4.1601 H         1 <0>         0.1401
     38 H10        -0.2026   -6.6774    7.9258 H         1 <0>         0.1261
     39 H11        -0.3164   -8.7229    9.2861 H         1 <0>         0.1262
     40 H12        -0.2738  -10.9309    8.2027 H         1 <0>         0.1261
     41 H13        -0.1161  -11.1088    5.7544 H         1 <0>         0.1287
     42 H14        -0.0122   -9.0771    4.3727 H         1 <0>         0.1300
     43 H15        -1.2475   -0.2082    7.4123 H         1 <0>         0.0911
     44 H16         0.0927   -1.3848    7.3912 H         1 <0>         0.1398
     45 H17         0.7492    0.8444    8.3704 H         1 <0>         0.1444
     46 H18         1.7080    0.3988    6.9383 H         1 <0>         0.1323
     47 H19         0.0960    2.6751    4.6743 H         1 <0>         0.1450
     48 H20         1.3433    1.4209    4.8747 H         1 <0>         0.1335
     49 H21        -0.5535    0.4539    3.6810 H         1 <0>         0.1288
     50 H22        -1.6766    1.0126    4.9489 H         1 <0>         0.0961
     51 H23         2.1975    2.7788    6.7180 H         1 <0>         0.1218
     52 H24         0.8564    3.9311    6.5134 H         1 <0>         0.1255
     53 H25         1.1293    3.1543    8.0915 H         1 <0>         0.1264
     54 H26        -0.6592    2.1315    6.8977 H         1 <0>         0.4258
@<TRIPOS>BOND
     1    1    2 1
     2    1   30 1
     3    1   31 1
     4    1   32 1
     5    2    3 1
     6    2    6 2
     7    3   33 1
     8    3    4 2
     9    4    8 1
    10    4    5 1
    11    5    7 1
    12    5    6 1
    13    8    9 1
    14    8   34 1
    15    9   14 ar
    16    9   10 ar
    17   10   11 ar
    18   10   35 1
    19   11   12 ar
    20   11   23 1
    21   12   13 ar
    22   13   14 ar
    23   13   15 1
    24   15   16 2
    25   15   36 1
    26   16   17 1
    27   16   37 1
    28   17   22 ar
    29   17   18 ar
    30   18   19 ar
    31   18   38 1
    32   19   20 ar
    33   19   39 1
    34   20   21 ar
    35   20   40 1
    36   21   22 ar
    37   21   41 1
    38   22   42 1
    39   23   28 1
    40   23   24 1
    41   24   25 1
    42   24   43 1
    43   24   44 1
    44   25   26 1
    45   25   45 1
    46   25   46 1
    47   26   27 1
    48   26   29 1
    49   26   54 1
    50   27   28 1
    51   27   47 1
    52   27   48 1
    53   28   49 1
    54   28   50 1
    55   29   51 1
    56   29   52 1
    57   29   53 1
@<TRIPOS>MOLECULE
ZINC34885047
   55    58     0     0     0
SMALL
USER_CHARGES

@<TRIPOS>ATOM
      1 C1          0.7214   -0.2663   -2.4222 C.3       1 <0>        -0.0896
      2 C2          0.7310   -0.8132   -1.0180 C.2       1 <0>         0.1183
      3 C3          0.2120   -2.0476   -0.6184 C.2       1 <0>        -0.2385
      4 C4          0.4140   -2.1711    0.7225 C.2       1 <0>         0.2867
      5 N1          1.0419   -1.0437    1.1458 N.pl3     1 <0>        -0.5013
      6 N2          1.2317   -0.2152    0.0324 N.2       1 <0>        -0.2605
      7 H1          1.3135   -0.8484    2.0563 H         1 <0>         0.4322
      8 N3          0.0439   -3.2554    1.5154 N.pl3     1 <0>        -0.6090
      9 C5          0.1546   -3.1750    2.8961 C.ar      1 <0>         0.4957
     10 C6          0.1324   -1.9371    3.5347 C.ar      1 <0>        -0.3535
     11 C7          0.2461   -1.9033    4.9224 C.ar      1 <0>         0.5251
     12 N4          0.3713   -3.0463    5.5904 N.ar      1 <0>        -0.5525
     13 C8          0.3887   -4.2099    4.9493 C.ar      1 <0>         0.5207
     14 N5          0.2776   -4.2790    3.6270 N.ar      1 <0>        -0.5647
     15 C9          0.5296   -5.4543    5.7239 C.2       1 <0>        -0.2363
     16 C10         0.6385   -5.4039    7.0618 C.2       1 <0>         0.0998
     17 C11         0.7794   -6.6492    7.8370 C.ar      1 <0>        -0.1304
     18 C12         0.8059   -7.8841    7.1832 C.ar      1 <0>        -0.0787
     19 C13         0.9380   -9.0454    7.9153 C.ar      1 <0>        -0.1241
     20 C14         1.0442   -8.9899    9.2940 C.ar      1 <0>        -0.0698
     21 C15         1.0183   -7.7708    9.9483 C.ar      1 <0>        -0.1245
     22 C16         0.8930   -6.6008    9.2290 C.ar      1 <0>        -0.0687
     23 N6          0.2292   -0.6931    5.5989 N.pl3     1 <0>        -0.5876
     24 C17         0.5614   -0.6220    7.0302 C.3       1 <0>         0.0889
     25 C18         1.6111    0.4759    7.2312 C.3       1 <0>        -0.0237
     26 N7          1.1165    1.7352    6.6605 N.4       1 <0>        -0.3873
     27 C19         0.9612    1.5985    5.2068 C.3       1 <0>        -0.0238
     28 C20        -0.1153    0.5570    4.9042 C.3       1 <0>         0.0845
     29 C21         2.0737    2.8112    6.9499 C.3       1 <0>        -0.0496
     30 H2         -0.1921    0.3062   -2.5829 H         1 <0>         0.0915
     31 H3          1.5862    0.3815   -2.5657 H         1 <0>         0.0851
     32 H4          0.7632   -1.0911   -3.1336 H         1 <0>         0.0909
     33 H5         -0.2649   -2.7744   -1.2592 H         1 <0>         0.1692
     34 H6         -0.2912   -4.0664    1.1020 H         1 <0>         0.4507
     35 H7          0.0299   -1.0244    2.9665 H         1 <0>         0.1793
     36 H8          0.5453   -6.4075    5.2163 H         1 <0>         0.1645
     37 H9          0.6228   -4.4507    7.5694 H         1 <0>         0.1470
     38 H10         0.7228   -7.9289    6.1073 H         1 <0>         0.1294
     39 H11         0.9583  -10.0004    7.4115 H         1 <0>         0.1370
     40 H12         1.1475   -9.9026    9.8621 H         1 <0>         0.1375
     41 H13         1.1014   -7.7353   11.0245 H         1 <0>         0.1378
     42 H14         0.8778   -5.6498    9.7406 H         1 <0>         0.1330
     43 H15        -0.3345   -0.3813    7.6026 H         1 <0>         0.1122
     44 H16         0.9646   -1.5792    7.3607 H         1 <0>         0.1449
     45 H17         1.7987    0.6087    8.2967 H         1 <0>         0.1566
     46 H18         2.5368    0.1895    6.7320 H         1 <0>         0.1374
     47 H19         0.6699    2.5584    4.7805 H         1 <0>         0.1589
     48 H20         1.9066    1.2781    4.7689 H         1 <0>         0.1387
     49 H21        -0.1592    0.3788    3.8297 H         1 <0>         0.1301
     50 H22        -1.0806    0.9187    5.2582 H         1 <0>         0.1200
     51 H23         3.0399    2.5664    6.5087 H         1 <0>         0.1254
     52 H24         1.7077    3.7467    6.5267 H         1 <0>         0.1318
     53 H25         2.1839    2.9191    8.0289 H         1 <0>         0.1322
     54 H26         0.2241    1.9623    7.0730 H         1 <0>         0.4301
     55 H27         0.2900   -5.1446    3.1895 H         1 <0>         0.4509
@<TRIPOS>BOND
     1    1    2 1
     2    1   30 1
     3    1   31 1
     4    1   32 1
     5    2    3 1
     6    2    6 2
     7    3   33 1
     8    3    4 2
     9    4    8 1
    10    4    5 1
    11    5    7 1
    12    5    6 1
    13    8    9 1
    14    8   34 1
    15    9   14 ar
    16    9   10 ar
    17   10   11 ar
    18   10   35 1
    19   11   12 ar
    20   11   23 1
    21   12   13 ar
    22   13   14 ar
    23   13   15 1
    24   14   55 1
    25   15   16 2
    26   15   36 1
    27   16   17 1
    28   16   37 1
    29   17   22 ar
    30   17   18 ar
    31   18   19 ar
    32   18   38 1
    33   19   20 ar
    34   19   39 1
    35   20   21 ar
    36   20   40 1
    37   21   22 ar
    38   21   41 1
    39   22   42 1
    40   23   28 1
    41   23   24 1
    42   24   25 1
    43   24   43 1
    44   24   44 1
    45   25   26 1
    46   25   45 1
    47   25   46 1
    48   26   27 1
    49   26   29 1
    50   26   54 1
    51   27   28 1
    52   27   47 1
    53   27   48 1
    54   28   49 1
    55   28   50 1
    56   29   51 1
    57   29   52 1
    58   29   53 1
@<TRIPOS>MOLECULE
ZINC34885047
   55    58     0     0     0
SMALL
USER_CHARGES

@<TRIPOS>ATOM
      1 C1          0.7372   -0.2667   -2.4212 C.3       1 <0>        -0.1308
      2 C2          0.7435   -0.8136   -1.0170 C.2       1 <0>         0.2826
      3 C3          0.2224   -2.0474   -0.6184 C.2       1 <0>        -0.2481
      4 C4          0.4217   -2.1712    0.7229 C.2       1 <0>         0.4500
      5 N1          1.0500   -1.0445    1.1473 N.pl3     1 <0>        -0.4632
      6 N2          1.2428   -0.2161    0.0343 N.pl3     1 <0>        -0.3667
      7 N3          0.0489   -3.2551    1.5150 N.pl3     1 <0>        -0.6164
      8 C5          0.1571   -3.1749    2.8959 C.ar      1 <0>         0.4695
      9 C6          0.1350   -1.9370    3.5345 C.ar      1 <0>        -0.3443
     10 C7          0.2461   -1.9033    4.9224 C.ar      1 <0>         0.5141
     11 N4          0.3689   -3.0464    5.5906 N.ar      1 <0>        -0.5388
     12 C8          0.3862   -4.2100    4.9495 C.ar      1 <0>         0.5195
     13 N5          0.2775   -4.2790    3.6270 N.ar      1 <0>        -0.5664
     14 C9          0.5243   -5.4546    5.7243 C.2       1 <0>        -0.2414
     15 C10         0.6307   -5.4044    7.0624 C.2       1 <0>         0.1062
     16 C11         0.7689   -6.6499    7.8379 C.ar      1 <0>        -0.1314
     17 C12         0.7953   -7.8847    7.1841 C.ar      1 <0>        -0.0784
     18 C13         0.9248   -9.0462    7.9165 C.ar      1 <0>        -0.1260
     19 C14         1.0285   -8.9908    9.2953 C.ar      1 <0>        -0.0689
     20 C15         1.0026   -7.7718    9.9496 C.ar      1 <0>        -0.1241
     21 C16         0.8799   -6.6016    9.2301 C.ar      1 <0>        -0.0654
     22 N6          0.2292   -0.6931    5.5989 N.pl3     1 <0>        -0.5319
     23 C17         0.5615   -0.6236    7.0299 C.3       1 <0>         0.1037
     24 C18         1.6253    0.4609    7.2305 C.3       1 <0>         0.0354
     25 N7          1.1532    1.7207    6.6405 N.3       1 <0>        -0.5413
     26 C19         0.9694    1.5932    5.1886 C.3       1 <0>         0.0348
     27 C20        -0.1154    0.5559    4.9030 C.3       1 <0>         0.1032
     28 C21         2.0657    2.8265    6.9606 C.3       1 <0>         0.0210
     29 H1         -0.1754    0.3068   -2.5837 H         1 <0>         0.1328
     30 H2          1.6030    0.3802   -2.5631 H         1 <0>         0.1112
     31 H3          0.7794   -1.0915   -3.1326 H         1 <0>         0.1328
     32 H4         -0.2541   -2.7737   -1.2602 H         1 <0>         0.2144
     33 H5         -0.2863   -4.0658    1.1010 H         1 <0>         0.4654
     34 H6          0.0345   -1.0241    2.9661 H         1 <0>         0.1704
     35 H7          0.5400   -6.4078    5.2168 H         1 <0>         0.1646
     36 H8          0.6151   -4.4512    7.5700 H         1 <0>         0.1502
     37 H9          0.7142   -7.9295    6.1081 H         1 <0>         0.1285
     38 H10         0.9450  -10.0013    7.4126 H         1 <0>         0.1364
     39 H11         1.1297   -9.9036    9.8636 H         1 <0>         0.1374
     40 H12         1.0836   -7.7363   11.0260 H         1 <0>         0.1386
     41 H13         0.8647   -5.6505    9.7417 H         1 <0>         0.1356
     42 H14        -0.3316   -0.3705    7.6013 H         1 <0>         0.1068
     43 H15         0.9519   -1.5854    7.3624 H         1 <0>         0.1142
     44 H16         1.8036    0.6029    8.2964 H         1 <0>         0.1111
     45 H17         2.5518    0.1561    6.7438 H         1 <0>         0.0456
     46 H18         0.6720    2.5562    4.7737 H         1 <0>         0.1081
     47 H19         1.9050    1.2725    4.7304 H         1 <0>         0.0409
     48 H20        -0.1723    0.3735    3.8298 H         1 <0>         0.0837
     49 H21        -1.0748    0.9246    5.2659 H         1 <0>         0.1158
     50 H22         3.0571    2.6054    6.5653 H         1 <0>         0.0334
     51 H23         1.6925    3.7470    6.5117 H         1 <0>         0.0800
     52 H24         2.1244    2.9476    8.0422 H         1 <0>         0.0840
     53 H25         0.2899   -5.1446    3.1895 H         1 <0>         0.4506
     54 H26         1.3201   -0.8495    2.0583 H         1 <0>         0.4677
     55 H27         1.6717    0.6539    0.0421 H         1 <0>         0.4835
@<TRIPOS>BOND
     1    1    2 1
     2    1   29 1
     3    1   30 1
     4    1   31 1
     5    2    3 1
     6    2    6 2
     7    3   32 1
     8    3    4 2
     9    4    7 1
    10    4    5 1
    11    5   54 1
    12    5    6 1
    13    6   55 1
    14    7    8 1
    15    7   33 1
    16    8   13 ar
    17    8    9 ar
    18    9   10 ar
    19    9   34 1
    20   10   11 ar
    21   10   22 1
    22   11   12 ar
    23   12   13 ar
    24   12   14 1
    25   13   53 1
    26   14   15 2
    27   14   35 1
    28   15   16 1
    29   15   36 1
    30   16   21 ar
    31   16   17 ar
    32   17   18 ar
    33   17   37 1
    34   18   19 ar
    35   18   38 1
    36   19   20 ar
    37   19   39 1
    38   20   21 ar
    39   20   40 1
    40   21   41 1
    41   22   27 1
    42   22   23 1
    43   23   24 1
    44   23   42 1
    45   23   43 1
    46   24   25 1
    47   24   44 1
    48   24   45 1
    49   25   26 1
    50   25   28 1
    51   26   27 1
    52   26   46 1
    53   26   47 1
    54   27   48 1
    55   27   49 1
    56   28   50 1
    57   28   51 1
    58   28   52 1
@<TRIPOS>MOLECULE
ZINC40939534
   56    60     0     0     0
SMALL
USER_CHARGES

@<TRIPOS>ATOM
      1 C1         -0.2040    0.9845   -0.8352 C.3       1 <0>         0.0256
      2 O1         -0.0835   -0.4284   -0.6587 O.3       1 <0>        -0.3017
      3 C2         -1.2319   -1.1517   -0.6765 C.ar      1 <0>         0.1866
      4 C3         -2.4502   -0.5183   -0.8655 C.ar      1 <0>        -0.2196
      5 C4         -3.6193   -1.2543   -0.8837 C.ar      1 <0>        -0.0395
      6 C5         -3.5850   -2.6274   -0.7142 C.ar      1 <0>        -0.1916
      7 C6         -2.3795   -3.2754   -0.5250 C.ar      1 <0>         0.1598
      8 C7         -1.1898   -2.5415   -0.5097 C.ar      1 <0>        -0.1236
      9 C8          0.1047   -3.2278   -0.3129 C.2       1 <0>         0.2678
     10 N1          0.5160   -3.3730    0.8954 N.2       1 <0>        -0.4689
     11 C9          1.7785   -4.0272    1.2217 C.3       1 <0>         0.0956
     12 C10         2.9199   -3.2056    0.6935 C.ar      1 <0>        -0.2522
     13 C11         3.8259   -2.6457    1.5812 C.ar      1 <0>         0.2142
     14 N2          4.8229   -1.9150    1.1091 N.ar      1 <0>        -0.5345
     15 C12         4.9598   -1.7145   -0.1938 C.ar      1 <0>         0.5693
     16 N3          4.1186   -2.2352   -1.0706 N.ar      1 <0>        -0.5555
     17 C13         3.0917   -2.9897   -0.6643 C.ar      1 <0>         0.2576
     18 C14         2.1946   -3.5744   -1.6848 C.ar      1 <0>        -0.0162
     19 C15         0.8112   -3.6926   -1.5175 C.ar      1 <0>        -0.0529
     20 C16         0.0413   -4.2728   -2.5349 C.ar      1 <0>        -0.0849
     21 C17         0.6362   -4.7246   -3.6934 C.ar      1 <0>        -0.0215
     22 C18         2.0065   -4.6080   -3.8626 C.ar      1 <0>        -0.1016
     23 C19         2.7841   -4.0317   -2.8697 C.ar      1 <0>        -0.0641
     24 Cl1        -0.3331   -5.4416   -4.9425 Cl        1 <0>        -0.0600
     25 N4          6.0133   -0.9375   -0.6494 N.pl3     1 <0>        -0.6277
     26 C20         6.9751   -0.4766    0.2441 C.ar      1 <0>         0.1805
     27 C21         7.3397   -1.2613    1.3376 C.ar      1 <0>        -0.1626
     28 C22         8.2810   -0.8195    2.2202 C.ar      1 <0>        -0.0316
     29 C23         8.8890    0.4285    2.0325 C.ar      1 <0>        -0.1758
     30 C24         8.5248    1.2226    0.9314 C.ar      1 <0>         0.1738
     31 C25         7.5723    0.7610    0.0401 C.ar      1 <0>        -0.2543
     32 O2          9.1071    2.4325    0.7411 O.3       1 <0>        -0.2640
     33 C26         8.6861    3.1828   -0.3999 C.3       1 <0>         0.0216
     34 C27         9.9019    0.9053    2.9822 C.2       1 <0>         0.5224
     35 O3         10.2169    0.2119    3.9404 O.co2     1 <0>        -0.6966
     36 O4         10.4315    1.9961    2.8158 O.co2     1 <0>        -0.6716
     37 F1         -2.3501   -4.6159   -0.3594 F         1 <0>        -0.1258
     38 H1          0.7854    1.4407   -0.8003 H         1 <0>         0.1029
     39 H2         -0.6659    1.1920   -1.8004 H         1 <0>         0.0603
     40 H3         -0.8233    1.3986   -0.0395 H         1 <0>         0.0611
     41 H4         -2.4857    0.5529   -0.9985 H         1 <0>         0.1396
     42 H5         -4.5657   -0.7551   -1.0307 H         1 <0>         0.1394
     43 H6         -4.5040   -3.1945   -0.7295 H         1 <0>         0.1424
     44 H7          1.8694   -4.1221    2.3038 H         1 <0>         0.1097
     45 H8          1.8028   -5.0175    0.7669 H         1 <0>         0.0763
     46 H9          3.7190   -2.8037    2.6442 H         1 <0>         0.1771
     47 H10        -1.0273   -4.3670   -2.4099 H         1 <0>         0.1387
     48 H11         2.4696   -4.9611   -4.7721 H         1 <0>         0.1437
     49 H12         3.8518   -3.9427   -3.0054 H         1 <0>         0.1461
     50 H13         6.0800   -0.7150   -1.5912 H         1 <0>         0.4196
     51 H14         6.8739   -2.2242    1.4867 H         1 <0>         0.1256
     52 H15         8.5578   -1.4326    3.0652 H         1 <0>         0.1351
     53 H16         7.2905    1.3637   -0.8106 H         1 <0>         0.1220
     54 H17         8.8922    2.6128   -1.3059 H         1 <0>         0.0452
     55 H18         7.6164    3.3803   -0.3304 H         1 <0>         0.0447
     56 H19         9.2286    4.1276   -0.4338 H         1 <0>         0.0939
@<TRIPOS>BOND
     1    1    2 1
     2    1   38 1
     3    1   39 1
     4    1   40 1
     5    2    3 1
     6    3    8 ar
     7    3    4 ar
     8    4    5 ar
     9    4   41 1
    10    5    6 ar
    11    5   42 1
    12    6    7 ar
    13    6   43 1
    14    7    8 ar
    15    7   37 1
    16    8    9 1
    17    9   19 1
    18    9   10 2
    19   10   11 1
    20   11   12 1
    21   11   44 1
    22   11   45 1
    23   12   17 ar
    24   12   13 ar
    25   13   14 ar
    26   13   46 1
    27   14   15 ar
    28   15   16 ar
    29   15   25 1
    30   16   17 ar
    31   17   18 1
    32   18   23 ar
    33   18   19 ar
    34   19   20 ar
    35   20   21 ar
    36   20   47 1
    37   21   22 ar
    38   21   24 1
    39   22   23 ar
    40   22   48 1
    41   23   49 1
    42   25   26 1
    43   25   50 1
    44   26   31 ar
    45   26   27 ar
    46   27   28 ar
    47   27   51 1
    48   28   29 ar
    49   28   52 1
    50   29   30 ar
    51   29   34 1
    52   30   31 ar
    53   30   32 1
    54   31   53 1
    55   32   33 1
    56   33   54 1
    57   33   55 1
    58   33   56 1
    59   34   35 2
    60   34   36 1
@<TRIPOS>MOLECULE
ZINC40939534
   57    61     0     0     0
SMALL
USER_CHARGES

@<TRIPOS>ATOM
      1 C1          0.8147    0.9923    0.2619 C.3       1 <0>         0.0212
      2 O1          0.6236   -0.4238    0.2497 O.3       1 <0>        -0.3107
      3 C2          1.2242   -1.1180   -0.7501 C.ar      1 <0>         0.2135
      4 C3          1.9869   -0.4535   -1.6978 C.ar      1 <0>        -0.2108
      5 C4          2.5983   -1.1599   -2.7157 C.ar      1 <0>        -0.0002
      6 C5          2.4558   -2.5340   -2.7981 C.ar      1 <0>        -0.1786
      7 C6          1.6996   -3.2128   -1.8619 C.ar      1 <0>         0.1791
      8 C7          1.0803   -2.5090   -0.8248 C.ar      1 <0>        -0.2530
      9 C8          0.2737   -3.2283    0.1839 C.2       1 <0>         0.4688
     10 N1         -0.9759   -3.3880   -0.0670 N.pl3     1 <0>        -0.5010
     11 C9         -1.8793   -4.0748    0.8499 C.3       1 <0>         0.1152
     12 C10        -2.0050   -3.2802    2.1186 C.ar      1 <0>        -0.3087
     13 C11        -3.2353   -2.7464    2.4704 C.ar      1 <0>         0.2384
     14 N2         -3.3360   -2.0392    3.5843 N.ar      1 <0>        -0.5250
     15 C12        -2.2792   -1.8377    4.3583 C.ar      1 <0>         0.5898
     16 N3         -1.0914   -2.3340    4.0578 N.ar      1 <0>        -0.5512
     17 C13        -0.9183   -3.0640    2.9505 C.ar      1 <0>         0.2661
     18 C14         0.4229   -3.6224    2.6723 C.ar      1 <0>         0.0186
     19 C15         0.9711   -3.7064    1.3885 C.ar      1 <0>        -0.1053
     20 C16         2.2460   -4.2635    1.2190 C.ar      1 <0>        -0.0468
     21 C17         2.9591   -4.7261    2.3043 C.ar      1 <0>        -0.0275
     22 C18         2.4191   -4.6434    3.5776 C.ar      1 <0>        -0.0512
     23 C19         1.1616   -4.0902    3.7659 C.ar      1 <0>        -0.0628
     24 Cl1         4.5364   -5.4141    2.0751 Cl        1 <0>        -0.0261
     25 N4         -2.4231   -1.0858    5.5136 N.pl3     1 <0>        -0.6071
     26 C20        -3.6848   -0.6523    5.9089 C.ar      1 <0>         0.1561
     27 C21        -4.8018   -1.4498    5.6622 C.ar      1 <0>        -0.1572
     28 C22        -6.0434   -1.0349    6.0448 C.ar      1 <0>        -0.0340
     29 C23        -6.2041    0.1982    6.6900 C.ar      1 <0>        -0.1614
     30 C24        -5.0810    1.0051    6.9410 C.ar      1 <0>         0.1755
     31 C25        -3.8258    0.5706    6.5527 C.ar      1 <0>        -0.2453
     32 O2         -5.2259    2.2006    7.5646 O.3       1 <0>        -0.2605
     33 C26        -4.0391    2.9652    7.7855 C.3       1 <0>         0.0205
     34 C27        -7.5403    0.6460    7.1018 C.2       1 <0>         0.5187
     35 O3         -8.5166   -0.0584    6.8815 O.co2     1 <0>        -0.6914
     36 O4         -7.6778    1.7238    7.6653 O.co2     1 <0>        -0.6649
     37 F1          1.5624   -4.5541   -1.9461 F         1 <0>        -0.1168
     38 H1          1.8782    1.2147    0.3487 H         1 <0>         0.0723
     39 H2          0.4286    1.4190   -0.6638 H         1 <0>         0.0715
     40 H3          0.2830    1.4234    1.1102 H         1 <0>         0.1148
     41 H4          2.1031    0.6187   -1.6406 H         1 <0>         0.1564
     42 H5          3.1908   -0.6365   -3.4516 H         1 <0>         0.1568
     43 H6          2.9371   -3.0778   -3.5975 H         1 <0>         0.1602
     44 H7         -2.8604   -4.1757    0.3857 H         1 <0>         0.1483
     45 H8         -1.4822   -5.0638    1.0784 H         1 <0>         0.1320
     46 H9         -4.1000   -2.9054    1.8433 H         1 <0>         0.1852
     47 H10         2.6733   -4.3313    0.2294 H         1 <0>         0.1507
     48 H11         2.9808   -5.0048    4.4262 H         1 <0>         0.1617
     49 H12         0.7442   -4.0275    4.7600 H         1 <0>         0.1629
     50 H13        -1.6443   -0.8618    6.0467 H         1 <0>         0.4249
     51 H14        -4.6831   -2.4012    5.1651 H         1 <0>         0.1241
     52 H15        -6.9040   -1.6576    5.8497 H         1 <0>         0.1388
     53 H16        -2.9577    1.1832    6.7462 H         1 <0>         0.1248
     54 H17        -4.2955    3.8962    8.2910 H         1 <0>         0.0980
     55 H18        -3.3486    2.3934    8.4054 H         1 <0>         0.0468
     56 H19        -3.5678    3.1892    6.8285 H         1 <0>         0.0449
     57 H20        -1.3329   -3.0381   -0.8983 H         1 <0>         0.4410
@<TRIPOS>BOND
     1    1    2 1
     2    1   38 1
     3    1   39 1
     4    1   40 1
     5    2    3 1
     6    3    8 ar
     7    3    4 ar
     8    4    5 ar
     9    4   41 1
    10    5    6 ar
    11    5   42 1
    12    6    7 ar
    13    6   43 1
    14    7    8 ar
    15    7   37 1
    16    8    9 1
    17    9   19 1
    18    9   10 2
    19   10   11 1
    20   10   57 1
    21   11   12 1
    22   11   44 1
    23   11   45 1
    24   12   17 ar
    25   12   13 ar
    26   13   14 ar
    27   13   46 1
    28   14   15 ar
    29   15   16 ar
    30   15   25 1
    31   16   17 ar
    32   17   18 1
    33   18   23 ar
    34   18   19 ar
    35   19   20 ar
    36   20   21 ar
    37   20   47 1
    38   21   22 ar
    39   21   24 1
    40   22   23 ar
    41   22   48 1
    42   23   49 1
    43   25   26 1
    44   25   50 1
    45   26   31 ar
    46   26   27 ar
    47   27   28 ar
    48   27   51 1
    49   28   29 ar
    50   28   52 1
    51   29   30 ar
    52   29   34 1
    53   30   31 ar
    54   30   32 1
    55   31   53 1
    56   32   33 1
    57   33   54 1
    58   33   55 1
    59   33   56 1
    60   34   35 2
    61   34   36 1
@<TRIPOS>MOLECULE
ZINC38995988
   51    55     0     0     0
SMALL
USER_CHARGES

@<TRIPOS>ATOM
      1 C1         -0.0167    1.3832    0.0096 C.ar      1 <0>        -0.0900
      2 C2          1.1624    2.0986    0.0022 C.ar      1 <0>        -0.1093
      3 C3          2.3769    1.4282   -0.0129 C.ar      1 <0>         0.0585
      4 C4          2.4020    0.0222   -0.0207 C.ar      1 <0>         0.0556
      5 C5          1.1969   -0.6870   -0.0127 C.ar      1 <0>        -0.0377
      6 C6          0.0021   -0.0041    0.0020 C.ar      1 <0>        -0.0874
      7 C7         -1.2962   -0.7693    0.0108 C.3       1 <0>         0.0982
      8 N1         -1.7317   -1.0105   -1.3713 N.3       1 <0>        -0.5319
      9 C8         -2.0812    0.2506   -2.0413 C.3       1 <0>         0.0140
     10 C9         -2.4711   -0.0400   -3.4930 C.3       1 <0>         0.0628
     11 O1         -3.5484   -0.9803   -3.5128 O.3       1 <0>        -0.3858
     12 C10        -3.2423   -2.2203   -2.8694 C.3       1 <0>         0.0630
     13 C11        -2.8603   -1.9518   -1.4114 C.3       1 <0>         0.0170
     14 N2          3.7040   -0.3552   -0.0358 N.2       1 <0>        -0.4791
     15 C12         4.4709    0.7083   -0.0379 C.2       1 <0>         0.3677
     16 N3          3.6969    1.8375   -0.0241 N.pl3     1 <0>        -0.5827
     17 C13         5.9482    0.6906   -0.0529 C.2       1 <0>         0.1128
     18 C14         6.7655   -0.4629   -0.0734 C.2       1 <0>         0.0625
     19 C15         8.0574   -0.0542   -0.0820 C.2       1 <0>         0.0467
     20 N4          8.0646    1.3049   -0.0675 N.pl3     1 <0>        -0.4518
     21 H1          8.8531    1.8699   -0.0696 H         1 <0>         0.4522
     22 N5          6.7361    1.7481   -0.0552 N.2       1 <0>        -0.2610
     23 N6          6.3179   -1.7953   -0.0825 N.am      1 <0>        -0.6484
     24 C16         7.2097   -2.8056   -0.1024 C.2       1 <0>         0.7112
     25 O2          8.4015   -2.5644   -0.1124 O.2       1 <0>        -0.5835
     26 N7          6.7806   -4.0832   -0.1111 N.am      1 <0>        -0.7107
     27 C17         7.7500   -5.1814   -0.1326 C.3       1 <0>         0.0984
     28 C18         7.4710   -6.3514   -1.0782 C.3       1 <0>        -0.1941
     29 C19         7.3013   -6.5309    0.4317 C.3       1 <0>        -0.1895
     30 H2         -0.9613    1.9065    0.0260 H         1 <0>         0.1292
     31 H3          1.1404    3.1784    0.0078 H         1 <0>         0.1265
     32 H4          1.2037   -1.7669   -0.0185 H         1 <0>         0.1329
     33 H5         -1.1522   -1.7232    0.5181 H         1 <0>         0.0877
     34 H6         -2.0559   -0.1898    0.5352 H         1 <0>         0.0479
     35 H7         -2.9207    0.7164   -1.5252 H         1 <0>         0.0435
     36 H8         -1.2233    0.9227   -2.0224 H         1 <0>         0.0909
     37 H9         -2.7857    0.8844   -3.9773 H         1 <0>         0.0978
     38 H10        -1.6147   -0.4564   -4.0234 H         1 <0>         0.0598
     39 H11        -4.1148   -2.8728   -2.9028 H         1 <0>         0.0988
     40 H12        -2.4084   -2.7001   -3.3817 H         1 <0>         0.0605
     41 H13        -2.5711   -2.8874   -0.9327 H         1 <0>         0.0882
     42 H14        -3.7122   -1.5212   -0.8852 H         1 <0>         0.0444
     43 H15         8.9269   -0.6946   -0.0972 H         1 <0>         0.2141
     44 H16         5.3672   -1.9876   -0.0745 H         1 <0>         0.4224
     45 H17         5.8299   -4.2755   -0.1031 H         1 <0>         0.4015
     46 H18         8.7902   -4.8932    0.0188 H         1 <0>         0.1414
     47 H19         6.5663   -6.3041   -1.6842 H         1 <0>         0.0976
     48 H20         8.3279   -6.8332   -1.5492 H         1 <0>         0.1039
     49 H21         8.0465   -7.1307    0.9541 H         1 <0>         0.1053
     50 H22         6.2849   -6.6016    0.8191 H         1 <0>         0.0980
     51 H23         4.0155    2.7537   -0.0227 H         1 <0>         0.4299
@<TRIPOS>BOND
     1    1    6 ar
     2    1    2 ar
     3    1   30 1
     4    2    3 ar
     5    2   31 1
     6    3   16 1
     7    3    4 ar
     8    4    5 ar
     9    4   14 1
    10    5    6 ar
    11    5   32 1
    12    6    7 1
    13    7    8 1
    14    7   33 1
    15    7   34 1
    16    8   13 1
    17    8    9 1
    18    9   10 1
    19    9   35 1
    20    9   36 1
    21   10   11 1
    22   10   37 1
    23   10   38 1
    24   11   12 1
    25   12   13 1
    26   12   39 1
    27   12   40 1
    28   13   41 1
    29   13   42 1
    30   14   15 2
    31   15   16 1
    32   15   17 1
    33   16   51 1
    34   17   22 2
    35   17   18 1
    36   18   19 2
    37   18   23 1
    38   19   20 1
    39   19   43 1
    40   20   21 1
    41   20   22 1
    42   23   24 am
    43   23   44 1
    44   24   25 2
    45   24   26 am
    46   26   27 1
    47   26   45 1
    48   27   29 1
    49   27   28 1
    50   27   46 1
    51   28   29 1
    52   28   47 1
    53   28   48 1
    54   29   49 1
    55   29   50 1
@<TRIPOS>MOLECULE
ZINC05687459
   22    24     0     0     0
SMALL
USER_CHARGES

@<TRIPOS>ATOM
      1 C1         -0.0166    1.3748    0.0096 C.ar      1 <0>        -0.0957
      2 C2          1.1699    2.0945    0.0021 C.ar      1 <0>        -0.1267
      3 C3          2.3749    1.4515   -0.0132 C.ar      1 <0>        -0.0596
      4 C4          2.4189    0.0536   -0.0211 C.ar      1 <0>         0.0481
      5 C5          1.2167   -0.6756   -0.0131 C.ar      1 <0>         0.0544
      6 C6          0.0021   -0.0041    0.0020 C.ar      1 <0>        -0.1127
      7 N1          1.5748   -2.0098   -0.0237 N.pl3     1 <0>        -0.5861
      8 H1          0.9700   -2.7681   -0.0221 H         1 <0>         0.4280
      9 C7          2.9425   -2.0618   -0.0376 C.2       1 <0>         0.3579
     10 N2          3.4326   -0.8462   -0.0359 N.2       1 <0>        -0.4618
     11 C8          3.7464   -3.3030   -0.0517 C.2       1 <0>         0.1343
     12 C9          5.1546   -3.3800   -0.0604 C.2       1 <0>        -0.2219
     13 C10         5.4974   -4.6857   -0.0724 C.2       1 <0>         0.0621
     14 N3          4.3612   -5.4164   -0.0714 N.pl3     1 <0>        -0.4612
     15 H2          4.3076   -6.3849   -0.0785 H         1 <0>         0.4459
     16 N4          3.2740   -4.5335   -0.0527 N.2       1 <0>        -0.2783
     17 H3         -0.9612    1.8982    0.0259 H         1 <0>         0.1327
     18 H4          1.1402    3.1741    0.0082 H         1 <0>         0.1323
     19 H5          3.2921    2.0216   -0.0196 H         1 <0>         0.1325
     20 H6         -0.9244   -0.5591    0.0082 H         1 <0>         0.1252
     21 H7          5.8373   -2.5432   -0.0582 H         1 <0>         0.1627
     22 H8          6.5038   -5.0775   -0.0815 H         1 <0>         0.1880
@<TRIPOS>BOND
     1    1    6 ar
     2    1    2 ar
     3    1   17 1
     4    2    3 ar
     5    2   18 1
     6    3    4 ar
     7    3   19 1
     8    4   10 1
     9    4    5 ar
    10    5    6 ar
    11    5    7 1
    12    6   20 1
    13    7    8 1
    14    7    9 1
    15    9   10 2
    16    9   11 1
    17   11   16 2
    18   11   12 1
    19   12   13 2
    20   12   21 1
    21   13   14 1
    22   13   22 1
    23   14   15 1
    24   14   16 1
@<TRIPOS>MOLECULE
ZINC40393428
   43    46     0     0     0
SMALL
USER_CHARGES

@<TRIPOS>ATOM
      1 C1          1.0860   -0.4602    0.7525 C.ar      1 <0>        -0.0841
      2 C2          2.2745    0.2438    0.7392 C.ar      1 <0>        -0.1151
      3 C3          2.3811    1.4103   -0.0065 C.ar      1 <0>         0.1760
      4 C4          1.2918    1.8661   -0.7371 C.ar      1 <0>        -0.1379
      5 C5          0.1052    1.1577   -0.7200 C.ar      1 <0>        -0.0148
      6 C6          0.0027   -0.0047    0.0245 C.ar      1 <0>        -0.1235
      7 Cl1        -1.2579    1.7264   -1.6324 Cl        1 <0>        -0.0629
      8 N1          3.5838    2.1253   -0.0212 N.am      1 <0>        -0.6779
      9 C7          4.7585    1.4702    0.0657 C.2       1 <0>         0.7004
     10 O1          4.7784    0.2546    0.0596 O.2       1 <0>        -0.5033
     11 N2          5.9109    2.1627    0.1596 N.am      1 <0>        -0.6266
     12 C8          7.1223    1.4870    0.2493 C.2       1 <0>         0.2860
     13 N3          7.3361    0.1891    0.2518 N.2       1 <0>        -0.5158
     14 C9          8.5589   -0.3008    0.3445 C.2       1 <0>         0.0768
     15 C10         9.5748    0.5917    0.4362 C.2       1 <0>        -0.2162
     16 S1          8.6723    2.1310    0.3736 S.3       1 <0>         0.1280
     17 C11        11.0579    0.3512    0.5526 C.3       1 <0>        -0.0363
     18 C12        11.6753    0.2860   -0.8457 C.3       1 <0>         0.1313
     19 N4         13.1171    0.0522   -0.7326 N.pl3     1 <0>        -0.7061
     20 C13        13.8949   -0.0448   -1.8749 C.ar      1 <0>         0.4986
     21 C14        15.2577   -0.2712   -1.7887 C.ar      1 <0>        -0.2996
     22 C15        16.0555   -0.3716   -2.9487 C.ar      1 <0>         0.1938
     23 C16        17.4235   -0.6022   -2.7204 C.2       1 <0>        -0.1561
     24 C17        17.8907   -0.7126   -1.4622 C.2       1 <0>        -0.1043
     25 S2         16.4217   -0.4971   -0.4711 S.3       1 <0>         0.0744
     26 N5         15.3968   -0.2319   -4.1261 N.ar      1 <0>        -0.5372
     27 C18        14.1074   -0.0188   -4.1645 C.ar      1 <0>         0.3437
     28 N6         13.3491    0.0719   -3.0857 N.ar      1 <0>        -0.5638
     29 H1          1.0044   -1.3699    1.3289 H         1 <0>         0.1384
     30 H2          3.1201   -0.1128    1.3086 H         1 <0>         0.1426
     31 H3          1.3716    2.7733   -1.3178 H         1 <0>         0.1376
     32 H4         -0.9253   -0.5572    0.0363 H         1 <0>         0.1366
     33 H5          3.5722    3.0925   -0.0941 H         1 <0>         0.4112
     34 H6          5.8950    3.1325    0.1645 H         1 <0>         0.4247
     35 H7          8.7413   -1.3653    0.3475 H         1 <0>         0.1767
     36 H8         11.5152    1.1660    1.1141 H         1 <0>         0.0881
     37 H9         11.2335   -0.5911    1.0716 H         1 <0>         0.0988
     38 H10        11.2181   -0.5287   -1.4072 H         1 <0>         0.0778
     39 H11        11.4997    1.2283   -1.3647 H         1 <0>         0.0747
     40 H12        13.5272   -0.0346    0.1422 H         1 <0>         0.4118
     41 H13        18.1015   -0.6915   -3.5564 H         1 <0>         0.1518
     42 H14        18.9044   -0.8881   -1.1337 H         1 <0>         0.2028
     43 H15        13.6355    0.0848   -5.1304 H         1 <0>         0.1990
@<TRIPOS>BOND
     1    1    6 ar
     2    1    2 ar
     3    1   29 1
     4    2    3 ar
     5    2   30 1
     6    3    4 ar
     7    3    8 1
     8    4    5 ar
     9    4   31 1
    10    5    6 ar
    11    5    7 1
    12    6   32 1
    13    8    9 am
    14    8   33 1
    15    9   10 2
    16    9   11 am
    17   11   12 1
    18   11   34 1
    19   12   16 1
    20   12   13 2
    21   13   14 1
    22   14   15 2
    23   14   35 1
    24   15   16 1
    25   15   17 1
    26   17   18 1
    27   17   36 1
    28   17   37 1
    29   18   19 1
    30   18   38 1
    31   18   39 1
    32   19   20 1
    33   19   40 1
    34   20   28 ar
    35   20   21 ar
    36   21   25 1
    37   21   22 ar
    38   22   23 1
    39   22   26 ar
    40   23   24 2
    41   23   41 1
    42   24   25 1
    43   24   42 1
    44   26   27 ar
    45   27   28 ar
    46   27   43 1
@<TRIPOS>MOLECULE
ZINC03816310
   51    55     0     0     0
SMALL
USER_CHARGES
4-amino-5-fluoro-3-[5-(4-methylpiperazin-1-yl)-3H-benzoimidazol-2-yl]-1H-quinolin-2-one
@<TRIPOS>ATOM
      1 C1         -4.4670    0.8494    3.0633 C.3       1 <0>        -0.0407
      2 C2         -3.3790    0.9463    0.9019 C.3       1 <0>         0.0019
      3 C3         -3.5151    1.4789   -0.5264 C.3       1 <0>         0.0203
      4 N1         -3.5799    2.9467   -0.4951 N.pl3     1 <0>        -0.4822
      5 C4         -4.7239    3.4034    0.3063 C.3       1 <0>         0.0231
      6 C5         -4.5878    2.8708    1.7347 C.3       1 <0>         0.0021
      7 C6         -3.6324    3.4738   -1.7895 C.ar      1 <0>         0.0898
      8 C7         -3.6187    2.6172   -2.8884 C.ar      1 <0>        -0.1658
      9 C8         -3.6694    3.1157   -4.1588 C.ar      1 <0>        -0.0428
     10 C9         -3.7362    4.4973   -4.3655 C.ar      1 <0>         0.0571
     11 C10        -3.7506    5.3641   -3.2589 C.ar      1 <0>         0.0655
     12 C11        -3.7036    4.8454   -1.9734 C.ar      1 <0>        -0.1134
     13 N2         -3.8198    6.6467   -3.7722 N.pl3     1 <0>        -0.5851
     14 H1         -3.8464    7.4962   -3.2453 H         1 <0>         0.4436
     15 C12        -3.8451    6.5353   -5.1390 C.2       1 <0>         0.4046
     16 N3         -3.7957    5.2687   -5.4809 N.2       1 <0>        -0.5294
     17 C13        -3.9164    7.6652   -6.0804 C.2       1 <0>        -0.3025
     18 C14        -4.0559    7.4305   -7.4504 C.2       1 <0>         0.3760
     19 C15        -4.1228    8.5898   -8.3476 C.ar      1 <0>        -0.1878
     20 C16        -4.0447    9.8830   -7.7997 C.ar      1 <0>         0.2450
     21 C17        -4.1078   10.9864   -8.6429 C.ar      1 <0>        -0.1734
     22 C18        -4.2458   10.8081  -10.0035 C.ar      1 <0>        -0.0185
     23 C19        -4.3231    9.5350  -10.5468 C.ar      1 <0>        -0.1801
     24 C20        -4.2628    8.4239   -9.7304 C.ar      1 <0>         0.1680
     25 F1         -4.3388    7.1843  -10.2623 F         1 <0>        -0.1206
     26 N4         -3.9076   10.0470   -6.4354 N.am      1 <0>        -0.6368
     27 H2         -3.8498   10.9715   -6.0585 H         1 <0>         0.4300
     28 C21        -3.8500    8.9949   -5.6023 C.2       1 <0>         0.5826
     29 O1         -3.7334    9.1908   -4.4050 O.2       1 <0>        -0.5600
     30 N5         -4.1288    6.1500   -7.9440 N.pl3     1 <0>        -0.8025
     31 H3         -3.5472    1.1734    3.5502 H         1 <0>         0.1241
     32 H4         -5.3249    1.2032    3.6351 H         1 <0>         0.1225
     33 H5         -4.4877   -0.2393    3.0134 H         1 <0>         0.1228
     34 H6         -3.3598   -0.1434    0.8835 H         1 <0>         0.1376
     35 H7         -2.4541    1.3189    1.3424 H         1 <0>         0.1399
     36 H8         -2.6529    1.1655   -1.1151 H         1 <0>         0.1307
     37 H9         -4.4260    1.0841   -0.9765 H         1 <0>         0.0717
     38 H10        -4.7431    4.4931    0.3248 H         1 <0>         0.1261
     39 H11        -5.6486    3.0309   -0.1345 H         1 <0>         0.0691
     40 H12        -3.6769    3.2656    2.1847 H         1 <0>         0.1400
     41 H13        -5.4498    3.1846    2.3235 H         1 <0>         0.1367
     42 H14        -3.5672    1.5496   -2.7341 H         1 <0>         0.1314
     43 H15        -3.6582    2.4431   -5.0037 H         1 <0>         0.1346
     44 H16        -3.7183    5.5073   -1.1202 H         1 <0>         0.1268
     45 H17        -4.0491   11.9836   -8.2323 H         1 <0>         0.1496
     46 H18        -4.2944   11.6697  -10.6529 H         1 <0>         0.1516
     47 H19        -4.4307    9.4121  -11.6144 H         1 <0>         0.1515
     48 H20        -4.3218    5.4103   -7.3468 H         1 <0>         0.4285
     49 H21        -3.9874    5.9859   -8.8895 H         1 <0>         0.4092
     50 N6         -4.5458    1.3938    1.6909 N.4       1 <0>        -0.3998
     51 H22        -5.4033    1.0486    1.2438 H         1 <0>         0.4274
@<TRIPOS>BOND
     1    1   31 1
     2    1   32 1
     3    1   33 1
     4    1   50 1
     5    2    3 1
     6    2   34 1
     7    2   35 1
     8    2   50 1
     9    3    4 1
    10    3   36 1
    11    3   37 1
    12    4    5 1
    13    4    7 1
    14    5    6 1
    15    5   38 1
    16    5   39 1
    17    6   40 1
    18    6   41 1
    19    6   50 1
    20    7   12 ar
    21    7    8 ar
    22    8    9 ar
    23    8   42 1
    24    9   10 ar
    25    9   43 1
    26   10   16 1
    27   10   11 ar
    28   11   12 ar
    29   11   13 1
    30   12   44 1
    31   13   14 1
    32   13   15 1
    33   15   16 2
    34   15   17 1
    35   17   28 1
    36   17   18 2
    37   18   19 1
    38   18   30 1
    39   19   24 ar
    40   19   20 ar
    41   20   21 ar
    42   20   26 1
    43   21   22 ar
    44   21   45 1
    45   22   23 ar
    46   22   46 1
    47   23   24 ar
    48   23   47 1
    49   24   25 1
    50   26   27 1
    51   26   28 am
    52   28   29 2
    53   30   48 1
    54   30   49 1
    55   50   51 1
@<TRIPOS>MOLECULE
ZINC03964325
   57    59     0     0     0
SMALL
USER_CHARGES

@<TRIPOS>ATOM
      1 C1          0.1489    2.0884    0.1150 C.3       1 <0>        -0.1876
      2 C2          0.1348    0.5603    0.1888 C.3       1 <0>        -0.0191
      3 N1         -1.2520    0.0881    0.2979 N.4       1 <0>        -0.3822
      4 C3         -1.9779    0.4111   -0.9377 C.3       1 <0>        -0.0142
      5 C4         -3.4549    0.0484   -0.7712 C.3       1 <0>        -0.1895
      6 C5         -1.2593   -1.3663    0.5041 C.3       1 <0>        -0.0265
      7 C6         -0.6131   -1.6936    1.8518 C.3       1 <0>         0.0952
      8 N2         -0.6203   -3.1440    2.0575 N.am      1 <0>        -0.7289
      9 C7         -0.0988   -3.6675    3.1846 C.2       1 <0>         0.6111
     10 O1          0.3779   -2.9358    4.0309 O.2       1 <0>        -0.5184
     11 C8         -0.1061   -5.1270    3.3915 C.2       1 <0>        -0.2420
     12 C9          0.9071   -6.0320    3.0089 C.2       1 <0>        -0.0577
     13 C10         0.4868   -7.2892    3.3960 C.2       1 <0>        -0.0075
     14 N3         -0.7476   -7.1595    3.9982 N.pl3     1 <0>        -0.4910
     15 H1         -1.2731   -7.8879    4.3645 H         1 <0>         0.4270
     16 C11        -1.1044   -5.8642    4.0022 C.2       1 <0>         0.1158
     17 C12        -2.3825   -5.3072    4.5743 C.3       1 <0>        -0.0999
     18 C13         1.1957   -8.4957    3.2079 C.2       1 <0>         0.0729
     19 C14         0.5100   -9.6674    2.9570 C.2       1 <0>        -0.1889
     20 C15         1.0648  -11.0377    2.8871 C.ar      1 <0>        -0.0736
     21 C16         2.3472  -11.5557    3.0375 C.ar      1 <0>        -0.1000
     22 C17         2.5553  -12.9162    2.9116 C.ar      1 <0>         0.0861
     23 C18         1.4888  -13.7593    2.6366 C.ar      1 <0>        -0.1139
     24 C19         0.2139  -13.2531    2.4856 C.ar      1 <0>        -0.1021
     25 C20        -0.0144  -11.8871    2.6092 C.ar      1 <0>         0.1282
     26 N4         -1.1765  -11.1301    2.5069 N.am      1 <0>        -0.6466
     27 C21        -0.9294   -9.8245    2.7079 C.2       1 <0>         0.5595
     28 O2         -1.7538   -8.9280    2.6842 O.2       1 <0>        -0.5156
     29 F1          3.7984  -13.4252    3.0561 F         1 <0>        -0.1318
     30 C22         2.1990   -5.6919    2.3116 C.3       1 <0>        -0.0931
     31 H2          1.1793    2.4435    0.1331 H         1 <0>         0.1076
     32 H3         -0.3308    2.4121   -0.8087 H         1 <0>         0.0811
     33 H4         -0.3916    2.4984    0.9682 H         1 <0>         0.0809
     34 H5          0.5888    0.1488   -0.7126 H         1 <0>         0.1317
     35 H6          0.6996    0.2334    1.0619 H         1 <0>         0.1337
     36 H7         -1.8867    1.4775   -1.1444 H         1 <0>         0.1351
     37 H8         -1.5554   -0.1571   -1.7664 H         1 <0>         0.1307
     38 H9         -3.5537   -1.0316   -0.6617 H         1 <0>         0.0802
     39 H10        -3.8523    0.5414    0.1160 H         1 <0>         0.0808
     40 H11        -4.0109    0.3769   -1.6492 H         1 <0>         0.1074
     41 H12        -2.2871   -1.7292    0.4963 H         1 <0>         0.1397
     42 H13        -0.6973   -1.8494   -0.2952 H         1 <0>         0.1376
     43 H14         0.4147   -1.3306    1.8596 H         1 <0>         0.0893
     44 H15        -1.1751   -1.2105    2.6511 H         1 <0>         0.0890
     45 H16        -1.0005   -3.7277    1.3824 H         1 <0>         0.4099
     46 H17        -3.1529   -5.3000    3.8032 H         1 <0>         0.0840
     47 H18        -2.7087   -5.9289    5.4080 H         1 <0>         0.0782
     48 H19        -2.2103   -4.2898    4.9254 H         1 <0>         0.0840
     49 H20         2.2744   -8.5020    3.2604 H         1 <0>         0.1589
     50 H21         3.1765  -10.8977    3.2512 H         1 <0>         0.1436
     51 H22         1.6578  -14.8215    2.5394 H         1 <0>         0.1485
     52 H23        -0.6084  -13.9196    2.2712 H         1 <0>         0.1415
     53 H24        -2.0541  -11.4980    2.3189 H         1 <0>         0.4217
     54 H25         2.9686   -5.4822    3.0545 H         1 <0>         0.0785
     55 H26         2.5107   -6.5337    1.6932 H         1 <0>         0.0726
     56 H27         2.0522   -4.8138    1.6827 H         1 <0>         0.0634
     57 H28        -1.7009    0.5410    1.0799 H         1 <0>         0.4247
@<TRIPOS>BOND
     1    1    2 1
     2    1   31 1
     3    1   32 1
     4    1   33 1
     5    2    3 1
     6    2   34 1
     7    2   35 1
     8    3    4 1
     9    3    6 1
    10    3   57 1
    11    4    5 1
    12    4   36 1
    13    4   37 1
    14    5   38 1
    15    5   39 1
    16    5   40 1
    17    6    7 1
    18    6   41 1
    19    6   42 1
    20    7    8 1
    21    7   43 1
    22    7   44 1
    23    8    9 am
    24    8   45 1
    25    9   10 2
    26    9   11 1
    27   11   16 2
    28   11   12 1
    29   12   13 2
    30   12   30 1
    31   13   14 1
    32   13   18 1
    33   14   15 1
    34   14   16 1
    35   16   17 1
    36   17   46 1
    37   17   47 1
    38   17   48 1
    39   18   19 2
    40   18   49 1
    41   19   27 1
    42   19   20 1
    43   20   25 ar
    44   20   21 ar
    45   21   22 ar
    46   21   50 1
    47   22   23 ar
    48   22   29 1
    49   23   24 ar
    50   23   51 1
    51   24   25 ar
    52   24   52 1
    53   25   26 1
    54   26   27 am
    55   26   53 1
    56   27   28 2
    57   30   54 1
    58   30   55 1
    59   30   56 1
@<TRIPOS>MOLECULE
ZINC01546066
   52    54     0     0     0
SMALL
USER_CHARGES

@<TRIPOS>ATOM
      1 C1          1.3190    1.4185    0.8998 C.3       1 <0>         0.0308
      2 O1          1.1221    0.0121    0.7412 O.3       1 <0>        -0.3842
      3 C2          1.6336   -0.7719    1.8209 C.3       1 <0>         0.0626
      4 C3          1.3686   -2.2534    1.5456 C.3       1 <0>         0.0560
      5 O2          2.1105   -2.6643    0.3955 O.3       1 <0>        -0.2877
      6 C4          1.9861   -3.9631    0.0122 C.ar      1 <0>         0.1163
      7 C5          1.1727   -4.8014    0.7206 C.ar      1 <0>        -0.1508
      8 C6          1.0439   -6.1386    0.3269 C.ar      1 <0>        -0.1822
      9 C7          1.7562   -6.6146   -0.8018 C.ar      1 <0>         0.2018
     10 C8          2.5842   -5.7378   -1.5132 C.ar      1 <0>        -0.1867
     11 C9          2.6894   -4.4253   -1.1088 C.ar      1 <0>         0.1692
     12 O3          3.4878   -3.5711   -1.8004 O.3       1 <0>        -0.2847
     13 C10         4.1782   -4.1019   -2.9333 C.3       1 <0>         0.0544
     14 C11         5.0210   -3.0002   -3.5791 C.3       1 <0>         0.0626
     15 O4          6.0448   -2.5894   -2.6708 O.3       1 <0>        -0.3848
     16 C12         6.8933   -1.5581   -3.1792 C.3       1 <0>         0.0309
     17 N1          1.6146   -7.9009   -1.1583 N.ar      1 <0>        -0.5426
     18 C13         0.8310   -8.6986   -0.4725 C.ar      1 <0>         0.3422
     19 N2          0.1465   -8.2987    0.5874 N.ar      1 <0>        -0.5807
     20 C14         0.2146   -7.0483    1.0253 C.ar      1 <0>         0.4641
     21 N3         -0.5043   -6.6451    2.1328 N.pl3     1 <0>        -0.6417
     22 C15        -1.2223   -7.5837    2.8797 C.ar      1 <0>         0.1534
     23 C16        -2.4417   -7.2339    3.4483 C.ar      1 <0>        -0.1365
     24 C17        -3.1548   -8.1581    4.1879 C.ar      1 <0>        -0.0976
     25 C18        -2.6612   -9.4349    4.3666 C.ar      1 <0>        -0.1098
     26 C19        -1.4382   -9.7960    3.7995 C.ar      1 <0>         0.0290
     27 C20        -0.7210   -8.8652    3.0488 C.ar      1 <0>        -0.0846
     28 C21        -0.9239  -11.1197    3.9839 C.1       1 <0>        -0.1518
     29 C22        -0.5023  -12.2049    4.1351 C.1       1 <0>        -0.1689
     30 H1          2.3858    1.6300    0.9737 H         1 <0>         0.0438
     31 H2          0.9034    1.9430    0.0394 H         1 <0>         0.0882
     32 H3          0.8182    1.7554    1.8074 H         1 <0>         0.0421
     33 H4          2.7069   -0.6059    1.9138 H         1 <0>         0.0642
     34 H5          1.1392   -0.4804    2.7476 H         1 <0>         0.0738
     35 H6          1.6782   -2.8442    2.4078 H         1 <0>         0.0797
     36 H7          0.3045   -2.4047    1.3647 H         1 <0>         0.0731
     37 H8          0.6320   -4.4344    1.5804 H         1 <0>         0.1376
     38 H9          3.1329   -6.0870   -2.3754 H         1 <0>         0.1546
     39 H10         4.8282   -4.9164   -2.6138 H         1 <0>         0.0783
     40 H11         3.4545   -4.4770   -3.6569 H         1 <0>         0.0849
     41 H12         5.4773   -3.3804   -4.4931 H         1 <0>         0.0752
     42 H13         4.3841   -2.1485   -3.8181 H         1 <0>         0.0638
     43 H14         6.2953   -0.6764   -3.4098 H         1 <0>         0.0434
     44 H15         7.6433   -1.3027   -2.4306 H         1 <0>         0.0879
     45 H16         7.3884   -1.9084   -4.0848 H         1 <0>         0.0424
     46 H17         0.7401   -9.7278   -0.7869 H         1 <0>         0.1966
     47 H18        -0.5113   -5.7106    2.3927 H         1 <0>         0.4197
     48 H19        -2.8329   -6.2365    3.3119 H         1 <0>         0.1281
     49 H20        -4.1012   -7.8805    4.6278 H         1 <0>         0.1331
     50 H21        -3.2213  -10.1542    4.9456 H         1 <0>         0.1284
     51 H22         0.2239   -9.1405    2.6039 H         1 <0>         0.1386
     52 H23        -0.1252  -13.1754    4.2703 H         1 <0>         0.2249
@<TRIPOS>BOND
     1    1    2 1
     2    1   30 1
     3    1   31 1
     4    1   32 1
     5    2    3 1
     6    3    4 1
     7    3   33 1
     8    3   34 1
     9    4    5 1
    10    4   35 1
    11    4   36 1
    12    5    6 1
    13    6   11 ar
    14    6    7 ar
    15    7    8 ar
    16    7   37 1
    17    8   20 ar
    18    8    9 ar
    19    9   10 ar
    20    9   17 ar
    21   10   11 ar
    22   10   38 1
    23   11   12 1
    24   12   13 1
    25   13   14 1
    26   13   39 1
    27   13   40 1
    28   14   15 1
    29   14   41 1
    30   14   42 1
    31   15   16 1
    32   16   43 1
    33   16   44 1
    34   16   45 1
    35   17   18 ar
    36   18   19 ar
    37   18   46 1
    38   19   20 ar
    39   20   21 1
    40   21   22 1
    41   21   47 1
    42   22   27 ar
    43   22   23 ar
    44   23   24 ar
    45   23   48 1
    46   24   25 ar
    47   24   49 1
    48   25   26 ar
    49   25   50 1
    50   26   27 ar
    51   26   28 1
    52   27   51 1
    53   28   29 3
    54   29   52 1
@<TRIPOS>MOLECULE
ZINC03820040
   62    66     0     0     0
SMALL
USER_CHARGES
N-[4-[4-(4-methylpiperazin-1-yl)-6-[(5-methyl-2H-pyrazol-3-yl)amino]pyrimidin-2-yl]sulfanylphenyl]cyclopropanecarboxamide
@<TRIPOS>ATOM
      1 C1          1.8035   -7.6837    0.5070 C.3       1 <0>        -0.0779
      2 C2          2.3685   -6.3674    0.0389 C.2       1 <0>         0.0949
      3 C3          1.9325   -5.1020    0.4407 C.2       1 <0>        -0.2905
      4 C4          2.6904   -4.1743   -0.2066 C.2       1 <0>         0.3252
      5 N1          3.5799   -4.8447   -0.9836 N.pl3     1 <0>        -0.4853
      6 H1          4.2729   -4.4328   -1.5753 H         1 <0>         0.4473
      7 N2          3.3537   -6.2159   -0.8085 N.2       1 <0>        -0.2711
      8 N3          2.5778   -2.7905   -0.0888 N.pl3     1 <0>        -0.6296
      9 C5          1.3376   -2.2123    0.1391 C.ar      1 <0>         0.4706
     10 C6          0.1755   -2.9717    0.0343 C.ar      1 <0>        -0.2983
     11 C7         -1.0466   -2.3490    0.2714 C.ar      1 <0>         0.3791
     12 N4         -1.0643   -1.0564    0.5886 N.ar      1 <0>        -0.5664
     13 C8          0.0620   -0.3646    0.6795 C.ar      1 <0>         0.3511
     14 N5          1.2425   -0.9231    0.4557 N.ar      1 <0>        -0.5606
     15 S1         -0.0125    1.3444    1.1018 S.3       1 <0>         0.1303
     16 C9          1.7078    1.7032    1.2298 C.ar      1 <0>        -0.1638
     17 C10         2.3806    1.4637    2.4214 C.ar      1 <0>        -0.0284
     18 C11         3.7293    1.7409    2.5200 C.ar      1 <0>        -0.1315
     19 C12         4.4114    2.2681    1.4313 C.ar      1 <0>         0.1902
     20 C13         3.7379    2.5125    0.2417 C.ar      1 <0>        -0.1573
     21 C14         2.3903    2.2311    0.1410 C.ar      1 <0>        -0.0288
     22 N6          5.7793    2.5539    1.5333 N.am      1 <0>        -0.6744
     23 C15         6.5739    1.7808    2.2997 C.2       1 <0>         0.5466
     24 O1          6.1269    0.7811    2.8213 O.2       1 <0>        -0.5140
     25 C16         8.0178    2.1584    2.5086 C.3       1 <0>        -0.2022
     26 C17         9.0818    1.2604    1.8742 C.3       1 <0>        -0.1494
     27 C18         8.8679    1.2402    3.3890 C.3       1 <0>        -0.1425
     28 N7         -2.2296   -3.0657    0.1789 N.pl3     1 <0>        -0.4710
     29 C19        -2.3617   -3.6957   -1.1422 C.3       1 <0>         0.0277
     30 C20        -3.6379   -4.5399   -1.1765 C.3       1 <0>         0.0040
     31 C21        -4.6643   -3.0537    0.4349 C.3       1 <0>        -0.0004
     32 C22        -3.3881   -2.2095    0.4692 C.3       1 <0>         0.0347
     33 C23        -6.0501   -4.4431   -0.9842 C.3       1 <0>        -0.0407
     34 H2          2.3381   -8.0122    1.3982 H         1 <0>         0.0831
     35 H3          0.7460   -7.5623    0.7417 H         1 <0>         0.0784
     36 H4          1.9177   -8.4287   -0.2805 H         1 <0>         0.0774
     37 H5          1.1347   -4.8964    1.1389 H         1 <0>         0.1550
     38 H6          3.3667   -2.2314   -0.1662 H         1 <0>         0.4241
     39 H7          0.2211   -4.0192   -0.2246 H         1 <0>         0.1631
     40 H8          1.8494    1.0573    3.2693 H         1 <0>         0.1319
     41 H9          4.2533    1.5509    3.4451 H         1 <0>         0.1405
     42 H10         4.2686    2.9225   -0.6049 H         1 <0>         0.1339
     43 H11         1.8666    2.4209   -0.7843 H         1 <0>         0.1341
     44 H12         6.1543    3.3081    1.0523 H         1 <0>         0.4168
     45 H13         8.2224    3.2282    2.5520 H         1 <0>         0.1306
     46 H14         8.7374    0.3965    1.3057 H         1 <0>         0.0995
     47 H15         9.9866    1.7393    1.5000 H         1 <0>         0.1100
     48 H16         9.6320    1.7059    4.0114 H         1 <0>         0.1092
     49 H17         8.3827    0.3633    3.8175 H         1 <0>         0.1093
     50 H18        -2.4158   -2.9234   -1.9095 H         1 <0>         0.0737
     51 H19        -1.4982   -4.3342   -1.3286 H         1 <0>         0.1318
     52 H20        -3.5722   -5.3290   -0.4274 H         1 <0>         0.1439
     53 H21        -3.7533   -4.9852   -2.1646 H         1 <0>         0.1412
     54 H22        -4.6102   -3.8259    1.2022 H         1 <0>         0.1407
     55 H23        -5.5278   -2.4152    0.6217 H         1 <0>         0.1407
     56 H24        -3.2729   -1.7645    1.4575 H         1 <0>         0.1357
     57 H25        -3.4537   -1.4201   -0.2796 H         1 <0>         0.0793
     58 H26        -6.8948   -3.7714   -0.8313 H         1 <0>         0.1238
     59 H27        -6.1225   -4.8989   -1.9717 H         1 <0>         0.1230
     60 H28        -6.0632   -5.2226   -0.2224 H         1 <0>         0.1251
     61 N8         -4.7966   -3.6630   -0.9051 N.4       1 <0>        -0.4014
     62 H29        -4.8229   -2.9169   -1.6099 H         1 <0>         0.4281
@<TRIPOS>BOND
     1    1    2 1
     2    1   34 1
     3    1   35 1
     4    1   36 1
     5    2    7 2
     6    2    3 1
     7    3    4 2
     8    3   37 1
     9    4    5 1
    10    4    8 1
    11    5    6 1
    12    5    7 1
    13    8    9 1
    14    8   38 1
    15    9   14 ar
    16    9   10 ar
    17   10   11 ar
    18   10   39 1
    19   11   12 ar
    20   11   28 1
    21   12   13 ar
    22   13   14 ar
    23   13   15 1
    24   15   16 1
    25   16   21 ar
    26   16   17 ar
    27   17   18 ar
    28   17   40 1
    29   18   19 ar
    30   18   41 1
    31   19   20 ar
    32   19   22 1
    33   20   21 ar
    34   20   42 1
    35   21   43 1
    36   22   23 am
    37   22   44 1
    38   23   24 2
    39   23   25 1
    40   25   27 1
    41   25   26 1
    42   25   45 1
    43   26   27 1
    44   26   46 1
    45   26   47 1
    46   27   48 1
    47   27   49 1
    48   28   32 1
    49   28   29 1
    50   29   30 1
    51   29   50 1
    52   29   51 1
    53   30   52 1
    54   30   53 1
    55   30   61 1
    56   31   32 1
    57   31   54 1
    58   31   55 1
    59   31   61 1
    60   32   56 1
    61   32   57 1
    62   33   58 1
    63   33   59 1
    64   33   60 1
    65   33   61 1
    66   61   62 1
@<TRIPOS>MOLECULE
ZINC18825339
   59    62     0     0     0
SMALL
USER_CHARGES
5-[(Z)-(5-fluoro-2-oxo-indolin-3-ylidene)methyl]-N-[(2R)-2-hydroxy-3-morpholino-propyl]-2,4-dimethyl-1H-pyrrole-3-carboxamide
@<TRIPOS>ATOM
      1 C1          3.5607    0.7280    0.3667 C.3       1 <0>        -0.0956
      2 C2          2.0758    0.7165    0.1102 C.2       1 <0>        -0.0564
      3 C3          1.2591    1.8188   -0.0477 C.2       1 <0>        -0.0308
      4 N1         -0.0271    1.3691   -0.2640 N.pl3     1 <0>        -0.5068
      5 H1         -0.8436    2.0903   -0.4163 H         1 <0>         0.4494
      6 C4         -0.0354    0.0257   -0.2455 C.2       1 <0>         0.1277
      7 C5          1.2525   -0.4230   -0.0155 C.2       1 <0>        -0.2308
      8 C6          1.6847   -1.8291    0.0810 C.2       1 <0>         0.5980
      9 O1          2.0430   -2.4250   -0.9167 O.2       1 <0>        -0.5421
     10 N2          1.6827   -2.4542    1.2750 N.am      1 <0>        -0.7266
     11 C7          2.1121   -3.8516    1.3710 C.3       1 <0>         0.1299
     12 C8          2.0150   -4.3162    2.8255 C.3       1 <0>         0.1144
     13 H2          2.5334   -3.6206    3.5018 H         1 <0>         0.0568
     14 C9          2.5799   -5.7329    2.9471 C.3       1 <0>         0.0228
     15 N3          2.4867   -6.1790    4.3436 N.3       1 <0>        -0.5349
     16 C10         3.3671   -5.3829    5.2109 C.3       1 <0>         0.0083
     17 C11         3.1945   -5.8402    6.6618 C.3       1 <0>         0.0618
     18 O2          3.4694   -7.2408    6.7508 O.3       1 <0>        -0.3843
     19 C12         2.6296   -8.0463    5.9193 C.3       1 <0>         0.0614
     20 C13         2.7965   -7.6114    4.4609 C.3       1 <0>         0.0172
     21 O3          0.6463   -4.3123    3.2364 O.3       1 <0>        -0.5882
     22 C14        -1.2476   -0.8477   -0.4426 C.3       1 <0>        -0.0994
     23 C15         1.6686    3.1691    0.0027 C.2       1 <0>         0.0908
     24 C16         0.8216    4.1284    0.5209 C.2       1 <0>        -0.2125
     25 C17         1.0162    5.5955    0.5210 C.ar      1 <0>        -0.0684
     26 C18         2.0202    6.4240    0.0297 C.ar      1 <0>        -0.1043
     27 C19         1.9118    7.7937    0.1786 C.ar      1 <0>         0.0808
     28 C20         0.8031    8.3379    0.8097 C.ar      1 <0>        -0.1198
     29 C21        -0.2000    7.5233    1.2941 C.ar      1 <0>        -0.1061
     30 C22        -0.1080    6.1430    1.1533 C.ar      1 <0>         0.1250
     31 N4         -0.9593    5.1144    1.5420 N.am      1 <0>        -0.6604
     32 C23        -0.4649    3.9133    1.1971 C.2       1 <0>         0.5647
     33 O4         -0.9909    2.8351    1.4086 O.2       1 <0>        -0.5132
     34 F1          2.8866    8.6030   -0.2904 F         1 <0>        -0.1355
     35 H3          3.9167    1.7678    0.4131 H         1 <0>         0.0672
     36 H4          4.0776    0.1994   -0.4478 H         1 <0>         0.0746
     37 H5          3.7717    0.2252    1.3221 H         1 <0>         0.0710
     38 H6          1.3586   -1.9152    2.1775 H         1 <0>         0.4262
     39 H7          1.4633   -4.4786    0.7417 H         1 <0>         0.0750
     40 H8          3.1531   -3.9398    1.0266 H         1 <0>         0.0785
     41 H9          2.0023   -6.4143    2.3052 H         1 <0>         0.0900
     42 H10         3.6334   -5.7360    2.6307 H         1 <0>         0.0465
     43 H11         4.4130   -5.5254    4.9015 H         1 <0>         0.0459
     44 H12         3.1012   -4.3189    5.1257 H         1 <0>         0.0881
     45 H13         3.8925   -5.2859    7.3064 H         1 <0>         0.1001
     46 H14         2.1618   -5.6458    6.9871 H         1 <0>         0.0615
     47 H15         2.9156   -9.1033    6.0238 H         1 <0>         0.1009
     48 H16         1.5805   -7.9185    6.2243 H         1 <0>         0.0621
     49 H17         2.1104   -8.1883    3.8234 H         1 <0>         0.0898
     50 H18         3.8332   -7.7899    4.1393 H         1 <0>         0.0455
     51 H19         0.3780   -4.6185    4.2583 H         1 <0>         0.4136
     52 H20        -0.9523   -1.9052   -0.3757 H         1 <0>         0.0845
     53 H21        -1.6843   -0.6508   -1.4328 H         1 <0>         0.0777
     54 H22        -1.9909   -0.6245    0.3369 H         1 <0>         0.0809
     55 H23         2.6624    3.4568   -0.3709 H         1 <0>         0.1579
     56 H24         2.8828    5.9984   -0.4614 H         1 <0>         0.1409
     57 H25         0.7239    9.4091    0.9228 H         1 <0>         0.1443
     58 H26        -1.0583    7.9589    1.7840 H         1 <0>         0.1386
     59 H27        -1.9003    5.3463    2.0623 H         1 <0>         0.4455
@<TRIPOS>BOND
     1    1    2 1
     2    1   35 1
     3    1   36 1
     4    1   37 1
     5    2    7 1
     6    2    3 2
     7    3    4 1
     8    3   23 1
     9    4    5 1
    10    4    6 1
    11    6    7 2
    12    6   22 1
    13    7    8 1
    14    8    9 2
    15    8   10 am
    16   10   11 1
    17   10   38 1
    18   11   12 1
    19   11   39 1
    20   11   40 1
    21   12   13 1
    22   12   14 1
    23   12   21 1
    24   14   15 1
    25   14   41 1
    26   14   42 1
    27   15   20 1
    28   15   16 1
    29   16   17 1
    30   16   43 1
    31   16   44 1
    32   17   18 1
    33   17   45 1
    34   17   46 1
    35   18   19 1
    36   19   20 1
    37   19   47 1
    38   19   48 1
    39   20   49 1
    40   20   50 1
    41   21   51 1
    42   22   52 1
    43   22   53 1
    44   22   54 1
    45   23   24 2
    46   23   55 1
    47   24   32 1
    48   24   25 1
    49   25   30 ar
    50   25   26 ar
    51   26   27 ar
    52   26   56 1
    53   27   28 ar
    54   27   34 1
    55   28   29 ar
    56   28   57 1
    57   29   30 ar
    58   29   58 1
    59   30   31 1
    60   31   32 am
    61   31   59 1
    62   32   33 2
@<TRIPOS>MOLECULE
ZINC18825344
   59    62     0     0     0
SMALL
USER_CHARGES
5-[(Z)-(5-fluoro-2-oxo-indolin-3-ylidene)methyl]-N-[(2S)-2-hydroxy-3-morpholino-propyl]-2,4-dimethyl-1H-pyrrole-3-carboxamide
@<TRIPOS>ATOM
      1 C1          4.7056    0.6287    1.0117 C.3       1 <0>        -0.0968
      2 C2          3.2464    0.8378    0.6983 C.2       1 <0>        -0.0523
      3 C3          2.5980    2.0501    0.5678 C.2       1 <0>        -0.0327
      4 N1          1.2732    1.7961    0.2789 N.pl3     1 <0>        -0.5060
      5 H1          0.5720    2.6311    0.1339 H         1 <0>         0.4496
      6 C4          1.0783    0.4679    0.2258 C.2       1 <0>         0.1246
      7 C5          2.2801   -0.1676    0.4808 C.2       1 <0>        -0.2308
      8 C6          2.5088   -1.6234    0.5191 C.2       1 <0>         0.5976
      9 O1          2.8262   -2.2159   -0.4944 O.2       1 <0>        -0.5428
     10 N2          2.3662   -2.2977    1.6773 N.am      1 <0>        -0.7254
     11 C7          2.5935   -3.7444    1.7154 C.3       1 <0>         0.1298
     12 C8          2.3672   -4.2590    3.1384 C.3       1 <0>         0.1172
     13 H2          1.3599   -4.0040    3.4994 H         1 <0>         0.0560
     14 C9          2.6045   -5.7699    3.1781 C.3       1 <0>         0.0219
     15 N3          2.3382   -6.2720    4.5327 N.3       1 <0>        -0.5356
     16 C10         2.9762   -7.5793    4.7450 C.3       1 <0>         0.0168
     17 C11         2.7241   -8.0365    6.1842 C.3       1 <0>         0.0612
     18 O2          1.3152   -8.0759    6.4267 O.3       1 <0>        -0.3844
     19 C12         0.6618   -6.8191    6.2299 C.3       1 <0>         0.0617
     20 C13         0.8930   -6.3496    4.7911 C.3       1 <0>         0.0111
     21 O3          3.2765   -3.6103    4.0297 O.3       1 <0>        -0.5892
     22 C14        -0.2328   -0.2165   -0.0637 C.3       1 <0>        -0.0987
     23 C15         3.1876    3.3256    0.7056 C.2       1 <0>         0.0935
     24 C16         2.4515    4.3746    1.2192 C.2       1 <0>        -0.2157
     25 C17         2.8515    5.7966    1.3077 C.ar      1 <0>        -0.0669
     26 C18         3.9943    6.4912    0.9234 C.ar      1 <0>        -0.1048
     27 C19         4.0710    7.8545    1.1363 C.ar      1 <0>         0.0814
     28 C20         3.0098    8.5263    1.7247 C.ar      1 <0>        -0.1204
     29 C21         1.8704    7.8457    2.1029 C.ar      1 <0>        -0.1055
     30 C22         1.7753    6.4739    1.8965 C.ar      1 <0>         0.1237
     31 N4          0.7622    5.5637    2.1775 N.am      1 <0>        -0.6596
     32 C23         1.1039    4.3195    1.8021 C.2       1 <0>         0.5657
     33 O4          0.4171    3.3209    1.9242 O.2       1 <0>        -0.5153
     34 F1          5.1807    8.5334    0.7715 F         1 <0>        -0.1355
     35 H3          5.1994    1.6049    1.1269 H         1 <0>         0.0668
     36 H4          5.1808    0.0720    0.1906 H         1 <0>         0.0744
     37 H5          4.8016    0.0567    1.9464 H         1 <0>         0.0741
     38 H6          2.0791   -1.7617    2.5940 H         1 <0>         0.4273
     39 H7          1.8935   -4.2437    1.0293 H         1 <0>         0.0777
     40 H8          3.6268   -3.9615    1.4070 H         1 <0>         0.0736
     41 H9          1.9304   -6.2658    2.4641 H         1 <0>         0.0486
     42 H10         3.6486   -5.9844    2.9062 H         1 <0>         0.0884
     43 H11         2.5501   -8.3132    4.0451 H         1 <0>         0.0451
     44 H12         4.0587   -7.4917    4.5704 H         1 <0>         0.0900
     45 H13         3.1515   -9.0395    6.3305 H         1 <0>         0.1008
     46 H14         3.1986   -7.3305    6.8817 H         1 <0>         0.0620
     47 H15        -0.4170   -6.9344    6.4112 H         1 <0>         0.1000
     48 H16         1.0741   -6.0778    6.9303 H         1 <0>         0.0613
     49 H17         0.4415   -5.3564    4.6504 H         1 <0>         0.0873
     50 H18         0.4333   -7.0637    4.0920 H         1 <0>         0.0461
     51 H19         3.2627   -3.8533    5.1024 H         1 <0>         0.4141
     52 H20        -0.0899   -1.3070   -0.0417 H         1 <0>         0.0829
     53 H21        -0.5927    0.0862   -1.0581 H         1 <0>         0.0781
     54 H22        -0.9728    0.0718    0.6974 H         1 <0>         0.0803
     55 H23         4.2335    3.4835    0.4037 H         1 <0>         0.1584
     56 H24         4.8196    5.9664    0.4654 H         1 <0>         0.1411
     57 H25         3.0756    9.5918    1.8882 H         1 <0>         0.1443
     58 H26         1.0507    8.3797    2.5605 H         1 <0>         0.1385
     59 H27        -0.1701    5.9069    2.6497 H         1 <0>         0.4455
@<TRIPOS>BOND
     1    1    2 1
     2    1   35 1
     3    1   36 1
     4    1   37 1
     5    2    7 1
     6    2    3 2
     7    3    4 1
     8    3   23 1
     9    4    5 1
    10    4    6 1
    11    6    7 2
    12    6   22 1
    13    7    8 1
    14    8    9 2
    15    8   10 am
    16   10   11 1
    17   10   38 1
    18   11   12 1
    19   11   39 1
    20   11   40 1
    21   12   13 1
    22   12   14 1
    23   12   21 1
    24   14   15 1
    25   14   41 1
    26   14   42 1
    27   15   20 1
    28   15   16 1
    29   16   17 1
    30   16   43 1
    31   16   44 1
    32   17   18 1
    33   17   45 1
    34   17   46 1
    35   18   19 1
    36   19   20 1
    37   19   47 1
    38   19   48 1
    39   20   49 1
    40   20   50 1
    41   21   51 1
    42   22   52 1
    43   22   53 1
    44   22   54 1
    45   23   24 2
    46   23   55 1
    47   24   32 1
    48   24   25 1
    49   25   30 ar
    50   25   26 ar
    51   26   27 ar
    52   26   56 1
    53   27   28 ar
    54   27   34 1
    55   28   29 ar
    56   28   57 1
    57   29   30 ar
    58   29   58 1
    59   30   31 1
    60   31   32 am
    61   31   59 1
    62   32   33 2
