@<TRIPOS>MOLECULE
ZINC29052268
   43    46     0     0     0
SMALL
USER_CHARGES

@<TRIPOS>ATOM
      1 C1         -0.0184    1.5028    0.0103 C.3       1 <0>        -0.0972
      2 C2          0.0021   -0.0041    0.0020 C.2       1 <0>        -0.0653
      3 C3          0.0087   -0.8265   -1.1226 C.2       1 <0>        -0.2156
      4 C4          0.0279   -2.1174   -0.6993 C.2       1 <0>         0.0903
      5 N1          0.0337   -2.1385    0.6557 N.pl3     1 <0>        -0.5138
      6 H1          0.0467   -2.9348    1.2095 H         1 <0>         0.4355
      7 C5          0.0240   -0.8374    1.1158 C.2       1 <0>        -0.0281
      8 C6          0.0316   -0.4302    2.4589 C.2       1 <0>         0.1296
      9 C7          0.0541   -1.3832    3.4759 C.2       1 <0>        -0.0294
     10 C8          0.0587   -1.1175    4.9176 C.2       1 <0>         0.1213
     11 C9          0.0833   -2.3422    5.5222 C.2       1 <0>        -0.3147
     12 C10         0.0933   -3.3133    4.5018 C.2       1 <0>         0.2035
     13 N2          0.0700   -2.7222    3.3181 N.2       1 <0>        -0.4898
     14 C11         0.1194   -4.7715    4.7201 C.2       1 <0>         0.1361
     15 C12         0.1351   -5.7116    3.7386 C.2       1 <0>        -0.1509
     16 C13         0.1589   -7.0149    4.3981 C.ar      1 <0>        -0.1138
     17 C14         0.1811   -8.3342    3.9342 C.ar      1 <0>        -0.0664
     18 C15         0.1997   -9.3669    4.8277 C.ar      1 <0>        -0.1478
     19 C16         0.1967   -9.1180    6.1938 C.ar      1 <0>        -0.0936
     20 C17         0.1749   -7.8264    6.6735 C.ar      1 <0>        -0.1325
     21 C18         0.1558   -6.7580    5.7829 C.ar      1 <0>         0.1092
     22 N3          0.1377   -5.3907    5.9497 N.pl3     1 <0>        -0.5863
     23 H2          0.1353   -4.9330    6.8050 H         1 <0>         0.4152
     24 O1          0.0423    0.0969    5.5270 O.3       1 <0>        -0.2966
     25 C19         0.0511    0.1059    6.9560 C.3       1 <0>         0.0292
     26 C20         0.0408   -3.3307   -1.5930 C.3       1 <0>        -0.0999
     27 H3          1.0042    1.8801    0.0026 H         1 <0>         0.0764
     28 H4         -0.5455    1.8639   -0.8728 H         1 <0>         0.0750
     29 H5         -0.5286    1.8543    0.9071 H         1 <0>         0.0679
     30 H6          0.0001   -0.4958   -2.1507 H         1 <0>         0.1477
     31 H7          0.0200    0.6214    2.7044 H         1 <0>         0.1629
     32 H8          0.0937   -2.5310    6.5855 H         1 <0>         0.1360
     33 H9          0.1304   -5.5297    2.6740 H         1 <0>         0.1492
     34 H10         0.1833   -8.5355    2.8731 H         1 <0>         0.1233
     35 H11         0.2165  -10.3854    4.4689 H         1 <0>         0.1236
     36 H12         0.2111   -9.9454    6.8877 H         1 <0>         0.1262
     37 H13         0.1724   -7.6441    7.7380 H         1 <0>         0.1206
     38 H14         0.9517   -0.3908    7.3169 H         1 <0>         0.0569
     39 H15         0.0362    1.1357    7.3129 H         1 <0>         0.1041
     40 H16        -0.8280   -0.4204    7.3280 H         1 <0>         0.0569
     41 H17         1.0715   -3.6096   -1.8122 H         1 <0>         0.0832
     42 H18        -0.4602   -4.1578   -1.0899 H         1 <0>         0.0725
     43 H19        -0.4796   -3.1024   -2.5231 H         1 <0>         0.0892
@<TRIPOS>BOND
     1    1    2 1
     2    1   27 1
     3    1   28 1
     4    1   29 1
     5    2    7 2
     6    2    3 1
     7    3    4 2
     8    3   30 1
     9    4    5 1
    10    4   26 1
    11    5    6 1
    12    5    7 1
    13    7    8 1
    14    8    9 2
    15    8   31 1
    16    9   13 1
    17    9   10 1
    18   10   11 2
    19   10   24 1
    20   11   12 1
    21   11   32 1
    22   12   13 2
    23   12   14 1
    24   14   22 1
    25   14   15 2
    26   15   16 1
    27   15   33 1
    28   16   21 ar
    29   16   17 ar
    30   17   18 ar
    31   17   34 1
    32   18   19 ar
    33   18   35 1
    34   19   20 ar
    35   19   36 1
    36   20   21 ar
    37   20   37 1
    38   21   22 1
    39   22   23 1
    40   24   25 1
    41   25   38 1
    42   25   39 1
    43   25   40 1
    44   26   41 1
    45   26   42 1
    46   26   43 1
