@<TRIPOS>MOLECULE
ZINC29128429
   49    51     0     0     0
SMALL
USER_CHARGES
(2R)-N-[(1R)-1-[5-[5-chloro-3-fluoro-2-(5-methyl-1,2,4-oxadiazol-3-yl)phenyl]-3-fluoro-2-pyridyl]ethyl]-3,3,3-trifluoro-2-hydroxy-2-methyl-propanamide
@<TRIPOS>ATOM
      1 C1          1.0000    5.2729    4.6995 C.3       1 <0>        -0.0705
      2 C2          0.5876    4.4042    3.5391 C.2       1 <0>         0.1924
      3 N1         -0.5550    4.4502    2.9009 N.2       1 <0>        -0.4646
      4 C3         -0.4775    3.4934    1.9477 C.2       1 <0>         0.2042
      5 N2          0.7004    2.9340    2.0575 N.2       1 <0>        -0.3629
      6 O1          1.3214    3.4457    2.9650 O.3       1 <0>         0.0854
      7 C4         -1.5271    3.1480    0.9602 C.ar      1 <0>        -0.0448
      8 C5         -1.3040    2.1294    0.0198 C.ar      1 <0>         0.0272
      9 C6         -2.2991    1.8100   -0.8987 C.ar      1 <0>        -0.1080
     10 C7         -3.4985    2.4970   -0.8863 C.ar      1 <0>         0.0140
     11 C8         -3.7184    3.5054    0.0369 C.ar      1 <0>        -0.1454
     12 C9         -2.7397    3.8362    0.9563 C.ar      1 <0>         0.1657
     13 F1         -2.9610    4.8211    1.8542 F         1 <0>        -0.1027
     14 Cl1        -4.7364    2.0929   -2.0343 Cl        1 <0>        -0.0355
     15 C10        -0.0169    1.3937    0.0097 C.ar      1 <0>        -0.0907
     16 C11         0.0021   -0.0041    0.0020 C.ar      1 <0>        -0.0790
     17 C12         1.2314   -0.6442   -0.0132 C.ar      1 <0>         0.0568
     18 C13         2.3900    0.1156   -0.0201 C.ar      1 <0>         0.1101
     19 N3          2.3383    1.4334   -0.0126 N.ar      1 <0>        -0.4484
     20 C14         1.1935    2.0847    0.0019 C.ar      1 <0>         0.1743
     21 C15         3.7297   -0.5743   -0.0371 C.3       1 <0>         0.1961
     22 H1          3.6112   -1.6258    0.2634 H         1 <0>         0.1093
     23 C16         4.3404   -0.4679   -1.4359 C.3       1 <0>        -0.1579
     24 N4          4.6205    0.0649    0.9345 N.am      1 <0>        -0.7060
     25 C17         5.6440   -0.6301    1.4693 C.2       1 <0>         0.5381
     26 O2          5.8276   -1.7845    1.1462 O.2       1 <0>        -0.5157
     27 C18         6.5604    0.0274    2.4689 C.3       1 <0>         0.0925
     28 C19         7.6591    0.7918    1.7277 C.3       1 <0>        -0.1853
     29 C20         7.1953   -1.0424    3.3595 C.3       1 <0>         0.4392
     30 F2          7.9299   -1.9321    2.5682 F         1 <0>        -0.1631
     31 F3          8.0460   -0.4321    4.2874 F         1 <0>        -0.1807
     32 F4          6.1907   -1.7414    4.0372 F         1 <0>        -0.1713
     33 O3          5.8101    0.9362    3.2771 O.3       1 <0>        -0.5542
     34 F5          1.2991   -1.9935   -0.0215 F         1 <0>        -0.1210
     35 H2          0.1833    5.9673    4.9461 H         1 <0>         0.1097
     36 H3          1.8988    5.8457    4.4274 H         1 <0>         0.1051
     37 H4          1.2189    4.6397    5.5719 H         1 <0>         0.1044
     38 H5         -2.1344    1.0247   -1.6216 H         1 <0>         0.1534
     39 H6         -4.6588    4.0364    0.0387 H         1 <0>         0.1601
     40 H7         -0.9174   -0.5706    0.0081 H         1 <0>         0.1543
     41 H8          1.1927    3.1647    0.0073 H         1 <0>         0.1571
     42 H9          5.3183   -0.9715   -1.4483 H         1 <0>         0.0738
     43 H10         4.4704    0.5921   -1.6995 H         1 <0>         0.0704
     44 H11         3.6715   -0.9478   -2.1655 H         1 <0>         0.0700
     45 H12         4.4540    1.1120    1.2275 H         1 <0>         0.4411
     46 H13         8.3280    1.2717    2.4573 H         1 <0>         0.0884
     47 H14         7.2026    1.5610    1.0874 H         1 <0>         0.0949
     48 H15         8.2366    0.0923    1.1055 H         1 <0>         0.0885
     49 H16         6.3125    1.5126    4.0679 H         1 <0>         0.4312
@<TRIPOS>BOND
     1    1    2 1
     2    1   35 1
     3    1   36 1
     4    1   37 1
     5    2    6 1
     6    2    3 2
     7    3    4 1
     8    4    5 2
     9    4    7 1
    10    5    6 1
    11    7   12 ar
    12    7    8 ar
    13    8    9 ar
    14    8   15 1
    15    9   10 ar
    16    9   38 1
    17   10   11 ar
    18   10   14 1
    19   11   12 ar
    20   11   39 1
    21   12   13 1
    22   15   20 ar
    23   15   16 ar
    24   16   17 ar
    25   16   40 1
    26   17   18 ar
    27   17   34 1
    28   18   19 ar
    29   18   21 1
    30   19   20 ar
    31   20   41 1
    32   21   22 1
    33   21   23 1
    34   21   24 1
    35   23   42 1
    36   23   43 1
    37   23   44 1
    38   24   25 am
    39   24   45 1
    40   25   26 2
    41   25   27 1
    42   27   28 1
    43   27   29 1
    44   27   33 1
    45   28   46 1
    46   28   47 1
    47   28   48 1
    48   29   30 1
    49   29   31 1
    50   29   32 1
    51   33   49 1
@<TRIPOS>MOLECULE
ZINC00625005
   45    47     0     0     0
SMALL
USER_CHARGES

@<TRIPOS>ATOM
      1 C1         -0.7606    1.4127   -3.0800 C.3       1 <0>        -0.1692
      2 C2         -0.7386   -0.0910   -2.9830 C.2       1 <0>         0.5063
      3 O1         -1.3365   -0.7601   -3.7990 O.2       1 <0>        -0.5195
      4 N1         -0.0547   -0.6923   -1.9895 N.am      1 <0>        -0.6755
      5 C3         -0.1145   -2.0823   -1.8405 C.ar      1 <0>         0.1739
      6 C4         -0.1025   -2.6473   -0.5720 C.ar      1 <0>        -0.1689
      7 C5         -0.1616   -4.0197   -0.4283 C.ar      1 <0>        -0.0043
      8 C6         -0.2326   -4.8309   -1.5459 C.ar      1 <0>        -0.6279
      9 C7         -0.2442   -4.2714   -2.8104 C.ar      1 <0>        -0.0051
     10 C8         -0.1916   -2.8995   -2.9607 C.ar      1 <0>        -0.1443
     11 S1         -0.3079   -6.5813   -1.3583 S.o2      1 <0>         2.6095
     12 O2          0.1817   -7.1409   -2.5693 O.2       1 <0>        -1.0265
     13 O3          0.2679   -6.8793   -0.0938 O.2       1 <0>        -1.0272
     14 N2         -1.9083   -6.9947   -1.2588 N.2       1 <0>        -1.0824
     15 C9         -2.2733   -8.3252   -1.1055 C.ar      1 <0>         0.3174
     16 C10        -1.2986   -9.3126   -1.0293 C.ar      1 <0>        -0.2644
     17 C11        -1.6639  -10.6341   -0.8764 C.ar      1 <0>        -0.0498
     18 C12        -3.0021  -10.9887   -0.7981 C.ar      1 <0>        -0.2286
     19 C13        -3.9830  -10.0252   -0.8716 C.ar      1 <0>        -0.0400
     20 C14        -3.6299   -8.6802   -1.0207 C.ar      1 <0>        -0.2325
     21 C15        -4.6736   -7.6433   -1.0939 C.2       1 <0>         0.4876
     22 O4         -5.3229   -7.5050   -2.1128 O.2       1 <0>        -0.4715
     23 C16        -4.9317   -6.7709    0.0710 C.ar      1 <0>        -0.1305
     24 C17        -5.8418   -5.7165   -0.0303 C.ar      1 <0>        -0.0709
     25 C18        -6.0779   -4.9063    1.0607 C.ar      1 <0>        -0.1420
     26 C19        -5.4149   -5.1360    2.2535 C.ar      1 <0>        -0.1034
     27 C20        -4.5118   -6.1790    2.3608 C.ar      1 <0>        -0.1393
     28 C21        -4.2709   -7.0008    1.2795 C.ar      1 <0>        -0.0482
     29 H1         -1.6046    1.8013   -2.5101 H         1 <0>         0.0974
     30 H2          0.1676    1.8165   -2.6754 H         1 <0>         0.0817
     31 H3         -0.8605    1.7081   -4.1244 H         1 <0>         0.0967
     32 H4          0.4791   -0.1615   -1.3777 H         1 <0>         0.4111
     33 H5         -0.0468   -2.0143    0.3013 H         1 <0>         0.1289
     34 H6         -0.1521   -4.4597    0.5579 H         1 <0>         0.1403
     35 H7         -0.2994   -4.9077   -3.6813 H         1 <0>         0.1398
     36 H8         -0.2059   -2.4629   -3.9484 H         1 <0>         0.1413
     37 H9         -0.2540   -9.0452   -1.0901 H         1 <0>         0.1021
     38 H10        -0.9024  -11.3977   -0.8177 H         1 <0>         0.1054
     39 H11        -3.2766  -12.0264   -0.6792 H         1 <0>         0.1072
     40 H12        -5.0237  -10.3073   -0.8100 H         1 <0>         0.1079
     41 H13        -6.3593   -5.5357   -0.9608 H         1 <0>         0.1267
     42 H14        -6.7814   -4.0905    0.9838 H         1 <0>         0.1193
     43 H15        -5.6030   -4.4981    3.1044 H         1 <0>         0.1174
     44 H16        -3.9976   -6.3525    3.2945 H         1 <0>         0.1218
     45 H17        -3.5691   -7.8172    1.3659 H         1 <0>         0.1322
@<TRIPOS>BOND
     1    1    2 1
     2    1   29 1
     3    1   30 1
     4    1   31 1
     5    2    3 2
     6    2    4 am
     7    4    5 1
     8    4   32 1
     9    5   10 ar
    10    5    6 ar
    11    6    7 ar
    12    6   33 1
    13    7    8 ar
    14    7   34 1
    15    8    9 ar
    16    8   11 1
    17    9   10 ar
    18    9   35 1
    19   10   36 1
    20   11   12 2
    21   11   13 2
    22   11   14 1
    23   14   15 1
    24   15   20 ar
    25   15   16 ar
    26   16   17 ar
    27   16   37 1
    28   17   18 ar
    29   17   38 1
    30   18   19 ar
    31   18   39 1
    32   19   20 ar
    33   19   40 1
    34   20   21 1
    35   21   22 2
    36   21   23 1
    37   23   28 ar
    38   23   24 ar
    39   24   25 ar
    40   24   41 1
    41   25   26 ar
    42   25   42 1
    43   26   27 ar
    44   26   43 1
    45   27   28 ar
    46   27   44 1
    47   28   45 1
@<TRIPOS>MOLECULE
ZINC00625005
   46    48     0     0     0
SMALL
USER_CHARGES

@<TRIPOS>ATOM
      1 C1         -1.6653    1.5302   -3.3723 C.3       1 <0>        -0.1717
      2 C2         -1.4466    0.0571   -3.1416 C.2       1 <0>         0.5119
      3 O1         -1.8200   -0.7482   -3.9681 O.2       1 <0>        -0.5168
      4 N1         -0.8361   -0.3655   -2.0167 N.am      1 <0>        -0.6788
      5 C3         -0.7207   -1.7353   -1.7557 C.ar      1 <0>         0.2065
      6 C4         -0.8098   -2.2052   -0.4520 C.ar      1 <0>        -0.1650
      7 C5         -0.6954   -3.5579   -0.1976 C.ar      1 <0>         0.0056
      8 C6         -0.4923   -4.4440   -1.2396 C.ar      1 <0>        -0.6945
      9 C7         -0.4025   -3.9793   -2.5389 C.ar      1 <0>         0.0054
     10 C8         -0.5223   -2.6284   -2.8005 C.ar      1 <0>        -0.1421
     11 S1         -0.3468   -6.1690   -0.9109 S.o2      1 <0>         2.6904
     12 O2          0.3835   -6.7286   -1.9938 O.2       1 <0>        -0.9424
     13 O3          0.0796   -6.2906    0.4392 O.2       1 <0>        -0.9448
     14 N2         -1.8711   -6.8119   -0.9855 N.pl3     1 <0>        -1.0556
     15 C9         -2.6072   -6.7181   -2.1586 C.ar      1 <0>         0.1863
     16 C10        -1.9716   -6.8061   -3.3911 C.ar      1 <0>        -0.1755
     17 C11        -2.7055   -6.7131   -4.5556 C.ar      1 <0>        -0.0688
     18 C12        -4.0793   -6.5312   -4.5077 C.ar      1 <0>        -0.1306
     19 C13        -4.7278   -6.4417   -3.2964 C.ar      1 <0>        -0.0585
     20 C14        -3.9997   -6.5397   -2.1064 C.ar      1 <0>        -0.1665
     21 C15        -4.6875   -6.4509   -0.8067 C.2       1 <0>         0.4450
     22 O4         -5.0912   -5.3765   -0.4047 O.2       1 <0>        -0.4319
     23 C16        -4.8870   -7.6675    0.0085 C.ar      1 <0>        -0.1746
     24 C17        -5.6237   -7.6050    1.1932 C.ar      1 <0>        -0.0587
     25 C18        -5.8060   -8.7442    1.9492 C.ar      1 <0>        -0.1303
     26 C19        -5.2603   -9.9470    1.5364 C.ar      1 <0>        -0.0828
     27 C20        -4.5292  -10.0161    0.3636 C.ar      1 <0>        -0.1299
     28 C21        -4.3444   -8.8859   -0.4053 C.ar      1 <0>        -0.0749
     29 H1         -2.6291    1.8239   -2.9566 H         1 <0>         0.1012
     30 H2         -0.8715    2.0961   -2.8847 H         1 <0>         0.0853
     31 H3         -1.6534    1.7360   -4.4427 H         1 <0>         0.1010
     32 H4         -0.4768    0.2800   -1.3881 H         1 <0>         0.4170
     33 H5         -0.9682   -1.5135    0.3623 H         1 <0>         0.1388
     34 H6         -0.7643   -3.9239    0.8161 H         1 <0>         0.1448
     35 H7         -0.2435   -4.6739   -3.3504 H         1 <0>         0.1445
     36 H8         -0.4573   -2.2666   -3.8160 H         1 <0>         0.1505
     37 H9         -0.9018   -6.9470   -3.4375 H         1 <0>         0.1676
     38 H10        -2.2066   -6.7821   -5.5109 H         1 <0>         0.1371
     39 H11        -4.6437   -6.4591   -5.4256 H         1 <0>         0.1341
     40 H12        -5.7981   -6.3000   -3.2652 H         1 <0>         0.1321
     41 H13        -6.0495   -6.6667    1.5169 H         1 <0>         0.1351
     42 H14        -6.3755   -8.6972    2.8656 H         1 <0>         0.1321
     43 H15        -5.4054  -10.8358    2.1325 H         1 <0>         0.1304
     44 H16        -4.1057  -10.9580    0.0473 H         1 <0>         0.1324
     45 H17        -3.7773   -8.9421   -1.3227 H         1 <0>         0.1331
     46 H18        -2.2495   -7.2539   -0.2095 H         1 <0>         0.4265
@<TRIPOS>BOND
     1    1    2 1
     2    1   29 1
     3    1   30 1
     4    1   31 1
     5    2    3 2
     6    2    4 am
     7    4    5 1
     8    4   32 1
     9    5   10 ar
    10    5    6 ar
    11    6    7 ar
    12    6   33 1
    13    7    8 ar
    14    7   34 1
    15    8    9 ar
    16    8   11 1
    17    9   10 ar
    18    9   35 1
    19   10   36 1
    20   11   12 2
    21   11   13 2
    22   11   14 1
    23   14   15 1
    24   14   46 1
    25   15   20 ar
    26   15   16 ar
    27   16   17 ar
    28   16   37 1
    29   17   18 ar
    30   17   38 1
    31   18   19 ar
    32   18   39 1
    33   19   20 ar
    34   19   40 1
    35   20   21 1
    36   21   22 2
    37   21   23 1
    38   23   28 ar
    39   23   24 ar
    40   24   25 ar
    41   24   41 1
    42   25   26 ar
    43   25   42 1
    44   26   27 ar
    45   26   43 1
    46   27   28 ar
    47   27   44 1
    48   28   45 1
@<TRIPOS>MOLECULE
ZINC00822424
   62    65     0     0     0
SMALL
USER_CHARGES

@<TRIPOS>ATOM
      1 C1         -3.3552   -9.8095    3.3283 C.3       1 <0>        -0.1263
      2 C2         -3.0156   -8.5973    2.4999 C.ar      1 <0>        -0.0124
      3 C3         -2.5752   -8.7506    1.1986 C.ar      1 <0>        -0.1543
      4 C4         -2.2637   -7.6387    0.4388 C.ar      1 <0>         0.0350
      5 C5         -2.3931   -6.3733    0.9801 C.ar      1 <0>        -0.6965
      6 C6         -2.8345   -6.2199    2.2811 C.ar      1 <0>         0.0313
      7 C7         -3.1500   -7.3317    3.0395 C.ar      1 <0>        -0.1525
      8 C8         -2.9751   -4.8405    2.8713 C.3       1 <0>        -0.1446
      9 S1         -1.9950   -4.9560    0.0119 S.o2      1 <0>         2.6832
     10 O1         -2.2983   -5.2869   -1.3363 O.2       1 <0>        -0.9348
     11 O2         -2.5744   -3.8382    0.6708 O.2       1 <0>        -0.9363
     12 N1         -0.3534   -4.7538    0.0919 N.pl3     1 <0>        -0.9364
     13 C9          0.4838   -5.2246   -0.9294 C.ar      1 <0>         0.1062
     14 C10         0.0372   -5.3121   -2.2357 C.ar      1 <0>        -0.1234
     15 C11         0.8888   -5.7767   -3.2224 C.ar      1 <0>        -0.1152
     16 C12         2.1813   -6.1521   -2.9050 C.ar      1 <0>        -0.0952
     17 C13         2.6332   -6.0689   -1.6005 C.ar      1 <0>        -0.1356
     18 C14         1.7871   -5.6065   -0.6058 C.ar      1 <0>         0.1416
     19 N2          2.2212   -5.5240    0.7226 N.am      1 <0>        -0.6583
     20 C15         1.5164   -4.8272    1.6342 C.2       1 <0>         0.5128
     21 O3          1.8871   -4.8045    2.7889 O.2       1 <0>        -0.4733
     22 C16         0.2719   -4.0694    1.2334 C.3       1 <0>         0.1554
     23 H1         -0.4259   -4.0446    2.0704 H         1 <0>         0.1422
     24 C17         0.6439   -2.6405    0.8323 C.3       1 <0>        -0.1530
     25 C18         1.1193   -1.8855    2.0467 C.2       1 <0>         0.5085
     26 O4          1.1400   -2.4306    3.1301 O.2       1 <0>        -0.4887
     27 N3          1.5216   -0.6045    1.9291 N.am      1 <0>        -0.6593
     28 C19         2.0729    0.0608    3.0322 C.ar      1 <0>         0.1212
     29 C20         2.6193   -0.6652    4.0805 C.ar      1 <0>        -0.1002
     30 C21         3.1629   -0.0067    5.1671 C.ar      1 <0>        -0.1329
     31 C22         3.1634    1.3753    5.2131 C.ar      1 <0>        -0.0990
     32 C23         2.6207    2.1055    4.1723 C.ar      1 <0>        -0.1881
     33 C24         2.0789    1.4531    3.0766 C.ar      1 <0>         0.0954
     34 O5          1.5498    2.1700    2.0494 O.3       1 <0>        -0.3222
     35 C25         1.5907    3.5938    2.1633 C.3       1 <0>         0.0297
     36 C26        -1.7826   -7.8059   -0.9795 C.3       1 <0>        -0.1454
     37 H2         -4.4068  -10.0609    3.1904 H         1 <0>         0.0816
     38 H3         -2.7365  -10.6498    3.0132 H         1 <0>         0.0738
     39 H4         -3.1679   -9.5948    4.3804 H         1 <0>         0.0744
     40 H5         -2.4740   -9.7392    0.7757 H         1 <0>         0.1332
     41 H6         -3.4984   -7.2117    4.0547 H         1 <0>         0.1344
     42 H7         -3.9321   -4.4130    2.5719 H         1 <0>         0.0968
     43 H8         -2.9299   -4.9041    3.9585 H         1 <0>         0.0770
     44 H9         -2.1652   -4.2065    2.5105 H         1 <0>         0.0857
     45 H10        -0.9721   -5.0192   -2.4845 H         1 <0>         0.1795
     46 H11         0.5429   -5.8468   -4.2431 H         1 <0>         0.1357
     47 H12         2.8415   -6.5124   -3.6801 H         1 <0>         0.1327
     48 H13         3.6434   -6.3638   -1.3579 H         1 <0>         0.1342
     49 H14         3.0382   -5.9738    0.9893 H         1 <0>         0.4157
     50 H15         1.4389   -2.6676    0.0871 H         1 <0>         0.1114
     51 H16        -0.2299   -2.1415    0.4133 H         1 <0>         0.1250
     52 H17         1.4295   -0.1432    1.0808 H         1 <0>         0.4157
     53 H18         2.6196   -1.7447    4.0475 H         1 <0>         0.1600
     54 H19         3.5880   -0.5730    5.9826 H         1 <0>         0.1281
     55 H20         3.5887    1.8856    6.0647 H         1 <0>         0.1261
     56 H21         2.6224    3.1848    4.2115 H         1 <0>         0.1318
     57 H22         1.0392    3.9033    3.0512 H         1 <0>         0.0566
     58 H23         2.6268    3.9221    2.2464 H         1 <0>         0.0562
     59 H24         1.1373    4.0422    1.2793 H         1 <0>         0.1013
     60 H25        -2.6214   -7.6829   -1.6646 H         1 <0>         0.1002
     61 H26        -1.0231   -7.0548   -1.1965 H         1 <0>         0.0769
     62 H27        -1.3552   -8.8010   -1.1033 H         1 <0>         0.0771
@<TRIPOS>BOND
     1    1    2 1
     2    1   37 1
     3    1   38 1
     4    1   39 1
     5    2    7 ar
     6    2    3 ar
     7    3    4 ar
     8    3   40 1
     9    4    5 ar
    10    4   36 1
    11    5    6 ar
    12    5    9 1
    13    6    7 ar
    14    6    8 1
    15    7   41 1
    16    8   42 1
    17    8   43 1
    18    8   44 1
    19    9   10 2
    20    9   11 2
    21    9   12 1
    22   12   22 1
    23   12   13 1
    24   13   18 ar
    25   13   14 ar
    26   14   15 ar
    27   14   45 1
    28   15   16 ar
    29   15   46 1
    30   16   17 ar
    31   16   47 1
    32   17   18 ar
    33   17   48 1
    34   18   19 1
    35   19   20 am
    36   19   49 1
    37   20   21 2
    38   20   22 1
    39   22   23 1
    40   22   24 1
    41   24   25 1
    42   24   50 1
    43   24   51 1
    44   25   26 2
    45   25   27 am
    46   27   28 1
    47   27   52 1
    48   28   33 ar
    49   28   29 ar
    50   29   30 ar
    51   29   53 1
    52   30   31 ar
    53   30   54 1
    54   31   32 ar
    55   31   55 1
    56   32   33 ar
    57   32   56 1
    58   33   34 1
    59   34   35 1
    60   35   57 1
    61   35   58 1
    62   35   59 1
    63   36   60 1
    64   36   61 1
    65   36   62 1
@<TRIPOS>MOLECULE
ZINC00822426
   62    65     0     0     0
SMALL
USER_CHARGES

@<TRIPOS>ATOM
      1 C1         -0.4212    1.0433   -3.2346 C.3       1 <0>        -0.1248
      2 C2         -0.2008   -0.3445   -2.6900 C.ar      1 <0>        -0.0187
      3 C3         -0.8731   -1.4186   -3.2425 C.ar      1 <0>        -0.1499
      4 C4         -0.6709   -2.6915   -2.7429 C.ar      1 <0>         0.0305
      5 C5          0.2039   -2.8905   -1.6912 C.ar      1 <0>        -0.6986
      6 C6          0.8769   -1.8165   -1.1394 C.ar      1 <0>         0.0272
      7 C7          0.6779   -0.5441   -1.6417 C.ar      1 <0>        -0.1503
      8 C8          1.8302   -2.0333    0.0075 C.3       1 <0>        -0.1555
      9 S1          0.4607   -4.5129   -1.0537 S.o2      1 <0>         2.7088
     10 O1          0.0223   -4.4923    0.2978 O.2       1 <0>        -0.9154
     11 O2         -0.0716   -5.4154   -2.0136 O.2       1 <0>        -0.9384
     12 N1          2.0960   -4.7714   -1.0170 N.pl3     1 <0>        -0.9325
     13 C9          2.8509   -4.7963   -2.1981 C.ar      1 <0>         0.1250
     14 C10         2.2904   -5.2033   -3.3956 C.ar      1 <0>        -0.1363
     15 C11         3.0626   -5.2211   -4.5436 C.ar      1 <0>        -0.1053
     16 C12         4.3894   -4.8344   -4.4952 C.ar      1 <0>        -0.1027
     17 C13         4.9553   -4.4255   -3.3013 C.ar      1 <0>        -0.1265
     18 C14         4.1891   -4.4018   -2.1474 C.ar      1 <0>         0.1289
     19 N2          4.7394   -3.9808   -0.9308 N.am      1 <0>        -0.6523
     20 C15         4.0994   -4.2147    0.2306 C.2       1 <0>         0.5208
     21 O3          4.5721   -3.8027    1.2690 O.2       1 <0>        -0.5026
     22 C16         2.8032   -4.9759    0.2560 C.3       1 <0>         0.1451
     23 H1          2.1852   -4.6156    1.0784 H         1 <0>         0.1560
     24 C17         3.0938   -6.4659    0.4464 C.3       1 <0>        -0.1536
     25 C18         1.7968   -7.2116    0.6278 C.2       1 <0>         0.5178
     26 O4          0.7406   -6.6227    0.5343 O.2       1 <0>        -0.5124
     27 N3          1.8106   -8.5327    0.8939 N.am      1 <0>        -0.6531
     28 C19         0.6064   -9.2456    0.9650 C.ar      1 <0>         0.1137
     29 C20        -0.5695   -8.5926    1.3046 C.ar      1 <0>        -0.0955
     30 C21        -1.7560   -9.2977    1.3737 C.ar      1 <0>        -0.1356
     31 C22        -1.7748  -10.6541    1.1054 C.ar      1 <0>        -0.0948
     32 C23        -0.6070  -11.3117    0.7663 C.ar      1 <0>        -0.1911
     33 C24         0.5857  -10.6109    0.6892 C.ar      1 <0>         0.0996
     34 O5          1.7341  -11.2552    0.3503 O.3       1 <0>        -0.3220
     35 C25         1.6373  -12.6553    0.0812 C.3       1 <0>         0.0295
     36 C26        -1.4045   -3.8624   -3.3446 C.3       1 <0>        -0.1448
     37 H2          0.2924    1.2369   -4.0354 H         1 <0>         0.0798
     38 H3         -1.4358    1.1236   -3.6247 H         1 <0>         0.0739
     39 H4         -0.2796    1.7732   -2.4375 H         1 <0>         0.0730
     40 H5         -1.5565   -1.2632   -4.0641 H         1 <0>         0.1335
     41 H6          1.2065    0.2945   -1.2130 H         1 <0>         0.1311
     42 H7          2.8427   -2.1504   -0.3789 H         1 <0>         0.0811
     43 H8          1.7940   -1.1742    0.6774 H         1 <0>         0.0926
     44 H9          1.5434   -2.9321    0.5534 H         1 <0>         0.0740
     45 H10         1.2545   -5.5061   -3.4342 H         1 <0>         0.1661
     46 H11         2.6280   -5.5384   -5.4801 H         1 <0>         0.1347
     47 H12         4.9871   -4.8521   -5.3945 H         1 <0>         0.1331
     48 H13         5.9922   -4.1252   -3.2687 H         1 <0>         0.1350
     49 H14         5.5907   -3.5160   -0.9245 H         1 <0>         0.4175
     50 H15         3.6139   -6.8497   -0.4313 H         1 <0>         0.1162
     51 H16         3.7190   -6.6044    1.3285 H         1 <0>         0.1254
     52 H17         2.6541   -8.9901    1.0361 H         1 <0>         0.4165
     53 H18        -0.5576   -7.5334    1.5154 H         1 <0>         0.1650
     54 H19        -2.6708   -8.7882    1.6382 H         1 <0>         0.1292
     55 H20        -2.7042  -11.2013    1.1612 H         1 <0>         0.1266
     56 H21        -0.6251  -12.3712    0.5577 H         1 <0>         0.1319
     57 H22         1.2627  -13.1703    0.9658 H         1 <0>         0.0566
     58 H23         0.9532  -12.8187   -0.7515 H         1 <0>         0.0567
     59 H24         2.6223  -13.0447   -0.1761 H         1 <0>         0.1009
     60 H25        -0.7566   -4.3682   -4.0604 H         1 <0>         0.0933
     61 H26        -1.6870   -4.5587   -2.5550 H         1 <0>         0.0930
     62 H27        -2.3006   -3.5071   -3.8534 H         1 <0>         0.0728
@<TRIPOS>BOND
     1    1    2 1
     2    1   37 1
     3    1   38 1
     4    1   39 1
     5    2    7 ar
     6    2    3 ar
     7    3    4 ar
     8    3   40 1
     9    4    5 ar
    10    4   36 1
    11    5    6 ar
    12    5    9 1
    13    6    7 ar
    14    6    8 1
    15    7   41 1
    16    8   42 1
    17    8   43 1
    18    8   44 1
    19    9   10 2
    20    9   11 2
    21    9   12 1
    22   12   22 1
    23   12   13 1
    24   13   18 ar
    25   13   14 ar
    26   14   15 ar
    27   14   45 1
    28   15   16 ar
    29   15   46 1
    30   16   17 ar
    31   16   47 1
    32   17   18 ar
    33   17   48 1
    34   18   19 1
    35   19   20 am
    36   19   49 1
    37   20   21 2
    38   20   22 1
    39   22   23 1
    40   22   24 1
    41   24   25 1
    42   24   50 1
    43   24   51 1
    44   25   26 2
    45   25   27 am
    46   27   28 1
    47   27   52 1
    48   28   33 ar
    49   28   29 ar
    50   29   30 ar
    51   29   53 1
    52   30   31 ar
    53   30   54 1
    54   31   32 ar
    55   31   55 1
    56   32   33 ar
    57   32   56 1
    58   33   34 1
    59   34   35 1
    60   35   57 1
    61   35   58 1
    62   35   59 1
    63   36   60 1
    64   36   61 1
    65   36   62 1
