@<TRIPOS>MOLECULE
ZINC08617650
   48    52     0     0     0
SMALL
USER_CHARGES
7-[phenyl-(8-quinolylamino)methyl]quinolin-8-ol
@<TRIPOS>ATOM
      1 C1          0.5234   -2.7343    0.0475 C.ar      1 <0>        -0.1157
      2 C2          1.5311   -1.9046    0.5028 C.ar      1 <0>        -0.1204
      3 C3          1.3556   -0.5335    0.4910 C.ar      1 <0>        -0.0960
      4 C4          0.1729    0.0080    0.0232 C.ar      1 <0>        -0.0972
      5 C5         -0.8366   -0.8219   -0.4276 C.ar      1 <0>        -0.0960
      6 C6         -0.6594   -2.1928   -0.4199 C.ar      1 <0>        -0.1232
      7 C7         -0.0184    1.5028    0.0103 C.3       1 <0>         0.2414
      8 H1          0.9537    1.9938    0.0556 H         1 <0>         0.1012
      9 C8         -0.8448    1.9137    1.2016 C.ar      1 <0>        -0.1003
     10 C9         -2.2275    2.0167    1.0742 C.ar      1 <0>        -0.0947
     11 C10        -3.0025    2.3851    2.1315 C.ar      1 <0>        -0.0962
     12 C11        -2.4028    2.6662    3.3701 C.ar      1 <0>        -0.0899
     13 C12        -3.1709    3.0505    4.4855 C.ar      1 <0>        -0.0588
     14 C13        -2.5199    3.3082    5.6581 C.ar      1 <0>        -0.1687
     15 C14        -1.1333    3.1884    5.7242 C.ar      1 <0>         0.1296
     16 N1         -0.4218    2.8303    4.6831 N.ar      1 <0>        -0.4597
     17 C15        -0.9970    2.5636    3.5072 C.ar      1 <0>         0.1055
     18 C16        -0.2266    2.1740    2.3912 C.ar      1 <0>         0.1525
     19 O1          1.1230    2.0629    2.4983 O.3       1 <0>        -0.4743
     20 N2         -0.7074    1.8963   -1.2212 N.pl3     1 <0>        -0.7202
     21 C17         0.0210    2.1038   -2.3918 C.ar      1 <0>         0.2510
     22 C18         1.3900    1.9455   -2.3950 C.ar      1 <0>        -0.2093
     23 C19         2.1280    2.1430   -3.5581 C.ar      1 <0>        -0.0541
     24 C20         1.5197    2.5098   -4.7203 C.ar      1 <0>        -0.1666
     25 C21         0.1274    2.6872   -4.7563 C.ar      1 <0>        -0.0573
     26 C22        -0.6377    2.4833   -3.5820 C.ar      1 <0>         0.0794
     27 N3         -1.9624    2.6503   -3.6131 N.ar      1 <0>        -0.4682
     28 C23        -2.5795    3.0028   -4.7147 C.ar      1 <0>         0.1111
     29 C24        -1.8878    3.2195   -5.9046 C.ar      1 <0>        -0.1633
     30 C25        -0.5313    3.0655   -5.9420 C.ar      1 <0>        -0.0702
     31 H2          0.6605   -3.8055    0.0567 H         1 <0>         0.1210
     32 H3          2.4552   -2.3276    0.8680 H         1 <0>         0.1229
     33 H4          2.1427    0.1147    0.8470 H         1 <0>         0.1258
     34 H5         -1.7623   -0.3990   -0.7890 H         1 <0>         0.1157
     35 H6         -1.4465   -2.8410   -0.7759 H         1 <0>         0.1204
     36 H7         -2.6919    1.8017    0.1231 H         1 <0>         0.1301
     37 H8         -4.0739    2.4606    2.0182 H         1 <0>         0.1368
     38 H9         -4.2451    3.1383    4.4161 H         1 <0>         0.1426
     39 H10        -3.0792    3.6052    6.5330 H         1 <0>         0.1410
     40 H11        -0.6315    3.3956    6.6578 H         1 <0>         0.1624
     41 H12         1.6020    2.8787    2.2979 H         1 <0>         0.3914
     42 H13        -1.6704    2.0126   -1.2222 H         1 <0>         0.4093
     43 H14         1.8958    1.6597   -1.4846 H         1 <0>         0.1269
     44 H15         3.1994    2.0088   -3.5377 H         1 <0>         0.1253
     45 H16         2.1077    2.6637   -5.6130 H         1 <0>         0.1254
     46 H17        -3.6521    3.1279   -4.6996 H         1 <0>         0.1571
     47 H18        -2.4238    3.5086   -6.7965 H         1 <0>         0.1362
     48 H19         0.0209    3.2296   -6.8555 H         1 <0>         0.1384
@<TRIPOS>BOND
     1    1    6 ar
     2    1    2 ar
     3    1   31 1
     4    2    3 ar
     5    2   32 1
     6    3    4 ar
     7    3   33 1
     8    4    5 ar
     9    4    7 1
    10    5    6 ar
    11    5   34 1
    12    6   35 1
    13    7    8 1
    14    7    9 1
    15    7   20 1
    16    9   18 ar
    17    9   10 ar
    18   10   11 ar
    19   10   36 1
    20   11   12 ar
    21   11   37 1
    22   12   17 ar
    23   12   13 ar
    24   13   14 ar
    25   13   38 1
    26   14   15 ar
    27   14   39 1
    28   15   16 ar
    29   15   40 1
    30   16   17 ar
    31   17   18 ar
    32   18   19 1
    33   19   41 1
    34   20   21 1
    35   20   42 1
    36   21   26 ar
    37   21   22 ar
    38   22   23 ar
    39   22   43 1
    40   23   24 ar
    41   23   44 1
    42   24   25 ar
    43   24   45 1
    44   25   30 ar
    45   25   26 ar
    46   26   27 ar
    47   27   28 ar
    48   28   29 ar
    49   28   46 1
    50   29   30 ar
    51   29   47 1
    52   30   48 1
@<TRIPOS>MOLECULE
ZINC00349730
   43    46     0     0     0
SMALL
USER_CHARGES
7-[phenyl-(2-pyridylamino)methyl]quinolin-8-ol
@<TRIPOS>ATOM
      1 C1         -2.6676   -0.8447   -4.0360 C.ar      1 <0>        -0.1020
      2 C2         -3.2274    0.0412   -3.1346 C.ar      1 <0>        -0.1122
      3 C3         -2.7846    0.0675   -1.8254 C.ar      1 <0>        -0.0911
      4 C4         -1.7821   -0.7925   -1.4174 C.ar      1 <0>        -0.1210
      5 C5         -1.2186   -1.6748   -2.3201 C.ar      1 <0>        -0.1030
      6 C6         -1.6645   -1.7041   -3.6283 C.ar      1 <0>        -0.1178
      7 C7         -1.2993   -0.7639    0.0098 C.3       1 <0>         0.2441
      8 H1         -2.0544   -0.2931    0.6394 H         1 <0>         0.1168
      9 C8         -0.0164    0.0226    0.0905 C.ar      1 <0>        -0.1234
     10 C9          1.2029   -0.6423   -0.0091 C.ar      1 <0>        -0.1123
     11 C10         2.3798    0.0393    0.0594 C.ar      1 <0>        -0.0818
     12 C11         2.3683    1.4330    0.2331 C.ar      1 <0>        -0.0890
     13 C12         3.5642    2.1718    0.3090 C.ar      1 <0>        -0.0588
     14 C13         3.4765    3.5243    0.4772 C.ar      1 <0>        -0.1584
     15 C14         2.2268    4.1335    0.5704 C.ar      1 <0>         0.1413
     16 N1          1.1156    3.4417    0.5001 N.ar      1 <0>        -0.4604
     17 C15         1.1319    2.1161    0.3353 C.ar      1 <0>         0.1062
     18 C16        -0.0674    1.3768    0.2598 C.ar      1 <0>         0.1691
     19 O1         -1.2663    2.0092    0.3495 O.3       1 <0>        -0.4737
     20 N2         -1.0624   -2.1335    0.4727 N.pl3     1 <0>        -0.6962
     21 C17        -2.1182   -2.8948    0.9604 C.ar      1 <0>         0.4591
     22 C18        -3.3977   -2.3499    1.0061 C.ar      1 <0>        -0.1974
     23 C19        -4.4389   -3.1185    1.4936 C.ar      1 <0>         0.0478
     24 C20        -4.1650   -4.4113    1.9208 C.ar      1 <0>        -0.1692
     25 C21        -2.8718   -4.8879    1.8471 C.ar      1 <0>         0.1533
     26 H2         -3.0141   -0.8657   -5.0587 H         1 <0>         0.1291
     27 H3         -4.0111    0.7126   -3.4531 H         1 <0>         0.1313
     28 H4         -3.2220    0.7597   -1.1211 H         1 <0>         0.1317
     29 H5         -0.4324   -2.3436   -2.0025 H         1 <0>         0.1126
     30 H6         -1.2273   -2.3965   -4.3325 H         1 <0>         0.1266
     31 H7          1.2155   -1.7140   -0.1424 H         1 <0>         0.1211
     32 H8          3.3181   -0.4895   -0.0198 H         1 <0>         0.1403
     33 H9          4.5244    1.6829    0.2348 H         1 <0>         0.1470
     34 H10         4.3746    4.1208    0.5391 H         1 <0>         0.1475
     35 H11         2.1723    5.2039    0.7037 H         1 <0>         0.1688
     36 H12        -1.6055    2.0830    1.2521 H         1 <0>         0.3950
     37 H13        -0.1687   -2.5091    0.4389 H         1 <0>         0.4169
     38 H14        -3.5753   -1.3406    0.6652 H         1 <0>         0.1789
     39 H15        -5.4425   -2.7222    1.5414 H         1 <0>         0.1747
     40 H16        -4.9558   -5.0372    2.3071 H         1 <0>         0.1834
     41 H17        -2.6544   -5.8927    2.1782 H         1 <0>         0.1954
     42 N3         -1.8253   -4.1633    1.3683 N.ar      1 <0>        -0.5375
     43 H18        -0.8743   -4.5469    1.3169 H         1 <0>         0.4671
@<TRIPOS>BOND
     1    1    6 ar
     2    1    2 ar
     3    1   26 1
     4    2    3 ar
     5    2   27 1
     6    3    4 ar
     7    3   28 1
     8    4    5 ar
     9    4    7 1
    10    5    6 ar
    11    5   29 1
    12    6   30 1
    13    7    8 1
    14    7    9 1
    15    7   20 1
    16    9   18 ar
    17    9   10 ar
    18   10   11 ar
    19   10   31 1
    20   11   12 ar
    21   11   32 1
    22   12   17 ar
    23   12   13 ar
    24   13   14 ar
    25   13   33 1
    26   14   15 ar
    27   14   34 1
    28   15   16 ar
    29   15   35 1
    30   16   17 ar
    31   17   18 ar
    32   18   19 1
    33   19   36 1
    34   20   21 1
    35   20   37 1
    36   21   22 ar
    37   21   42 ar
    38   22   23 ar
    39   22   38 1
    40   23   24 ar
    41   23   39 1
    42   24   25 ar
    43   24   40 1
    44   25   41 1
    45   25   42 ar
    46   42   43 1
@<TRIPOS>MOLECULE
ZINC22911740
   42    45     0     0     0
SMALL
USER_CHARGES
7-[(S)-phenyl-(2-pyridylamino)methyl]quinolin-8-ol
@<TRIPOS>ATOM
      1 C1          3.3649   -2.6491   -4.2499 C.ar      1 <0>        -0.1156
      2 C2          2.8082   -3.5493   -3.3607 C.ar      1 <0>        -0.1167
      3 C3          2.9168   -3.3335   -1.9997 C.ar      1 <0>        -0.1137
      4 C4          3.5830   -2.2180   -1.5277 C.ar      1 <0>        -0.1007
      5 C5          4.1355   -1.3153   -2.4169 C.ar      1 <0>        -0.0946
      6 C6          4.0306   -1.5333   -3.7780 C.ar      1 <0>        -0.1185
      7 C7          3.7015   -1.9828   -0.0439 C.3       1 <0>         0.2440
      8 H1          2.9357   -2.5572    0.4773 H         1 <0>         0.1089
      9 C8          5.0647   -2.4199    0.4267 C.ar      1 <0>        -0.1000
     10 C9          6.1013   -1.4919    0.4816 C.ar      1 <0>        -0.0957
     11 C10         7.3443   -1.8548    0.9026 C.ar      1 <0>        -0.0952
     12 C11         7.5890   -3.1831    1.2880 C.ar      1 <0>        -0.0898
     13 C12         8.8606   -3.5956    1.7291 C.ar      1 <0>        -0.0585
     14 C13         9.0252   -4.9029    2.0884 C.ar      1 <0>        -0.1682
     15 C14         7.9496   -5.7854    2.0120 C.ar      1 <0>         0.1305
     16 N1          6.7671   -5.3971    1.6007 N.ar      1 <0>        -0.4601
     17 C15         6.5395   -4.1326    1.2348 C.ar      1 <0>         0.1057
     18 C16         5.2632   -3.7190    0.7982 C.ar      1 <0>         0.1528
     19 O1          4.2387   -4.6093    0.7429 O.3       1 <0>        -0.4763
     20 N2          3.5206   -0.5571    0.2405 N.pl3     1 <0>        -0.7185
     21 C17         2.2408   -0.0333    0.3813 C.ar      1 <0>         0.4058
     22 C18         1.1358   -0.8687    0.2510 C.ar      1 <0>        -0.2339
     23 C19        -0.1318   -0.3343    0.3936 C.ar      1 <0>        -0.0340
     24 C20        -0.2526    1.0228    0.6627 C.ar      1 <0>        -0.2326
     25 C21         0.8869    1.7929    0.7793 C.ar      1 <0>         0.1470
     26 N3          2.0841    1.2559    0.6387 N.ar      1 <0>        -0.5440
     27 H2          3.2800   -2.8177   -5.3133 H         1 <0>         0.1226
     28 H3          2.2880   -4.4211   -3.7295 H         1 <0>         0.1249
     29 H4          2.4816   -4.0367   -1.3050 H         1 <0>         0.1253
     30 H5          4.6521   -0.4415   -2.0483 H         1 <0>         0.1182
     31 H6          4.4658   -0.8302   -4.4726 H         1 <0>         0.1224
     32 H7          5.9168   -0.4697    0.1857 H         1 <0>         0.1303
     33 H8          8.1388   -1.1242    0.9404 H         1 <0>         0.1374
     34 H9          9.6832   -2.8978    1.7817 H         1 <0>         0.1430
     35 H10         9.9879   -5.2524    2.4310 H         1 <0>         0.1414
     36 H11         8.0939   -6.8163    2.2997 H         1 <0>         0.1628
     37 H12         4.1639   -5.0707   -0.1036 H         1 <0>         0.3919
     38 H13         4.2940    0.0214    0.3305 H         1 <0>         0.4034
     39 H14         1.2661   -1.9200    0.0410 H         1 <0>         0.1298
     40 H15        -1.0081   -0.9583    0.2974 H         1 <0>         0.1320
     41 H16        -1.2283    1.4719    0.7753 H         1 <0>         0.1313
     42 H17         0.7975    2.8487    0.9885 H         1 <0>         0.1553
@<TRIPOS>BOND
     1    1    6 ar
     2    1    2 ar
     3    1   27 1
     4    2    3 ar
     5    2   28 1
     6    3    4 ar
     7    3   29 1
     8    4    5 ar
     9    4    7 1
    10    5    6 ar
    11    5   30 1
    12    6   31 1
    13    7    8 1
    14    7    9 1
    15    7   20 1
    16    9   18 ar
    17    9   10 ar
    18   10   11 ar
    19   10   32 1
    20   11   12 ar
    21   11   33 1
    22   12   17 ar
    23   12   13 ar
    24   13   14 ar
    25   13   34 1
    26   14   15 ar
    27   14   35 1
    28   15   16 ar
    29   15   36 1
    30   16   17 ar
    31   17   18 ar
    32   18   19 1
    33   19   37 1
    34   20   21 1
    35   20   38 1
    36   21   26 ar
    37   21   22 ar
    38   22   23 ar
    39   22   39 1
    40   23   24 ar
    41   23   40 1
    42   24   25 ar
    43   24   41 1
    44   25   26 ar
    45   25   42 1
@<TRIPOS>MOLECULE
ZINC01065023
   45    48     0     0     0
SMALL
USER_CHARGES
7-[3-pyridylamino-[4-(trifluoromethyl)phenyl]-methyl]quinolin-8-ol
@<TRIPOS>ATOM
      1 C1          2.0151    6.1532    4.7948 C.ar      1 <0>        -0.1672
      2 C2          2.0753    4.8749    4.3167 C.ar      1 <0>        -0.0606
      3 C3          1.2453    4.5315    3.2332 C.ar      1 <0>        -0.0876
      4 C4          1.2531    3.2371    2.6878 C.ar      1 <0>        -0.1027
      5 C5          0.4365    2.9414    1.6390 C.ar      1 <0>        -0.0828
      6 C6         -0.4095    3.9051    1.0964 C.ar      1 <0>        -0.1176
      7 C7         -0.4411    5.1755    1.5965 C.ar      1 <0>         0.1517
      8 C8          0.3873    5.5171    2.6863 C.ar      1 <0>         0.1036
      9 N1          0.3764    6.7495    3.2012 N.ar      1 <0>        -0.4590
     10 C9          1.1480    7.0734    4.2105 C.ar      1 <0>         0.1290
     11 O1         -1.2690    6.1039    1.0506 O.3       1 <0>        -0.4763
     12 C10        -1.2993    3.5423   -0.0645 C.3       1 <0>         0.2417
     13 H1         -2.2414    4.0846    0.0165 H         1 <0>         0.1045
     14 C11        -0.6162    3.9122   -1.3558 C.ar      1 <0>        -0.0563
     15 C12         0.4373    3.1493   -1.8236 C.ar      1 <0>        -0.1105
     16 C13         1.0608    3.4858   -3.0106 C.ar      1 <0>        -0.0680
     17 C14         0.6373    4.5911   -3.7247 C.ar      1 <0>        -0.1772
     18 C15        -0.4125    5.3574   -3.2539 C.ar      1 <0>        -0.0661
     19 C16        -1.0394    5.0178   -2.0696 C.ar      1 <0>        -0.0914
     20 C17         1.3204    4.9610   -5.0160 C.3       1 <0>         0.5075
     21 F1          2.3826    5.8315   -4.7490 F         1 <0>        -0.1749
     22 F2          1.8092    3.8044   -5.6329 F         1 <0>        -0.1764
     23 F3          0.4037    5.5904   -5.8649 F         1 <0>        -0.1755
     24 N2         -1.5623    2.1012   -0.0465 N.pl3     1 <0>        -0.7330
     25 C18        -2.6149    1.5927    0.7185 C.ar      1 <0>         0.1662
     26 C19        -2.9450    0.2407    0.6566 C.ar      1 <0>        -0.1494
     27 C20        -3.9927   -0.2171    1.4381 C.ar      1 <0>        -0.1216
     28 C21        -4.6715    0.6749    2.2477 C.ar      1 <0>         0.0413
     29 N3         -4.3346    1.9492    2.2835 N.ar      1 <0>        -0.4456
     30 C22        -3.3441    2.4265    1.5565 C.ar      1 <0>         0.0317
     31 H2          2.6386    6.4497    5.6253 H         1 <0>         0.1409
     32 H3          2.7413    4.1481    4.7578 H         1 <0>         0.1419
     33 H4          1.9044    2.4797    3.0983 H         1 <0>         0.1340
     34 H5          0.4449    1.9450    1.2224 H         1 <0>         0.1297
     35 H6          1.1105    8.0805    4.5989 H         1 <0>         0.1624
     36 H7         -2.1465    6.1351    1.4558 H         1 <0>         0.3921
     37 H8          0.7709    2.2881   -1.2637 H         1 <0>         0.1319
     38 H9          1.8813    2.8873   -3.3782 H         1 <0>         0.1386
     39 H10        -0.7431    6.2211   -3.8116 H         1 <0>         0.1403
     40 H11        -1.8596    5.6165   -1.7018 H         1 <0>         0.1415
     41 H12        -1.0056    1.5001   -0.5658 H         1 <0>         0.4031
     42 H13        -2.3972   -0.4338    0.0152 H         1 <0>         0.1328
     43 H14        -4.2761   -1.2590    1.4157 H         1 <0>         0.1355
     44 H15        -5.4892    0.3230    2.8591 H         1 <0>         0.1534
     45 H16        -3.0970    3.4764    1.6130 H         1 <0>         0.1445
@<TRIPOS>BOND
     1    1   10 ar
     2    1    2 ar
     3    1   31 1
     4    2    3 ar
     5    2   32 1
     6    3    8 ar
     7    3    4 ar
     8    4    5 ar
     9    4   33 1
    10    5    6 ar
    11    5   34 1
    12    6    7 ar
    13    6   12 1
    14    7    8 ar
    15    7   11 1
    16    8    9 ar
    17    9   10 ar
    18   10   35 1
    19   11   36 1
    20   12   13 1
    21   12   14 1
    22   12   24 1
    23   14   19 ar
    24   14   15 ar
    25   15   16 ar
    26   15   37 1
    27   16   17 ar
    28   16   38 1
    29   17   18 ar
    30   17   20 1
    31   18   19 ar
    32   18   39 1
    33   19   40 1
    34   20   21 1
    35   20   22 1
    36   20   23 1
    37   24   25 1
    38   24   41 1
    39   25   30 ar
    40   25   26 ar
    41   26   27 ar
    42   26   42 1
    43   27   28 ar
    44   27   43 1
    45   28   29 ar
    46   28   44 1
    47   29   30 ar
    48   30   45 1
@<TRIPOS>MOLECULE
ZINC01065026
   45    48     0     0     0
SMALL
USER_CHARGES
7-[3-pyridylamino-[4-(trifluoromethyl)phenyl]-methyl]quinolin-8-ol
@<TRIPOS>ATOM
      1 C1         -1.4568   -4.7630    0.2593 C.ar      1 <0>        -0.1672
      2 C2         -1.2356   -3.9028    1.2972 C.ar      1 <0>        -0.0606
      3 C3         -0.9343   -2.5616    0.9954 C.ar      1 <0>        -0.0876
      4 C4         -0.6953   -1.6199    2.0097 C.ar      1 <0>        -0.1028
      5 C5         -0.4010   -0.3320    1.6796 C.ar      1 <0>        -0.0827
      6 C6         -0.3442    0.0707    0.3479 C.ar      1 <0>        -0.1159
      7 C7         -0.5709   -0.8161   -0.6656 C.ar      1 <0>         0.1510
      8 C8         -0.8729   -2.1604   -0.3618 C.ar      1 <0>         0.1037
      9 N1         -1.1001   -3.0520   -1.3300 N.ar      1 <0>        -0.4592
     10 C9         -1.3807   -4.3024   -1.0531 C.ar      1 <0>         0.1292
     11 O1         -0.5056   -0.4063   -1.9590 O.3       1 <0>        -0.4765
     12 C10        -0.0214    1.5057    0.0198 C.3       1 <0>         0.2365
     13 H1         -0.5583    1.8020   -0.8814 H         1 <0>         0.1106
     14 C11         1.4613    1.6474   -0.2093 C.ar      1 <0>        -0.0588
     15 C12         2.3327    1.6145    0.8633 C.ar      1 <0>        -0.1090
     16 C13         3.6931    1.7396    0.6526 C.ar      1 <0>        -0.0644
     17 C14         4.1814    1.9081   -0.6296 C.ar      1 <0>        -0.1771
     18 C15         3.3096    1.9462   -1.7017 C.ar      1 <0>        -0.0636
     19 C16         1.9495    1.8158   -1.4916 C.ar      1 <0>        -0.1076
     20 C17         5.6640    2.0507   -0.8586 C.3       1 <0>         0.5073
     21 F1          6.0174    3.4029   -0.7973 F         1 <0>        -0.1746
     22 F2          6.3585    1.3420    0.1276 F         1 <0>        -0.1759
     23 F3          5.9925    1.5395   -2.1188 F         1 <0>        -0.1752
     24 N2         -0.4275    2.3648    1.1348 N.pl3     1 <0>        -0.7332
     25 C18        -1.7626    2.7550    1.2657 C.ar      1 <0>         0.1645
     26 C19        -2.1804    3.4835    2.3772 C.ar      1 <0>        -0.1500
     27 C20        -3.5140    3.8477    2.4618 C.ar      1 <0>        -0.1240
     28 C21        -4.3802    3.4795    1.4488 C.ar      1 <0>         0.0413
     29 N3         -3.9533    2.7896    0.4094 N.ar      1 <0>        -0.4455
     30 C22        -2.6919    2.4273    0.2868 C.ar      1 <0>         0.0353
     31 H2         -1.6901   -5.7990    0.4560 H         1 <0>         0.1410
     32 H3         -1.2901   -4.2426    2.3209 H         1 <0>         0.1419
     33 H4         -0.7397   -1.9172    3.0470 H         1 <0>         0.1340
     34 H5         -0.2132    0.3884    2.4620 H         1 <0>         0.1300
     35 H6         -1.5583   -4.9934   -1.8639 H         1 <0>         0.1625
     36 H7          0.3740   -0.4856   -2.3528 H         1 <0>         0.3911
     37 H8          1.9508    1.4874    1.8655 H         1 <0>         0.1341
     38 H9          4.3742    1.7102    1.4903 H         1 <0>         0.1398
     39 H10         3.6910    2.0781   -2.7034 H         1 <0>         0.1420
     40 H11         1.2684    1.8459   -2.3291 H         1 <0>         0.1431
     41 H12         0.2305    2.6627    1.7822 H         1 <0>         0.4026
     42 H13        -1.4816    3.7579    3.1536 H         1 <0>         0.1319
     43 H14        -3.8731    4.4130    3.3090 H         1 <0>         0.1348
     44 H15        -5.4212    3.7607    1.5101 H         1 <0>         0.1528
     45 H16        -2.3786    1.8667   -0.5814 H         1 <0>         0.1506
@<TRIPOS>BOND
     1    1   10 ar
     2    1    2 ar
     3    1   31 1
     4    2    3 ar
     5    2   32 1
     6    3    8 ar
     7    3    4 ar
     8    4    5 ar
     9    4   33 1
    10    5    6 ar
    11    5   34 1
    12    6    7 ar
    13    6   12 1
    14    7    8 ar
    15    7   11 1
    16    8    9 ar
    17    9   10 ar
    18   10   35 1
    19   11   36 1
    20   12   13 1
    21   12   14 1
    22   12   24 1
    23   14   19 ar
    24   14   15 ar
    25   15   16 ar
    26   15   37 1
    27   16   17 ar
    28   16   38 1
    29   17   18 ar
    30   17   20 1
    31   18   19 ar
    32   18   39 1
    33   19   40 1
    34   20   21 1
    35   20   22 1
    36   20   23 1
    37   24   25 1
    38   24   41 1
    39   25   30 ar
    40   25   26 ar
    41   26   27 ar
    42   26   42 1
    43   27   28 ar
    44   27   43 1
    45   28   29 ar
    46   28   44 1
    47   29   30 ar
    48   30   45 1
@<TRIPOS>MOLECULE
ZINC01065950
   42    45     0     0     0
SMALL
USER_CHARGES
7-[(2-fluorophenyl)-(3-pyridylamino)methyl]quinolin-8-ol
@<TRIPOS>ATOM
      1 C1         -1.2400    1.6045   -0.2461 C.ar      1 <0>        -0.1291
      2 C2         -1.3018    2.9775   -0.3974 C.ar      1 <0>        -0.0859
      3 C3         -0.1385    3.7224   -0.4309 C.ar      1 <0>        -0.1514
      4 C4          1.0893    3.0940   -0.3070 C.ar      1 <0>         0.1092
      5 C5          1.1496    1.7199   -0.1498 C.ar      1 <0>        -0.1403
      6 C6         -0.0154    0.9768   -0.1167 C.ar      1 <0>        -0.0718
      7 C7          2.4849    1.0346   -0.0144 C.3       1 <0>         0.2490
      8 H1          3.2234    1.5537   -0.6253 H         1 <0>         0.0993
      9 C8          2.9189    1.0607    1.4286 C.ar      1 <0>        -0.1200
     10 C9          1.9822    1.3358    2.4213 C.ar      1 <0>        -0.0858
     11 C10         2.3410    1.3615    3.7347 C.ar      1 <0>        -0.1045
     12 C11         3.6762    1.1190    4.0967 C.ar      1 <0>        -0.0833
     13 C12         4.0861    1.1428    5.4433 C.ar      1 <0>        -0.0618
     14 C13         5.4005    0.8974    5.7211 C.ar      1 <0>        -0.1647
     15 C14         6.2926    0.6332    4.6839 C.ar      1 <0>         0.1279
     16 N1          5.9067    0.6117    3.4313 N.ar      1 <0>        -0.4569
     17 C15         4.6356    0.8438    3.0919 C.ar      1 <0>         0.0999
     18 C16         4.2261    0.8196    1.7421 C.ar      1 <0>         0.1672
     19 O1          5.1271    0.5585    0.7596 O.3       1 <0>        -0.4728
     20 N2          2.3687   -0.3548   -0.4643 N.pl3     1 <0>        -0.7224
     21 C17         2.4729   -0.6599   -1.8237 C.ar      1 <0>         0.1727
     22 C18         2.3639   -1.9774   -2.2628 C.ar      1 <0>        -0.1516
     23 C19         2.4737   -2.2296   -3.6202 C.ar      1 <0>        -0.1218
     24 C20         2.6861   -1.1745   -4.4882 C.ar      1 <0>         0.0373
     25 N3          2.7847    0.0619   -4.0408 N.ar      1 <0>        -0.4454
     26 C21         2.6810    0.3466   -2.7579 C.ar      1 <0>         0.0304
     27 F1          2.2273    3.8213   -0.3399 F         1 <0>        -0.1354
     28 H2         -2.1496    1.0225   -0.2246 H         1 <0>         0.1308
     29 H3         -2.2594    3.4673   -0.4940 H         1 <0>         0.1343
     30 H4         -0.1868    4.7943   -0.5539 H         1 <0>         0.1379
     31 H5          0.0315   -0.0952    0.0059 H         1 <0>         0.1317
     32 H6          0.9555    1.5274    2.1462 H         1 <0>         0.1347
     33 H7          1.6029    1.5722    4.4944 H         1 <0>         0.1360
     34 H8          3.3808    1.3497    6.2346 H         1 <0>         0.1430
     35 H9          5.7482    0.9083    6.7436 H         1 <0>         0.1416
     36 H10         7.3292    0.4405    4.9181 H         1 <0>         0.1628
     37 H11         5.5107    1.3498    0.3573 H         1 <0>         0.3934
     38 H12         2.2193   -1.0629    0.1816 H         1 <0>         0.4037
     39 H13         2.1976   -2.7823   -1.5621 H         1 <0>         0.1311
     40 H14         2.3939   -3.2388   -3.9964 H         1 <0>         0.1340
     41 H15         2.7727   -1.3658   -5.5476 H         1 <0>         0.1521
     42 H16         2.7626    1.3723   -2.4296 H         1 <0>         0.1450
@<TRIPOS>BOND
     1    1    6 ar
     2    1    2 ar
     3    1   28 1
     4    2    3 ar
     5    2   29 1
     6    3    4 ar
     7    3   30 1
     8    4    5 ar
     9    4   27 1
    10    5    6 ar
    11    5    7 1
    12    6   31 1
    13    7    8 1
    14    7    9 1
    15    7   20 1
    16    9   18 ar
    17    9   10 ar
    18   10   11 ar
    19   10   32 1
    20   11   12 ar
    21   11   33 1
    22   12   17 ar
    23   12   13 ar
    24   13   14 ar
    25   13   34 1
    26   14   15 ar
    27   14   35 1
    28   15   16 ar
    29   15   36 1
    30   16   17 ar
    31   17   18 ar
    32   18   19 1
    33   19   37 1
    34   20   21 1
    35   20   38 1
    36   21   26 ar
    37   21   22 ar
    38   22   23 ar
    39   22   39 1
    40   23   24 ar
    41   23   40 1
    42   24   25 ar
    43   24   41 1
    44   25   26 ar
    45   26   42 1
@<TRIPOS>MOLECULE
ZINC01065955
   42    45     0     0     0
SMALL
USER_CHARGES
7-[(2-fluorophenyl)-(3-pyridylamino)methyl]quinolin-8-ol
@<TRIPOS>ATOM
      1 C1          0.3092    5.1538   -3.3324 C.ar      1 <0>        -0.1292
      2 C2          1.5313    5.0756   -3.9745 C.ar      1 <0>        -0.0863
      3 C3          2.6177    4.5183   -3.3278 C.ar      1 <0>        -0.1517
      4 C4          2.4823    4.0379   -2.0360 C.ar      1 <0>         0.1091
      5 C5          1.2582    4.1167   -1.3941 C.ar      1 <0>        -0.1405
      6 C6          0.1714    4.6695   -2.0452 C.ar      1 <0>        -0.0719
      7 C7          1.1092    3.5945    0.0116 C.3       1 <0>         0.2494
      8 H1          2.0200    3.8002    0.5741 H         1 <0>         0.1012
      9 C8          0.8682    2.1074   -0.0279 C.ar      1 <0>        -0.1151
     10 C9          0.4955    1.5049   -1.2265 C.ar      1 <0>        -0.0857
     11 C10         0.2704    0.1637   -1.2956 C.ar      1 <0>        -0.1046
     12 C11         0.4149   -0.6270   -0.1438 C.ar      1 <0>        -0.0834
     13 C12         0.1904   -2.0164   -0.1760 C.ar      1 <0>        -0.0612
     14 C13         0.3475   -2.7214    0.9831 C.ar      1 <0>        -0.1652
     15 C14         0.7222   -2.0624    2.1522 C.ar      1 <0>         0.1286
     16 N1          0.9312   -0.7686    2.1776 N.ar      1 <0>        -0.4591
     17 C15         0.7937   -0.0210    1.0789 C.ar      1 <0>         0.0959
     18 C16         1.0190    1.3713    1.1125 C.ar      1 <0>         0.1664
     19 O1          1.3831    1.9764    2.2729 O.3       1 <0>        -0.4730
     20 N2         -0.0254    4.2561    0.6606 N.pl3     1 <0>        -0.7220
     21 C17         0.1523    5.4908    1.2897 C.ar      1 <0>         0.1736
     22 C18        -0.9195    6.1289    1.9100 C.ar      1 <0>        -0.1519
     23 C19        -0.6933    7.3512    2.5206 C.ar      1 <0>        -0.1218
     24 C20         0.5781    7.8941    2.4950 C.ar      1 <0>         0.0369
     25 N3          1.5719    7.2647    1.8993 N.ar      1 <0>        -0.4454
     26 C21         1.4015    6.0975    1.3109 C.ar      1 <0>         0.0304
     27 F1          3.5439    3.4932   -1.4025 F         1 <0>        -0.1352
     28 H2         -0.5395    5.5892   -3.8389 H         1 <0>         0.1306
     29 H3          1.6367    5.4506   -4.9818 H         1 <0>         0.1342
     30 H4          3.5721    4.4570   -3.8296 H         1 <0>         0.1378
     31 H5         -0.7847    4.7270   -1.5462 H         1 <0>         0.1317
     32 H6          0.3878    2.1091   -2.1152 H         1 <0>         0.1346
     33 H7         -0.0178   -0.2903   -2.2322 H         1 <0>         0.1359
     34 H8         -0.0998   -2.5107   -1.0913 H         1 <0>         0.1430
     35 H9          0.1823   -3.7887    0.9933 H         1 <0>         0.1416
     36 H10         0.8439   -2.6326    3.0613 H         1 <0>         0.1628
     37 H11         2.3337    1.9511    2.4483 H         1 <0>         0.3943
     38 H12        -0.9001    3.8368    0.6536 H         1 <0>         0.4033
     39 H13        -1.9023    5.6813    1.9149 H         1 <0>         0.1309
     40 H14        -1.5008    7.8743    3.0114 H         1 <0>         0.1338
     41 H15         0.7597    8.8472    2.9694 H         1 <0>         0.1520
     42 H16         2.2408    5.6100    0.8372 H         1 <0>         0.1453
@<TRIPOS>BOND
     1    1    6 ar
     2    1    2 ar
     3    1   28 1
     4    2    3 ar
     5    2   29 1
     6    3    4 ar
     7    3   30 1
     8    4    5 ar
     9    4   27 1
    10    5    6 ar
    11    5    7 1
    12    6   31 1
    13    7    8 1
    14    7    9 1
    15    7   20 1
    16    9   18 ar
    17    9   10 ar
    18   10   11 ar
    19   10   32 1
    20   11   12 ar
    21   11   33 1
    22   12   17 ar
    23   12   13 ar
    24   13   14 ar
    25   13   34 1
    26   14   15 ar
    27   14   35 1
    28   15   16 ar
    29   15   36 1
    30   16   17 ar
    31   17   18 ar
    32   18   19 1
    33   19   37 1
    34   20   21 1
    35   20   38 1
    36   21   26 ar
    37   21   22 ar
    38   22   23 ar
    39   22   39 1
    40   23   24 ar
    41   23   40 1
    42   24   25 ar
    43   24   41 1
    44   25   26 ar
    45   26   42 1
@<TRIPOS>MOLECULE
ZINC04534051
   49    52     0     0     0
SMALL
USER_CHARGES
2-[4-(4-amidinophenoxy)phenyl]-1H-indole-6-carboxamidine
@<TRIPOS>ATOM
      1 C1          0.9950    3.7009   -1.8208 C.ar      1 <0>        -0.0698
      2 C2          0.0121    4.5638   -1.3859 C.ar      1 <0>        -0.1284
      3 C3          0.3176    5.8940   -1.1279 C.ar      1 <0>         0.0818
      4 C4          1.6139    6.3600   -1.3069 C.ar      1 <0>        -0.1047
      5 C5          2.6022    5.5033   -1.7415 C.ar      1 <0>        -0.0888
      6 C6          2.2990    4.1655   -2.0020 C.ar      1 <0>        -0.0369
      7 C7          3.3562    3.2434   -2.4678 C.2       1 <0>         0.1561
      8 C8          3.1812    1.9281   -2.7516 C.2       1 <0>        -0.1802
      9 C9          4.4310    1.4037   -3.1638 C.ar      1 <0>        -0.0454
     10 C10         4.8505    0.1301   -3.5724 C.ar      1 <0>        -0.0577
     11 C11         6.1507   -0.0801   -3.9187 C.ar      1 <0>        -0.0971
     12 C12         7.0771    0.9700   -3.8698 C.ar      1 <0>        -0.1400
     13 C13         6.6776    2.2410   -3.4672 C.ar      1 <0>        -0.0476
     14 C14         5.3560    2.4656   -3.1121 C.ar      1 <0>         0.0862
     15 N1          4.6705    3.5854   -2.6872 N.pl3     1 <0>        -0.5760
     16 H1          5.0530    4.4678   -2.5615 H         1 <0>         0.4263
     17 C15         8.4856    0.7268   -4.2482 C.cat     1 <0>         0.6016
     18 N2          8.8847   -0.5306   -4.6478 N.pl3     1 <0>        -0.7782
     19 O1         -0.6549    6.7427   -0.7048 O.3       1 <0>        -0.2362
     20 C16        -1.1849    6.5406    0.5286 C.ar      1 <0>         0.1922
     21 C17        -0.6472    5.5685    1.3633 C.ar      1 <0>        -0.1978
     22 C18        -1.1795    5.3641    2.6175 C.ar      1 <0>        -0.0134
     23 C19        -2.2667    6.1280    3.0455 C.ar      1 <0>        -0.1938
     24 C20        -2.8076    7.1000    2.2025 C.ar      1 <0>        -0.0192
     25 C21        -2.2673    7.3025    0.9513 C.ar      1 <0>        -0.1385
     26 C22        -2.8438    5.9080    4.3896 C.cat     1 <0>         0.6022
     27 N3         -2.3084    4.9478    5.2208 N.pl3     1 <0>        -0.7833
     28 H2          0.7566    2.6669   -2.0215 H         1 <0>         0.1465
     29 H3         -0.9967    4.2050   -1.2451 H         1 <0>         0.1437
     30 H4          1.8475    7.3950   -1.1056 H         1 <0>         0.1460
     31 H5          3.6097    5.8664   -1.8810 H         1 <0>         0.1335
     32 H6          2.2543    1.3789   -2.6768 H         1 <0>         0.1630
     33 H7          4.1426   -0.6845   -3.6124 H         1 <0>         0.1487
     34 H8          6.4699   -1.0628   -4.2327 H         1 <0>         0.1382
     35 H9          7.3936    3.0487   -3.4311 H         1 <0>         0.1346
     36 H10        10.2964    1.6413   -4.4327 H         1 <0>         0.4447
     37 H11         8.2415   -1.2559   -4.6809 H         1 <0>         0.4438
     38 H12         9.8087   -0.6902   -4.8961 H         1 <0>         0.4319
     39 H13         0.1915    4.9753    1.0301 H         1 <0>         0.1514
     40 H14        -0.7583    4.6114    3.2675 H         1 <0>         0.1422
     41 H15        -3.6485    7.6929    2.5307 H         1 <0>         0.1470
     42 H16        -2.6854    8.0544    0.2985 H         1 <0>         0.1608
     43 H17        -4.3066    6.5526    5.6515 H         1 <0>         0.4456
     44 H18        -1.5531    4.4162    4.9243 H         1 <0>         0.4411
     45 H19        -2.6868    4.8037    6.1022 H         1 <0>         0.4322
     46 N4          9.3146    1.7587   -4.1817 N.pl3     1 <0>        -0.7646
     47 H20         8.9688    2.6764   -3.8776 H         1 <0>         0.4570
     48 N5         -3.8739    6.6664    4.7347 N.pl3     1 <0>        -0.7604
     49 H21        -4.2367    7.3687    4.0795 H         1 <0>         0.4598
@<TRIPOS>BOND
     1    1    6 ar
     2    1    2 ar
     3    1   28 1
     4    2    3 ar
     5    2   29 1
     6    3    4 ar
     7    3   19 1
     8    4    5 ar
     9    4   30 1
    10    5    6 ar
    11    5   31 1
    12    6    7 1
    13    7   15 1
    14    7    8 2
    15    8    9 1
    16    8   32 1
    17    9   14 ar
    18    9   10 ar
    19   10   11 ar
    20   10   33 1
    21   11   12 ar
    22   11   34 1
    23   12   13 ar
    24   12   17 1
    25   13   14 ar
    26   13   35 1
    27   14   15 1
    28   15   16 1
    29   17   18 1
    30   17   46 2
    31   18   37 1
    32   18   38 1
    33   19   20 1
    34   20   25 ar
    35   20   21 ar
    36   21   22 ar
    37   21   39 1
    38   22   23 ar
    39   22   40 1
    40   23   24 ar
    41   23   26 1
    42   24   25 ar
    43   24   41 1
    44   25   42 1
    45   26   27 1
    46   26   48 2
    47   27   44 1
    48   27   45 1
    49   36   46 1
    50   43   48 1
    51   46   47 1
    52   48   49 1
@<TRIPOS>MOLECULE
ZINC01066512
   49    52     0     0     0
SMALL
USER_CHARGES

@<TRIPOS>ATOM
      1 C1         -1.2249    1.7290   -0.5529 C.3       1 <0>        -0.1539
      2 C2         -0.9697    0.2210   -0.5089 C.3       1 <0>         0.0534
      3 O1         -2.2048   -0.4650   -0.2945 O.3       1 <0>        -0.3147
      4 C3         -2.1538   -1.8215   -0.2292 C.ar      1 <0>         0.1400
      5 C4         -0.9393   -2.4784   -0.3630 C.ar      1 <0>        -0.2048
      6 C5         -0.8900   -3.8573   -0.2958 C.ar      1 <0>        -0.0632
      7 C6         -2.0500   -4.5827   -0.0959 C.ar      1 <0>        -0.1337
      8 C7         -3.2618   -3.9304    0.0372 C.ar      1 <0>        -0.0659
      9 C8         -3.3155   -2.5513   -0.0230 C.ar      1 <0>        -0.1479
     10 C9         -1.9935   -6.0869   -0.0235 C.3       1 <0>         0.2465
     11 H1         -1.0235   -6.4317   -0.3817 H         1 <0>         0.1089
     12 C10        -2.1879   -6.5288    1.4041 C.ar      1 <0>        -0.1047
     13 C11        -3.4621   -6.8726    1.8477 C.ar      1 <0>        -0.0695
     14 C12        -3.6711   -7.2765    3.1323 C.ar      1 <0>        -0.0250
     15 C13        -2.5877   -7.3483    4.0247 C.ar      1 <0>        -0.0844
     16 C14        -2.7635   -7.7614    5.3586 C.ar      1 <0>        -0.0578
     17 C15        -1.6650   -7.8075    6.1690 C.ar      1 <0>        -0.1627
     18 C16        -0.4153   -7.4509    5.6668 C.ar      1 <0>         0.1344
     19 N1         -0.2558   -7.0667    4.4236 N.ar      1 <0>        -0.4555
     20 C17        -1.2891   -6.9999    3.5793 C.ar      1 <0>         0.1152
     21 C18        -1.1107   -6.5913    2.2410 C.ar      1 <0>         0.1563
     22 O2          0.1260   -6.2567    1.7884 O.3       1 <0>        -0.4730
     23 Cl1        -5.2684   -7.6999    3.6643 Cl        1 <0>        -0.0527
     24 N2         -3.0533   -6.6562   -0.8595 N.pl3     1 <0>        -0.7329
     25 C19        -2.9388   -7.9636   -1.3385 C.ar      1 <0>         0.1649
     26 C20        -3.9769   -8.5442   -2.0637 C.ar      1 <0>        -0.1507
     27 C21        -3.8164   -9.8429   -2.5174 C.ar      1 <0>        -0.1234
     28 C22        -2.6410  -10.5155   -2.2382 C.ar      1 <0>         0.0397
     29 N3         -1.6769   -9.9377   -1.5489 N.ar      1 <0>        -0.4454
     30 C23        -1.7860   -8.7019   -1.1035 C.ar      1 <0>         0.0331
     31 H2         -0.2828    2.2523   -0.7164 H         1 <0>         0.0805
     32 H3         -1.9134    1.9574   -1.3664 H         1 <0>         0.0673
     33 H4         -1.6603    2.0515    0.3929 H         1 <0>         0.0671
     34 H5         -0.5344   -0.1015   -1.4547 H         1 <0>         0.0639
     35 H6         -0.2812   -0.0074    0.3047 H         1 <0>         0.0637
     36 H7         -0.0330   -1.9123   -0.5198 H         1 <0>         0.1324
     37 H8          0.0552   -4.3692   -0.3998 H         1 <0>         0.1325
     38 H9         -4.1666   -4.4993    0.1929 H         1 <0>         0.1272
     39 H10        -4.2617   -2.0420    0.0854 H         1 <0>         0.1338
     40 H11        -4.2966   -6.8180    1.1642 H         1 <0>         0.1407
     41 H12        -3.7399   -8.0339    5.7311 H         1 <0>         0.1456
     42 H13        -1.7651   -8.1197    7.1980 H         1 <0>         0.1445
     43 H14         0.4446   -7.4917    6.3189 H         1 <0>         0.1660
     44 H15         0.3453   -5.3213    1.8984 H         1 <0>         0.3932
     45 H16        -3.8345   -6.1254   -1.0805 H         1 <0>         0.4026
     46 H17        -4.8846   -7.9953   -2.2669 H         1 <0>         0.1319
     47 H18        -4.6005  -10.3249   -3.0825 H         1 <0>         0.1343
     48 H19        -2.5110  -11.5285   -2.5894 H         1 <0>         0.1523
     49 H20        -0.9729   -8.2606   -0.5463 H         1 <0>         0.1504
@<TRIPOS>BOND
     1    1    2 1
     2    1   31 1
     3    1   32 1
     4    1   33 1
     5    2    3 1
     6    2   34 1
     7    2   35 1
     8    3    4 1
     9    4    9 ar
    10    4    5 ar
    11    5    6 ar
    12    5   36 1
    13    6    7 ar
    14    6   37 1
    15    7    8 ar
    16    7   10 1
    17    8    9 ar
    18    8   38 1
    19    9   39 1
    20   10   11 1
    21   10   12 1
    22   10   24 1
    23   12   21 ar
    24   12   13 ar
    25   13   14 ar
    26   13   40 1
    27   14   15 ar
    28   14   23 1
    29   15   20 ar
    30   15   16 ar
    31   16   17 ar
    32   16   41 1
    33   17   18 ar
    34   17   42 1
    35   18   19 ar
    36   18   43 1
    37   19   20 ar
    38   20   21 ar
    39   21   22 1
    40   22   44 1
    41   24   25 1
    42   24   45 1
    43   25   30 ar
    44   25   26 ar
    45   26   27 ar
    46   26   46 1
    47   27   28 ar
    48   27   47 1
    49   28   29 ar
    50   28   48 1
    51   29   30 ar
    52   30   49 1
@<TRIPOS>MOLECULE
ZINC01066512
   50    53     0     0     0
SMALL
USER_CHARGES

@<TRIPOS>ATOM
      1 C1          1.0764    1.7526   -0.6983 C.3       1 <0>        -0.1558
      2 C2          0.9307    0.2378   -0.5405 C.3       1 <0>         0.0529
      3 O1          1.3775   -0.4105   -1.7330 O.3       1 <0>        -0.3111
      4 C3          1.3142   -1.7678   -1.7581 C.ar      1 <0>         0.1526
      5 C4          0.8266   -2.4611   -0.6599 C.ar      1 <0>        -0.2039
      6 C5          0.7628   -3.8408   -0.6881 C.ar      1 <0>        -0.0582
      7 C6          1.1849   -4.5308   -1.8095 C.ar      1 <0>        -0.1529
      8 C7          1.6717   -3.8421   -2.9052 C.ar      1 <0>        -0.0658
      9 C8          1.7317   -2.4621   -2.8843 C.ar      1 <0>        -0.1469
     10 C9          1.1147   -6.0359   -1.8374 C.3       1 <0>         0.2458
     11 H1          0.9400   -6.4102   -0.8287 H         1 <0>         0.1163
     12 C10        -0.0143   -6.4695   -2.7366 C.ar      1 <0>        -0.1235
     13 C11         0.2494   -6.7742   -4.0693 C.ar      1 <0>        -0.0866
     14 C12        -0.7492   -7.1697   -4.9080 C.ar      1 <0>        -0.0169
     15 C13        -2.0649   -7.2726   -4.4245 C.ar      1 <0>        -0.0848
     16 C14        -3.1226   -7.6782   -5.2596 C.ar      1 <0>        -0.0584
     17 C15        -4.3754   -7.7560   -4.7211 C.ar      1 <0>        -0.1540
     18 C16        -4.5763   -7.4377   -3.3796 C.ar      1 <0>         0.1441
     19 N1         -3.5883   -7.0605   -2.6051 N.ar      1 <0>        -0.4568
     20 C17        -2.3393   -6.9639   -3.0697 C.ar      1 <0>         0.1151
     21 C18        -1.2790   -6.5629   -2.2302 C.ar      1 <0>         0.1661
     22 O2         -1.5158   -6.2663   -0.9256 O.3       1 <0>        -0.4768
     23 Cl1        -0.3980   -7.5442   -6.5664 Cl        1 <0>        -0.0444
     24 N2          2.3786   -6.5744   -2.3461 N.pl3     1 <0>        -0.7020
     25 C19         2.7565   -7.8826   -2.0339 C.ar      1 <0>         0.2196
     26 C20         1.9832   -8.6547   -1.1698 C.ar      1 <0>        -0.0779
     27 C21         2.3991   -9.9460   -0.8909 C.ar      1 <0>        -0.0754
     28 C22         3.5585  -10.4230   -1.4741 C.ar      1 <0>         0.0763
     29 N3          4.2684   -9.6668   -2.2881 N.ar      1 <0>        -0.3979
     30 C23         3.9057   -8.4347   -2.5849 C.ar      1 <0>         0.0303
     31 H2          2.1229    2.0004   -0.8763 H         1 <0>         0.0687
     32 H3          0.4746    2.0896   -1.5423 H         1 <0>         0.0690
     33 H4          0.7356    2.2471    0.2113 H         1 <0>         0.0836
     34 H5          1.5324   -0.0992    0.3036 H         1 <0>         0.0657
     35 H6         -0.1158   -0.0100   -0.3625 H         1 <0>         0.0660
     36 H7          0.4974   -1.9227    0.2166 H         1 <0>         0.1367
     37 H8          0.3833   -4.3810    0.1667 H         1 <0>         0.1334
     38 H9          2.0011   -4.3834   -3.7798 H         1 <0>         0.1259
     39 H10         2.1079   -1.9245   -3.7421 H         1 <0>         0.1377
     40 H11         1.2594   -6.6957   -4.4437 H         1 <0>         0.1369
     41 H12        -2.9486   -7.9207   -6.2976 H         1 <0>         0.1488
     42 H13        -5.2094   -8.0634   -5.3345 H         1 <0>         0.1500
     43 H14        -5.5723   -7.5033   -2.9671 H         1 <0>         0.1712
     44 H15        -1.7342   -5.3378   -0.7667 H         1 <0>         0.4001
     45 H16         2.9530   -6.0226   -2.8996 H         1 <0>         0.4184
     46 H17         1.0819   -8.2561   -0.7281 H         1 <0>         0.1720
     47 H18         1.8245  -10.5730   -0.2252 H         1 <0>         0.1851
     48 H19         3.8874  -11.4291   -1.2596 H         1 <0>         0.2072
     49 H20         4.5107   -7.8471   -3.2596 H         1 <0>         0.2024
     50 H21         5.0777  -10.0282   -2.6823 H         1 <0>         0.4525
@<TRIPOS>BOND
     1    1    2 1
     2    1   31 1
     3    1   32 1
     4    1   33 1
     5    2    3 1
     6    2   34 1
     7    2   35 1
     8    3    4 1
     9    4    9 ar
    10    4    5 ar
    11    5    6 ar
    12    5   36 1
    13    6    7 ar
    14    6   37 1
    15    7    8 ar
    16    7   10 1
    17    8    9 ar
    18    8   38 1
    19    9   39 1
    20   10   11 1
    21   10   12 1
    22   10   24 1
    23   12   21 ar
    24   12   13 ar
    25   13   14 ar
    26   13   40 1
    27   14   15 ar
    28   14   23 1
    29   15   20 ar
    30   15   16 ar
    31   16   17 ar
    32   16   41 1
    33   17   18 ar
    34   17   42 1
    35   18   19 ar
    36   18   43 1
    37   19   20 ar
    38   20   21 ar
    39   21   22 1
    40   22   44 1
    41   24   25 1
    42   24   45 1
    43   25   30 ar
    44   25   26 ar
    45   26   27 ar
    46   26   46 1
    47   27   28 ar
    48   27   47 1
    49   28   29 ar
    50   28   48 1
    51   29   30 ar
    52   29   50 1
    53   30   49 1
@<TRIPOS>MOLECULE
ZINC01066515
   49    52     0     0     0
SMALL
USER_CHARGES

@<TRIPOS>ATOM
      1 C1          0.2118    1.4635   -0.4020 C.3       1 <0>        -0.1534
      2 C2          0.1886   -0.0626   -0.2953 C.3       1 <0>         0.0534
      3 O1         -1.1638   -0.5224   -0.3358 O.3       1 <0>        -0.3153
      4 C3         -1.3620   -1.8643   -0.2515 C.ar      1 <0>         0.1395
      5 C4         -0.2775   -2.7204   -0.1266 C.ar      1 <0>        -0.2066
      6 C5         -0.4817   -4.0839   -0.0407 C.ar      1 <0>        -0.0474
      7 C6         -1.7655   -4.5957   -0.0796 C.ar      1 <0>        -0.1309
      8 C7         -2.8481   -3.7446   -0.2045 C.ar      1 <0>        -0.0675
      9 C8         -2.6496   -2.3799   -0.2846 C.ar      1 <0>        -0.1511
     10 C9         -1.9853   -6.0837    0.0139 C.3       1 <0>         0.2518
     11 H1         -1.0660   -6.5667    0.3450 H         1 <0>         0.1026
     12 C10        -2.3752   -6.6198   -1.3395 C.ar      1 <0>        -0.1065
     13 C11        -3.7232   -6.7556   -1.6606 C.ar      1 <0>        -0.0695
     14 C12        -4.1085   -7.2368   -2.8760 C.ar      1 <0>        -0.0250
     15 C13        -3.1344   -7.6021   -3.8210 C.ar      1 <0>        -0.0843
     16 C14        -3.4930   -8.1023   -5.0867 C.ar      1 <0>        -0.0579
     17 C15        -2.4927   -8.4367   -5.9545 C.ar      1 <0>        -0.1626
     18 C16        -1.1615   -8.2783   -5.5750 C.ar      1 <0>         0.1343
     19 N1         -0.8318   -7.8119   -4.3951 N.ar      1 <0>        -0.4554
     20 C17        -1.7616   -7.4663   -3.5001 C.ar      1 <0>         0.1152
     21 C18        -1.4010   -6.9597   -2.2340 C.ar      1 <0>         0.1569
     22 O2         -0.0908   -6.8153   -1.9043 O.3       1 <0>        -0.4721
     23 Cl1        -5.7949   -7.3983   -3.2550 Cl        1 <0>        -0.0526
     24 N2         -3.0557   -6.3598    0.9753 N.pl3     1 <0>        -0.7330
     25 C19        -3.0864   -7.5799    1.6551 C.ar      1 <0>         0.1668
     26 C20        -4.0229   -7.8050    2.6616 C.ar      1 <0>        -0.1499
     27 C21        -4.0137   -9.0305    3.3066 C.ar      1 <0>        -0.1213
     28 C22        -3.0832   -9.9830    2.9340 C.ar      1 <0>         0.0399
     29 N3         -2.2096   -9.7389    1.9770 N.ar      1 <0>        -0.4456
     30 C23        -2.1873   -8.5886    1.3337 C.ar      1 <0>         0.0297
     31 H2          1.2434    1.8142   -0.3712 H         1 <0>         0.0800
     32 H3         -0.2479    1.7690   -1.3420 H         1 <0>         0.0669
     33 H4         -0.3436    1.8944    0.4310 H         1 <0>         0.0669
     34 H5          0.7440   -0.4936   -1.1283 H         1 <0>         0.0635
     35 H6          0.6483   -0.3681    0.6446 H         1 <0>         0.0633
     36 H7          0.7256   -2.3211   -0.0969 H         1 <0>         0.1309
     37 H8          0.3623   -4.7508    0.0566 H         1 <0>         0.1308
     38 H9         -3.8499   -4.1469   -0.2350 H         1 <0>         0.1251
     39 H10        -3.4957   -1.7152   -0.3777 H         1 <0>         0.1327
     40 H11        -4.4739   -6.4760   -0.9363 H         1 <0>         0.1402
     41 H12        -4.5303   -8.2188   -5.3639 H         1 <0>         0.1456
     42 H13        -2.7334   -8.8237   -6.9336 H         1 <0>         0.1445
     43 H14        -0.3808   -8.5471   -6.2712 H         1 <0>         0.1659
     44 H15         0.2979   -7.5958   -1.4862 H         1 <0>         0.3936
     45 H16        -3.7430   -5.6954    1.1399 H         1 <0>         0.4031
     46 H17        -4.7382   -7.0425    2.9325 H         1 <0>         0.1327
     47 H18        -4.7250   -9.2397    4.0920 H         1 <0>         0.1350
     48 H19        -3.0715  -10.9402    3.4340 H         1 <0>         0.1529
     49 H20        -1.4597   -8.4271    0.5521 H         1 <0>         0.1440
@<TRIPOS>BOND
     1    1    2 1
     2    1   31 1
     3    1   32 1
     4    1   33 1
     5    2    3 1
     6    2   34 1
     7    2   35 1
     8    3    4 1
     9    4    9 ar
    10    4    5 ar
    11    5    6 ar
    12    5   36 1
    13    6    7 ar
    14    6   37 1
    15    7    8 ar
    16    7   10 1
    17    8    9 ar
    18    8   38 1
    19    9   39 1
    20   10   11 1
    21   10   12 1
    22   10   24 1
    23   12   21 ar
    24   12   13 ar
    25   13   14 ar
    26   13   40 1
    27   14   15 ar
    28   14   23 1
    29   15   20 ar
    30   15   16 ar
    31   16   17 ar
    32   16   41 1
    33   17   18 ar
    34   17   42 1
    35   18   19 ar
    36   18   43 1
    37   19   20 ar
    38   20   21 ar
    39   21   22 1
    40   22   44 1
    41   24   25 1
    42   24   45 1
    43   25   30 ar
    44   25   26 ar
    45   26   27 ar
    46   26   46 1
    47   27   28 ar
    48   27   47 1
    49   28   29 ar
    50   28   48 1
    51   29   30 ar
    52   30   49 1
@<TRIPOS>MOLECULE
ZINC01066515
   50    53     0     0     0
SMALL
USER_CHARGES

@<TRIPOS>ATOM
      1 C1          0.2387    1.4616    0.4114 C.3       1 <0>        -0.1553
      2 C2          0.1789   -0.0638    0.3081 C.3       1 <0>         0.0528
      3 O1          0.8965   -0.4912   -0.8513 O.3       1 <0>        -0.3117
      4 C3          0.9411   -1.8281   -1.0912 C.ar      1 <0>         0.1524
      5 C4          0.3024   -2.7100   -0.2316 C.ar      1 <0>        -0.2058
      6 C5          0.3488   -4.0685   -0.4779 C.ar      1 <0>        -0.0422
      7 C6          1.0315   -4.5496   -1.5799 C.ar      1 <0>        -0.1503
      8 C7          1.6693   -3.6728   -2.4379 C.ar      1 <0>        -0.0673
      9 C8          1.6207   -2.3129   -2.1993 C.ar      1 <0>        -0.1502
     10 C9          1.0810   -6.0321   -1.8459 C.3       1 <0>         0.2510
     11 H1          0.3423   -6.5377   -1.2240 H         1 <0>         0.1098
     12 C10         2.4558   -6.5555   -1.5188 C.ar      1 <0>        -0.1251
     13 C11         3.4084   -6.6579   -2.5291 C.ar      1 <0>        -0.0864
     14 C12         4.6606   -7.1269   -2.2659 C.ar      1 <0>        -0.0163
     15 C13         4.9987   -7.5135   -0.9576 C.ar      1 <0>        -0.0847
     16 C14         6.2814   -8.0020   -0.6466 C.ar      1 <0>        -0.0582
     17 C15         6.5391   -8.3585    0.6465 C.ar      1 <0>        -0.1539
     18 C16         5.5440   -8.2332    1.6135 C.ar      1 <0>         0.1439
     19 N1          4.3504   -7.7777    1.3196 N.ar      1 <0>        -0.4567
     20 C17         4.0338   -7.4117    0.0742 C.ar      1 <0>         0.1147
     21 C18         2.7497   -6.9168   -0.2351 C.ar      1 <0>         0.1658
     22 O2          1.8083   -6.8049    0.7382 O.3       1 <0>        -0.4687
     23 Cl1         5.8326   -7.2467   -3.5409 Cl        1 <0>        -0.0438
     24 N2          0.7854   -6.2849   -3.2583 N.pl3     1 <0>        -0.7014
     25 C19         0.2307   -7.5064   -3.6482 C.ar      1 <0>         0.2206
     26 C20         0.0703   -8.5368   -2.7245 C.ar      1 <0>        -0.0814
     27 C21        -0.4843   -9.7292   -3.1588 C.ar      1 <0>        -0.0741
     28 C22        -0.8578   -9.8573   -4.4840 C.ar      1 <0>         0.0747
     29 N3         -0.6927   -8.8628   -5.3338 N.ar      1 <0>        -0.3966
     30 C23        -0.1743   -7.7095   -4.9611 C.ar      1 <0>         0.0330
     31 H2          1.2783    1.7799    0.4896 H         1 <0>         0.0688
     32 H3         -0.2108    1.9038   -0.4777 H         1 <0>         0.0683
     33 H4         -0.3087    1.7876    1.2958 H         1 <0>         0.0832
     34 H5          0.6284   -0.5060    1.1972 H         1 <0>         0.0658
     35 H6         -0.8606   -0.3821    0.2299 H         1 <0>         0.0652
     36 H7         -0.2304   -2.3348    0.6296 H         1 <0>         0.1352
     37 H8         -0.1483   -4.7554    0.1910 H         1 <0>         0.1317
     38 H9          2.2023   -4.0510   -3.2977 H         1 <0>         0.1241
     39 H10         2.1153   -1.6281   -2.8722 H         1 <0>         0.1367
     40 H11         3.1513   -6.3619   -3.5354 H         1 <0>         0.1367
     41 H12         7.0408   -8.0928   -1.4092 H         1 <0>         0.1489
     42 H13         7.5131   -8.7374    0.9190 H         1 <0>         0.1500
     43 H14         5.7615   -8.5192    2.6320 H         1 <0>         0.1711
     44 H15         1.2630   -7.5956    0.8508 H         1 <0>         0.3927
     45 H16         0.9749   -5.6041   -3.9229 H         1 <0>         0.4190
     46 H17         0.3714   -8.4091   -1.6952 H         1 <0>         0.1657
     47 H18        -0.6232  -10.5497   -2.4705 H         1 <0>         0.1850
     48 H19        -1.2904  -10.7852   -4.8279 H         1 <0>         0.2073
     49 H20        -0.0589   -6.9163   -5.6850 H         1 <0>         0.2032
     50 H21        -0.9638   -8.9816   -6.2575 H         1 <0>         0.4530
@<TRIPOS>BOND
     1    1    2 1
     2    1   31 1
     3    1   32 1
     4    1   33 1
     5    2    3 1
     6    2   34 1
     7    2   35 1
     8    3    4 1
     9    4    9 ar
    10    4    5 ar
    11    5    6 ar
    12    5   36 1
    13    6    7 ar
    14    6   37 1
    15    7    8 ar
    16    7   10 1
    17    8    9 ar
    18    8   38 1
    19    9   39 1
    20   10   11 1
    21   10   12 1
    22   10   24 1
    23   12   21 ar
    24   12   13 ar
    25   13   14 ar
    26   13   40 1
    27   14   15 ar
    28   14   23 1
    29   15   20 ar
    30   15   16 ar
    31   16   17 ar
    32   16   41 1
    33   17   18 ar
    34   17   42 1
    35   18   19 ar
    36   18   43 1
    37   19   20 ar
    38   20   21 ar
    39   21   22 1
    40   22   44 1
    41   24   25 1
    42   24   45 1
    43   25   30 ar
    44   25   26 ar
    45   26   27 ar
    46   26   46 1
    47   27   28 ar
    48   27   47 1
    49   28   29 ar
    50   28   48 1
    51   29   30 ar
    52   29   50 1
    53   30   49 1
