@<TRIPOS>MOLECULE
ZINC13025776
   61    64     0     0     0
SMALL
USER_CHARGES
N-[(1R)-2-(cyclopentylamino)-1-(2-fluorophenyl)-2-oxo-ethyl]-N-(2,4-dimethoxyphenyl)furan-2-carboxamide
@<TRIPOS>ATOM
      1 C1          0.5716   -5.0094   -1.2415 C.3       1 <0>         0.0278
      2 O1          0.8507   -4.3855    0.0134 O.3       1 <0>        -0.3177
      3 C2          1.2436   -3.0842   -0.0180 C.ar      1 <0>         0.1655
      4 C3          1.3567   -2.4238   -1.2328 C.ar      1 <0>        -0.2248
      5 C4          1.7498   -1.0996   -1.2679 C.ar      1 <0>        -0.0263
      6 C5          2.0431   -0.4310   -0.0884 C.ar      1 <0>         0.1230
      7 C6          1.9300   -1.0927    1.1322 C.ar      1 <0>         0.1740
      8 C7          1.5303   -2.4185    1.1642 C.ar      1 <0>        -0.2271
      9 O2          2.2120   -0.4383    2.2903 O.3       1 <0>        -0.3081
     10 C8          2.0743   -1.1794    3.5043 C.3       1 <0>         0.0231
     11 N1          2.4476    0.9112   -0.1243 N.am      1 <0>        -0.5439
     12 C9          1.4604    1.9788    0.0543 C.3       1 <0>         0.1715
     13 H1          1.4836    2.6433   -0.8095 H         1 <0>         0.1209
     14 C10         1.7873    2.7621    1.2995 C.ar      1 <0>        -0.1227
     15 C11         2.6270    2.2221    2.2554 C.ar      1 <0>        -0.0700
     16 C12         2.9274    2.9404    3.3975 C.ar      1 <0>        -0.1237
     17 C13         2.3887    4.2000    3.5849 C.ar      1 <0>        -0.0850
     18 C14         1.5487    4.7417    2.6309 C.ar      1 <0>        -0.1510
     19 C15         1.2512    4.0251    1.4838 C.ar      1 <0>         0.1052
     20 F1          0.4348    4.5561    0.5476 F         1 <0>        -0.1357
     21 C16         0.0861    1.3750    0.1869 C.2       1 <0>         0.5158
     22 O3         -0.0663    0.1792    0.0541 O.2       1 <0>        -0.4965
     23 N2         -0.9746    2.1647    0.4475 N.am      1 <0>        -0.7196
     24 C17        -2.3116    1.5786    0.5704 C.3       1 <0>         0.1422
     25 C18        -2.9845    1.5021   -0.8156 C.3       1 <0>        -0.1340
     26 C19        -4.4737    1.8208   -0.5330 C.3       1 <0>        -0.1245
     27 C20        -4.3875    2.9180    0.5569 C.3       1 <0>        -0.1242
     28 C21        -3.2036    2.4788    1.4431 C.3       1 <0>        -0.1317
     29 C22         3.7446    1.2191   -0.3232 C.2       1 <0>         0.6131
     30 O4          4.5805    0.3353   -0.3642 O.2       1 <0>        -0.4932
     31 C23         4.1487    2.6187   -0.4901 C.2       1 <0>        -0.0842
     32 C24         5.4084    3.0616   -0.7762 C.2       1 <0>        -0.1099
     33 C25         5.3377    4.4618   -0.8458 C.2       1 <0>        -0.2215
     34 C26         4.0544    4.8078   -0.6024 C.2       1 <0>        -0.0052
     35 O5          3.3399    3.6942   -0.3938 O.3       1 <0>        -0.1559
     36 H2          0.2696   -6.0433   -1.0740 H         1 <0>         0.0997
     37 H3         -0.2336   -4.4725   -1.7431 H         1 <0>         0.0563
     38 H4          1.4657   -4.9884   -1.8646 H         1 <0>         0.0567
     39 H5          1.1326   -2.9441   -2.1523 H         1 <0>         0.1293
     40 H6          1.8329   -0.5861   -2.2143 H         1 <0>         0.1247
     41 H7          1.4415   -2.9333    2.1095 H         1 <0>         0.1352
     42 H8          1.0449   -1.5232    3.6054 H         1 <0>         0.0569
     43 H9          2.7440   -2.0391    3.4832 H         1 <0>         0.0586
     44 H10         2.3289   -0.5412    4.3505 H         1 <0>         0.0984
     45 H11         3.0483    1.2383    2.1101 H         1 <0>         0.1541
     46 H12         3.5836    2.5177    4.1439 H         1 <0>         0.1301
     47 H13         2.6244    4.7605    4.4775 H         1 <0>         0.1341
     48 H14         1.1278    5.7254    2.7776 H         1 <0>         0.1384
     49 H15        -0.8527    3.1212    0.5537 H         1 <0>         0.3997
     50 H16        -2.2436    0.5829    1.0087 H         1 <0>         0.0925
     51 H17        -2.5566    2.2448   -1.4890 H         1 <0>         0.0697
     52 H18        -2.8815    0.5013   -1.2350 H         1 <0>         0.0717
     53 H19        -4.9921    0.9400   -0.1542 H         1 <0>         0.0699
     54 H20        -4.9635    2.2034   -1.4284 H         1 <0>         0.0698
     55 H21        -5.3084    2.9505    1.1391 H         1 <0>         0.0696
     56 H22        -4.1861    3.8894    0.1052 H         1 <0>         0.0675
     57 H23        -3.5692    1.9198    2.3044 H         1 <0>         0.0757
     58 H24        -2.6415    3.3514    1.7758 H         1 <0>         0.0696
     59 H25         6.2885    2.4526   -0.9205 H         1 <0>         0.1607
     60 H26         6.1554    5.1358   -1.0545 H         1 <0>         0.1574
     61 H27         3.6676    5.8160   -0.5833 H         1 <0>         0.2077
@<TRIPOS>BOND
     1    1    2 1
     2    1   36 1
     3    1   37 1
     4    1   38 1
     5    2    3 1
     6    3    8 ar
     7    3    4 ar
     8    4    5 ar
     9    4   39 1
    10    5    6 ar
    11    5   40 1
    12    6    7 ar
    13    6   11 1
    14    7    8 ar
    15    7    9 1
    16    8   41 1
    17    9   10 1
    18   10   42 1
    19   10   43 1
    20   10   44 1
    21   11   12 1
    22   11   29 am
    23   12   13 1
    24   12   14 1
    25   12   21 1
    26   14   19 ar
    27   14   15 ar
    28   15   16 ar
    29   15   45 1
    30   16   17 ar
    31   16   46 1
    32   17   18 ar
    33   17   47 1
    34   18   19 ar
    35   18   48 1
    36   19   20 1
    37   21   22 2
    38   21   23 am
    39   23   24 1
    40   23   49 1
    41   24   28 1
    42   24   25 1
    43   24   50 1
    44   25   26 1
    45   25   51 1
    46   25   52 1
    47   26   27 1
    48   26   53 1
    49   26   54 1
    50   27   28 1
    51   27   55 1
    52   27   56 1
    53   28   57 1
    54   28   58 1
    55   29   30 2
    56   29   31 1
    57   31   35 1
    58   31   32 2
    59   32   33 1
    60   32   59 1
    61   33   34 2
    62   33   60 1
    63   34   35 1
    64   34   61 1
@<TRIPOS>MOLECULE
ZINC13025778
   61    64     0     0     0
SMALL
USER_CHARGES
N-[(1S)-2-(cyclopentylamino)-1-(2-fluorophenyl)-2-oxo-ethyl]-N-(2,4-dimethoxyphenyl)furan-2-carboxamide
@<TRIPOS>ATOM
      1 C1          3.2216    3.6447   -1.0016 C.3       1 <0>         0.0256
      2 O1          1.8936    3.1179   -0.9713 O.3       1 <0>        -0.3139
      3 C2          1.7647    1.7803   -0.7642 C.ar      1 <0>         0.1819
      4 C3          2.8946    0.9934   -0.5948 C.ar      1 <0>        -0.2397
      5 C4          2.7672   -0.3662   -0.3841 C.ar      1 <0>        -0.0159
      6 C5          1.5083   -0.9474   -0.3424 C.ar      1 <0>         0.0489
      7 C6          0.3727   -0.1586   -0.5128 C.ar      1 <0>         0.1912
      8 C7          0.5040    1.2041   -0.7234 C.ar      1 <0>        -0.2420
      9 O2         -0.8625   -0.7255   -0.4720 O.3       1 <0>        -0.2928
     10 C8         -1.9818    0.1442   -0.6540 C.3       1 <0>         0.0265
     11 N1          1.3789   -2.3273   -0.1295 N.am      1 <0>        -0.5300
     12 C9          1.2609   -2.8503    1.2339 C.3       1 <0>         0.1848
     13 H1          1.2437   -2.0209    1.9409 H         1 <0>         0.1216
     14 C10        -0.0142   -3.6436    1.3590 C.ar      1 <0>        -0.1481
     15 C11         0.0136   -5.0204    1.2400 C.ar      1 <0>        -0.0323
     16 C12        -1.1550   -5.7487    1.3605 C.ar      1 <0>        -0.1403
     17 C13        -2.3546   -5.1002    1.5888 C.ar      1 <0>        -0.0751
     18 C14        -2.3857   -3.7235    1.7025 C.ar      1 <0>        -0.1678
     19 C15        -1.2148   -2.9932    1.5876 C.ar      1 <0>         0.1363
     20 F1         -1.2440   -1.6471    1.6982 F         1 <0>        -0.1270
     21 C16         2.4385   -3.7416    1.5337 C.2       1 <0>         0.5141
     22 O3          3.2923   -3.9222    0.6914 O.2       1 <0>        -0.5134
     23 N2          2.5430   -4.3379    2.7378 N.am      1 <0>        -0.7216
     24 C17         3.6878   -5.2044    3.0292 C.3       1 <0>         0.1422
     25 C18         3.3841   -6.6494    2.5825 C.3       1 <0>        -0.1350
     26 C19         4.0465   -7.5305    3.6705 C.3       1 <0>        -0.1247
     27 C20         3.7752   -6.7315    4.9693 C.3       1 <0>        -0.1242
     28 C21         3.9365   -5.2566    4.5468 C.3       1 <0>        -0.1315
     29 C22         1.3630   -3.1726   -1.1792 C.2       1 <0>         0.6259
     30 O4          1.1629   -4.3600   -1.0015 O.2       1 <0>        -0.4972
     31 C23         1.5870   -2.6617   -2.5353 C.2       1 <0>        -0.0684
     32 C24         1.5971   -3.4046   -3.6811 C.2       1 <0>        -0.1223
     33 C25         1.8466   -2.5141   -4.7371 C.2       1 <0>        -0.2244
     34 C26         1.9762   -1.2825   -4.1966 C.2       1 <0>        -0.0132
     35 O5          1.8133   -1.3746   -2.8703 O.3       1 <0>        -0.1477
     36 H2          3.7127    3.4473   -0.0487 H         1 <0>         0.0587
     37 H3          3.7832    3.1685   -1.8053 H         1 <0>         0.0588
     38 H4          3.1820    4.7203   -1.1740 H         1 <0>         0.1025
     39 H5          3.8755    1.4442   -0.6277 H         1 <0>         0.1346
     40 H6          3.6481   -0.9769   -0.2522 H         1 <0>         0.1358
     41 H7         -0.3748    1.8168   -0.8601 H         1 <0>         0.1410
     42 H8         -1.9127    0.6260   -1.6293 H         1 <0>         0.0564
     43 H9         -2.9040   -0.4342   -0.5990 H         1 <0>         0.0997
     44 H10        -1.9823    0.9041    0.1274 H         1 <0>         0.0592
     45 H11         0.9494   -5.5276    1.0572 H         1 <0>         0.1346
     46 H12        -1.1317   -6.8248    1.2718 H         1 <0>         0.1288
     47 H13        -3.2678   -5.6700    1.6780 H         1 <0>         0.1318
     48 H14        -3.3229   -3.2172    1.8805 H         1 <0>         0.1344
     49 H15         1.8602   -4.1935    3.4114 H         1 <0>         0.4005
     50 H16         4.5761   -4.8336    2.5178 H         1 <0>         0.0916
     51 H17         2.3082   -6.8220    2.5547 H         1 <0>         0.0711
     52 H18         3.8286   -6.8486    1.6074 H         1 <0>         0.0714
     53 H19         5.1176   -7.6251    3.4917 H         1 <0>         0.0692
     54 H20         3.5730   -8.5114    3.7144 H         1 <0>         0.0694
     55 H21         4.5052   -6.9906    5.7362 H         1 <0>         0.0685
     56 H22         2.7625   -6.9173    5.3271 H         1 <0>         0.0675
     57 H23         4.9458   -4.9119    4.7718 H         1 <0>         0.0751
     58 H24         3.2054   -4.6372    5.0665 H         1 <0>         0.0712
     59 H25         1.4433   -4.4707   -3.7596 H         1 <0>         0.1574
     60 H26         1.9213   -2.7661   -5.7847 H         1 <0>         0.1548
     61 H27         2.1738   -0.3729   -4.7443 H         1 <0>         0.2054
@<TRIPOS>BOND
     1    1    2 1
     2    1   36 1
     3    1   37 1
     4    1   38 1
     5    2    3 1
     6    3    8 ar
     7    3    4 ar
     8    4    5 ar
     9    4   39 1
    10    5    6 ar
    11    5   40 1
    12    6    7 ar
    13    6   11 1
    14    7    8 ar
    15    7    9 1
    16    8   41 1
    17    9   10 1
    18   10   42 1
    19   10   43 1
    20   10   44 1
    21   11   12 1
    22   11   29 am
    23   12   13 1
    24   12   14 1
    25   12   21 1
    26   14   19 ar
    27   14   15 ar
    28   15   16 ar
    29   15   45 1
    30   16   17 ar
    31   16   46 1
    32   17   18 ar
    33   17   47 1
    34   18   19 ar
    35   18   48 1
    36   19   20 1
    37   21   22 2
    38   21   23 am
    39   23   24 1
    40   23   49 1
    41   24   28 1
    42   24   25 1
    43   24   50 1
    44   25   26 1
    45   25   51 1
    46   25   52 1
    47   26   27 1
    48   26   53 1
    49   26   54 1
    50   27   28 1
    51   27   55 1
    52   27   56 1
    53   28   57 1
    54   28   58 1
    55   29   30 2
    56   29   31 1
    57   31   35 1
    58   31   32 2
    59   32   33 1
    60   32   59 1
    61   33   34 2
    62   33   60 1
    63   34   35 1
    64   34   61 1
@<TRIPOS>MOLECULE
ZINC01231982
   45    47     0     0     0
SMALL
USER_CHARGES

@<TRIPOS>ATOM
      1 C1          0.4762    1.7505    0.2712 C.3       1 <0>        -0.1255
      2 C2          0.3279    0.2558    0.1493 C.ar      1 <0>        -0.0209
      3 C3         -0.0353   -0.3064   -1.0602 C.ar      1 <0>        -0.1226
      4 C4         -0.1714   -1.6775   -1.1719 C.ar      1 <0>         0.0150
      5 C5          0.0562   -2.4864   -0.0743 C.ar      1 <0>        -0.6923
      6 C6          0.4203   -1.9243    1.1350 C.ar      1 <0>        -0.0126
      7 C7          0.5605   -0.5535    1.2456 C.ar      1 <0>        -0.1440
      8 S1         -0.1184   -4.2340   -0.2165 S.o2      1 <0>         2.6789
      9 O1         -0.7328   -4.6798    0.9847 O.2       1 <0>        -0.9438
     10 O2         -0.6804   -4.4831   -1.4976 O.2       1 <0>        -0.9425
     11 N1          1.4070   -4.8785   -0.2354 N.pl3     1 <0>        -0.9579
     12 C8          2.0486   -5.2788    1.0193 C.3       1 <0>         0.0816
     13 C9          2.0778   -5.0394   -1.4405 C.ar      1 <0>         0.1712
     14 C10         1.9915   -6.2410   -2.1327 C.ar      1 <0>        -0.0855
     15 C11         2.6587   -6.3991   -3.3298 C.ar      1 <0>        -0.0841
     16 C12         3.4198   -5.3632   -3.8524 C.ar      1 <0>        -0.0266
     17 C13         3.5178   -4.1640   -3.1809 C.ar      1 <0>        -0.0689
     18 C14         2.8425   -3.9863   -1.9690 C.ar      1 <0>        -0.1313
     19 C15         2.9376   -2.7050   -1.2484 C.2       1 <0>         0.4344
     20 O3          2.3237   -1.7348   -1.6494 O.2       1 <0>        -0.4109
     21 C16         3.7791   -2.5985   -0.0379 C.ar      1 <0>        -0.1598
     22 C17         4.5981   -3.6636    0.3429 C.ar      1 <0>        -0.0712
     23 C18         5.3808   -3.5575    1.4736 C.ar      1 <0>        -0.1322
     24 C19         5.3555   -2.3992    2.2304 C.ar      1 <0>        -0.0828
     25 C20         4.5462   -1.3399    1.8588 C.ar      1 <0>        -0.1315
     26 C21         3.7631   -1.4302    0.7269 C.ar      1 <0>        -0.0553
     27 Cl1         4.2534   -5.5794   -5.3597 Cl        1 <0>        -0.0524
     28 H1          1.5015    2.0344    0.0341 H         1 <0>         0.0786
     29 H2         -0.2063    2.2411   -0.4227 H         1 <0>         0.0725
     30 H3          0.2407    2.0571    1.2903 H         1 <0>         0.0717
     31 H4         -0.2131    0.3256   -1.9177 H         1 <0>         0.1294
     32 H5         -0.4558   -2.1167   -2.1167 H         1 <0>         0.1371
     33 H6          0.5977   -2.5562    1.9926 H         1 <0>         0.1288
     34 H7          0.8485   -0.1146    2.1894 H         1 <0>         0.1294
     35 H8          1.8085   -6.3201    1.2340 H         1 <0>         0.0721
     36 H9          3.1289   -5.1666    0.9269 H         1 <0>         0.0848
     37 H10         1.6859   -4.6475    1.8305 H         1 <0>         0.0791
     38 H11         1.4016   -7.0525   -1.7329 H         1 <0>         0.1465
     39 H12         2.5885   -7.3353   -3.8635 H         1 <0>         0.1473
     40 H13         4.1115   -3.3609   -3.5920 H         1 <0>         0.1443
     41 H14         4.6183   -4.5684   -0.2464 H         1 <0>         0.1303
     42 H15         6.0146   -4.3804    1.7693 H         1 <0>         0.1310
     43 H16         5.9698   -2.3217    3.1152 H         1 <0>         0.1288
     44 H17         4.5310   -0.4389    2.4541 H         1 <0>         0.1295
     45 H18         3.1354   -0.6011    0.4355 H         1 <0>         0.1327
@<TRIPOS>BOND
     1    1    2 1
     2    1   28 1
     3    1   29 1
     4    1   30 1
     5    2    7 ar
     6    2    3 ar
     7    3    4 ar
     8    3   31 1
     9    4    5 ar
    10    4   32 1
    11    5    6 ar
    12    5    8 1
    13    6    7 ar
    14    6   33 1
    15    7   34 1
    16    8    9 2
    17    8   10 2
    18    8   11 1
    19   11   12 1
    20   11   13 1
    21   12   35 1
    22   12   36 1
    23   12   37 1
    24   13   18 ar
    25   13   14 ar
    26   14   15 ar
    27   14   38 1
    28   15   16 ar
    29   15   39 1
    30   16   17 ar
    31   16   27 1
    32   17   18 ar
    33   17   40 1
    34   18   19 1
    35   19   20 2
    36   19   21 1
    37   21   26 ar
    38   21   22 ar
    39   22   23 ar
    40   22   41 1
    41   23   24 ar
    42   23   42 1
    43   24   25 ar
    44   24   43 1
    45   25   26 ar
    46   25   44 1
    47   26   45 1
@<TRIPOS>MOLECULE
ZINC00636919
   54    56     0     0     0
SMALL
USER_CHARGES

@<TRIPOS>ATOM
      1 C1         -1.7903  -10.3521    1.1118 C.3       1 <0>        -0.1261
      2 C2         -1.0634   -9.0413    0.9556 C.ar      1 <0>        -0.0277
      3 C3          0.2865   -9.0307    0.6577 C.ar      1 <0>        -0.1419
      4 C4          0.9533   -7.8283    0.5144 C.ar      1 <0>        -0.0117
      5 C5          0.2701   -6.6365    0.6686 C.ar      1 <0>        -0.6828
      6 C6         -1.0799   -6.6470    0.9656 C.ar      1 <0>        -0.0195
      7 C7         -1.7476   -7.8494    1.1047 C.ar      1 <0>        -0.1421
      8 S1          1.1203   -5.1039    0.4871 S.o2      1 <0>         2.6555
      9 O1          0.3223   -4.1183    1.1283 O.2       1 <0>        -0.9470
     10 O2          2.4727   -5.3441    0.8512 O.2       1 <0>        -0.9074
     11 N1          1.1233   -4.7337   -1.1270 N.pl3     1 <0>        -0.9538
     12 C8         -0.0295   -4.0558   -1.7252 C.3       1 <0>         0.0864
     13 C9          2.2275   -5.0688   -1.9201 C.ar      1 <0>         0.1451
     14 C10         2.2330   -6.2543   -2.6392 C.ar      1 <0>        -0.1022
     15 C11         3.3243   -6.5829   -3.4221 C.ar      1 <0>        -0.1069
     16 C12         4.4121   -5.7324   -3.4908 C.ar      1 <0>        -0.0924
     17 C13         4.4150   -4.5482   -2.7770 C.ar      1 <0>        -0.1217
     18 C14         3.3226   -4.2082   -1.9935 C.ar      1 <0>         0.1649
     19 N2          3.3212   -3.0070   -1.2740 N.pl3     1 <0>        -0.9574
     20 C15         2.4427   -1.9087   -1.6839 C.3       1 <0>         0.0849
     21 S2          4.3127   -2.8279    0.0402 S.o2      1 <0>         2.6609
     22 O3          3.7390   -1.8074    0.8456 O.2       1 <0>        -0.9471
     23 O4          4.5705   -4.1346    0.5355 O.2       1 <0>        -0.8959
     24 C16         5.8501   -2.2001   -0.5487 C.ar      1 <0>        -0.6867
     25 C17         6.8508   -3.0724   -0.9341 C.ar      1 <0>        -0.0171
     26 C18         8.0570   -2.5799   -1.3961 C.ar      1 <0>        -0.1413
     27 C19         8.2622   -1.2150   -1.4732 C.ar      1 <0>        -0.0281
     28 C20         7.2612   -0.3427   -1.0886 C.ar      1 <0>        -0.1412
     29 C21         6.0535   -0.8352   -0.6307 C.ar      1 <0>        -0.0178
     30 C22         9.5775   -0.6781   -1.9759 C.3       1 <0>        -0.1260
     31 H1         -2.1829  -10.6673    0.1451 H         1 <0>         0.0801
     32 H2         -1.1003  -11.1076    1.4876 H         1 <0>         0.0739
     33 H3         -2.6134  -10.2295    1.8158 H         1 <0>         0.0736
     34 H4          0.8202   -9.9618    0.5372 H         1 <0>         0.1342
     35 H5          2.0080   -7.8201    0.2823 H         1 <0>         0.1413
     36 H6         -1.6135   -5.7159    1.0865 H         1 <0>         0.1400
     37 H7         -2.8031   -7.8577    1.3331 H         1 <0>         0.1339
     38 H8          0.1116   -2.9767   -1.6638 H         1 <0>         0.0692
     39 H9         -0.1227   -4.3512   -2.7702 H         1 <0>         0.0804
     40 H10        -0.9350   -4.3350   -1.1865 H         1 <0>         0.0756
     41 H11         1.3850   -6.9212   -2.5875 H         1 <0>         0.1339
     42 H12         3.3271   -7.5069   -3.9813 H         1 <0>         0.1344
     43 H13         5.2621   -5.9939   -4.1035 H         1 <0>         0.1349
     44 H14         5.2666   -3.8862   -2.8326 H         1 <0>         0.1320
     45 H15         1.5195   -1.9468   -1.1057 H         1 <0>         0.0688
     46 H16         2.9436   -0.9571   -1.5064 H         1 <0>         0.0776
     47 H17         2.2112   -2.0051   -2.7447 H         1 <0>         0.0835
     48 H18         6.6904   -4.1387   -0.8739 H         1 <0>         0.1422
     49 H19         8.8391   -3.2614   -1.6965 H         1 <0>         0.1345
     50 H20         7.4217    0.7236   -1.1485 H         1 <0>         0.1339
     51 H21         5.2700   -0.1537   -0.3337 H         1 <0>         0.1390
     52 H22         9.5273   -0.5476   -3.0569 H         1 <0>         0.0801
     53 H23         9.7824    0.2824   -1.5031 H         1 <0>         0.0736
     54 H24        10.3741   -1.3807   -1.7314 H         1 <0>         0.0739
@<TRIPOS>BOND
     1    1    2 1
     2    1   31 1
     3    1   32 1
     4    1   33 1
     5    2    7 ar
     6    2    3 ar
     7    3    4 ar
     8    3   34 1
     9    4    5 ar
    10    4   35 1
    11    5    6 ar
    12    5    8 1
    13    6    7 ar
    14    6   36 1
    15    7   37 1
    16    8    9 2
    17    8   10 2
    18    8   11 1
    19   11   12 1
    20   11   13 1
    21   12   38 1
    22   12   39 1
    23   12   40 1
    24   13   18 ar
    25   13   14 ar
    26   14   15 ar
    27   14   41 1
    28   15   16 ar
    29   15   42 1
    30   16   17 ar
    31   16   43 1
    32   17   18 ar
    33   17   44 1
    34   18   19 1
    35   19   20 1
    36   19   21 1
    37   20   45 1
    38   20   46 1
    39   20   47 1
    40   21   22 2
    41   21   23 2
    42   21   24 1
    43   24   29 ar
    44   24   25 ar
    45   25   26 ar
    46   25   48 1
    47   26   27 ar
    48   26   49 1
    49   27   28 ar
    50   27   30 1
    51   28   29 ar
    52   28   50 1
    53   29   51 1
    54   30   52 1
    55   30   53 1
    56   30   54 1
@<TRIPOS>MOLECULE
ZINC02573080
   62    64     0     0     0
SMALL
USER_CHARGES

@<TRIPOS>ATOM
      1 C1         -6.1882   -3.8402    1.1196 C.3       1 <0>        -0.1256
      2 C2         -4.7365   -3.5119    0.8829 C.ar      1 <0>        -0.0303
      3 C3         -3.7713   -4.4875    1.0484 C.ar      1 <0>        -0.1425
      4 C4         -2.4398   -4.1863    0.8312 C.ar      1 <0>        -0.0147
      5 C5         -2.0735   -2.9096    0.4481 C.ar      1 <0>        -0.6992
      6 C6         -3.0388   -1.9342    0.2818 C.ar      1 <0>        -0.0214
      7 C7         -4.3708   -2.2365    0.4948 C.ar      1 <0>        -0.1427
      8 S1         -0.3761   -2.5254    0.1725 S.o2      1 <0>         2.6724
      9 O1         -0.2646   -1.1102    0.2360 O.2       1 <0>        -0.8463
     10 O2          0.3773   -3.3875    1.0142 O.2       1 <0>        -0.9396
     11 N1         -0.0230   -2.9586   -1.3864 N.pl3     1 <0>        -0.9501
     12 C8         -0.4285   -2.0933   -2.4968 C.3       1 <0>         0.1563
     13 C9          0.7772   -1.3651   -3.0325 C.2       1 <0>        -0.1977
     14 C10         1.0046   -1.3348   -4.3223 C.2       1 <0>        -0.1888
     15 C11         0.6632   -4.1518   -1.6431 C.ar      1 <0>         0.1213
     16 C12        -0.0353   -5.2877   -2.0230 C.ar      1 <0>        -0.0978
     17 C13         0.6444   -6.4648   -2.2765 C.ar      1 <0>        -0.1140
     18 C14         2.0205   -6.5137   -2.1523 C.ar      1 <0>        -0.0943
     19 C15         2.7250   -5.3857   -1.7740 C.ar      1 <0>        -0.1111
     20 C16         2.0519   -4.1997   -1.5229 C.ar      1 <0>         0.1744
     21 N2          2.7639   -3.0548   -1.1448 N.pl3     1 <0>        -0.9420
     22 C17         3.7677   -2.4852   -2.0471 C.3       1 <0>         0.1468
     23 C18         3.2162   -1.2381   -2.6889 C.2       1 <0>        -0.3059
     24 C19         3.9709   -0.1740   -2.8077 C.2       1 <0>        -0.1752
     25 S2          2.4712   -2.3447    0.3223 S.o2      1 <0>         2.5476
     26 O3          1.4049   -1.4267    0.1237 O.2       1 <0>        -0.8966
     27 O4          2.4038   -3.3959    1.2760 O.2       1 <0>        -0.8852
     28 C20         3.8922   -1.3857    0.7296 C.ar      1 <0>        -0.6677
     29 C21         4.9321   -1.9576    1.4383 C.ar      1 <0>        -0.0205
     30 C22         6.0469   -1.2052    1.7579 C.ar      1 <0>        -0.1446
     31 C23         6.1219    0.1190    1.3682 C.ar      1 <0>        -0.0291
     32 C24         5.0823    0.6907    0.6587 C.ar      1 <0>        -0.1438
     33 C25         3.9695   -0.0629    0.3354 C.ar      1 <0>        -0.0062
     34 C26         7.3367    0.9395    1.7174 C.3       1 <0>        -0.1254
     35 H1         -6.6375   -4.1910    0.1906 H         1 <0>         0.0797
     36 H2         -6.2654   -4.6197    1.8776 H         1 <0>         0.0734
     37 H3         -6.7115   -2.9474    1.4619 H         1 <0>         0.0733
     38 H4         -4.0575   -5.4850    1.3477 H         1 <0>         0.1334
     39 H5         -1.6856   -4.9484    0.9612 H         1 <0>         0.1389
     40 H6         -2.7526   -0.9367   -0.0171 H         1 <0>         0.1408
     41 H7         -5.1253   -1.4755    0.3612 H         1 <0>         0.1335
     42 H8         -0.8679   -2.7002   -3.2885 H         1 <0>         0.0847
     43 H9         -1.1630   -1.3694   -2.1439 H         1 <0>         0.0975
     44 H10         1.4539   -0.8682   -2.3531 H         1 <0>         0.1762
     45 H11         1.8626   -0.8037   -4.7070 H         1 <0>         0.1101
     46 H12         0.3340   -1.8410   -5.0008 H         1 <0>         0.1041
     47 H13        -1.1104   -5.2531   -2.1207 H         1 <0>         0.1334
     48 H14         0.0987   -7.3487   -2.5720 H         1 <0>         0.1329
     49 H15         2.5466   -7.4356   -2.3511 H         1 <0>         0.1331
     50 H16         3.7999   -5.4275   -1.6776 H         1 <0>         0.1336
     51 H17         4.6653   -2.2360   -1.4812 H         1 <0>         0.0786
     52 H18         4.0158   -3.2124   -2.8202 H         1 <0>         0.0940
     53 H19         2.1988   -1.2218   -3.0510 H         1 <0>         0.2239
     54 H20         3.5265    0.7779   -3.0583 H         1 <0>         0.1038
     55 H21         5.0375   -0.2486   -2.6551 H         1 <0>         0.0904
     56 H22         4.8735   -2.9921    1.7427 H         1 <0>         0.1374
     57 H23         6.8590   -1.6518    2.3122 H         1 <0>         0.1323
     58 H24         5.1408    1.7253    0.3546 H         1 <0>         0.1328
     59 H25         3.1589    0.3826   -0.2221 H         1 <0>         0.1422
     60 H26         8.0751    0.8528    0.9203 H         1 <0>         0.0791
     61 H27         7.0484    1.9843    1.8335 H         1 <0>         0.0733
     62 H28         7.7653    0.5750    2.6510 H         1 <0>         0.0729
@<TRIPOS>BOND
     1    1    2 1
     2    1   35 1
     3    1   36 1
     4    1   37 1
     5    2    7 ar
     6    2    3 ar
     7    3    4 ar
     8    3   38 1
     9    4    5 ar
    10    4   39 1
    11    5    6 ar
    12    5    8 1
    13    6    7 ar
    14    6   40 1
    15    7   41 1
    16    8    9 2
    17    8   10 2
    18    8   11 1
    19   11   12 1
    20   11   15 1
    21   12   13 1
    22   12   42 1
    23   12   43 1
    24   13   14 2
    25   13   44 1
    26   14   45 1
    27   14   46 1
    28   15   20 ar
    29   15   16 ar
    30   16   17 ar
    31   16   47 1
    32   17   18 ar
    33   17   48 1
    34   18   19 ar
    35   18   49 1
    36   19   20 ar
    37   19   50 1
    38   20   21 1
    39   21   22 1
    40   21   25 1
    41   22   23 1
    42   22   51 1
    43   22   52 1
    44   23   24 2
    45   23   53 1
    46   24   54 1
    47   24   55 1
    48   25   26 2
    49   25   27 2
    50   25   28 1
    51   28   33 ar
    52   28   29 ar
    53   29   30 ar
    54   29   56 1
    55   30   31 ar
    56   30   57 1
    57   31   32 ar
    58   31   34 1
    59   32   33 ar
    60   32   58 1
    61   33   59 1
    62   34   60 1
    63   34   61 1
    64   34   62 1
