@<TRIPOS>MOLECULE
ZINC00005152
   28    27     0     0     0
SMALL
USER_CHARGES

@<TRIPOS>ATOM
      1 C1         -0.0284    1.4730    0.3254 C.3       1 <0>        -0.1526
      2 C2         -0.0192   -0.0501    0.1800 C.3       1 <0>        -0.1012
      3 C3          0.6151   -0.6772    1.4231 C.3       1 <0>        -0.1565
      4 C4         -1.4550   -0.5567    0.0292 C.3       1 <0>        -0.1297
      5 C5         -1.4383   -2.0610   -0.2495 C.3       1 <0>        -0.0924
      6 H1         -0.8692   -2.5686    0.5293 H         1 <0>         0.1204
      7 C6         -2.8727   -2.5933   -0.2618 C.3       1 <0>        -0.1975
      8 C7         -2.8509   -4.0925   -0.4137 C.2       1 <0>         0.4813
      9 O1         -1.7868   -4.6806   -0.5038 O.co2     1 <0>        -0.6916
     10 O2         -3.8974   -4.7171   -0.4466 O.co2     1 <0>        -0.6804
     11 C8         -0.7863   -2.3206   -1.6090 C.3       1 <0>        -0.0107
     12 N1         -1.4913   -1.5537   -2.6447 N.4       1 <0>        -0.6381
     13 H2          0.9945    1.8339    0.4328 H         1 <0>         0.0589
     14 H3         -0.4803    1.9198   -0.5602 H         1 <0>         0.0515
     15 H4         -0.6060    1.7503    1.2072 H         1 <0>         0.0597
     16 H5          0.5584   -0.3274   -0.7018 H         1 <0>         0.0646
     17 H6          0.6216   -1.7622    1.3195 H         1 <0>         0.0640
     18 H7          1.6379   -0.3162    1.5305 H         1 <0>         0.0574
     19 H8          0.0374   -0.3999    2.3049 H         1 <0>         0.0595
     20 H9         -2.0068   -0.3637    0.9492 H         1 <0>         0.0864
     21 H10        -1.9378   -0.0390   -0.7995 H         1 <0>         0.0490
     22 H11        -3.3660   -2.3301    0.6738 H         1 <0>         0.0816
     23 H12        -3.4171   -2.1514   -1.0964 H         1 <0>         0.0499
     24 H13         0.2584   -2.0114   -1.5759 H         1 <0>         0.1213
     25 H14        -0.8433   -3.3839   -1.8422 H         1 <0>         0.1618
     26 H15        -2.4413   -1.8852   -2.7206 H         1 <0>         0.4336
     27 H16        -1.4953   -0.5760   -2.3951 H         1 <0>         0.4206
     28 H17        -1.0217   -1.6729   -3.5297 H         1 <0>         0.4289
@<TRIPOS>BOND
     1    1    2 1
     2    1   13 1
     3    1   14 1
     4    1   15 1
     5    2    3 1
     6    2    4 1
     7    2   16 1
     8    3   17 1
     9    3   18 1
    10    3   19 1
    11    4    5 1
    12    4   20 1
    13    4   21 1
    14    5    6 1
    15    5    7 1
    16    5   11 1
    17    7    8 1
    18    7   22 1
    19    7   23 1
    20    8    9 2
    21    8   10 1
    22   11   12 1
    23   11   24 1
    24   11   25 1
    25   12   26 1
    26   12   27 1
    27   12   28 1
@<TRIPOS>MOLECULE
ZINC05760031
   28    27     0     0     0
SMALL
USER_CHARGES

@<TRIPOS>ATOM
      1 C1         -2.2188    1.7882   -0.0185 C.3       1 <0>        -0.1489
      2 C2         -1.7113    0.4947   -0.6589 C.3       1 <0>        -0.1005
      3 C3         -0.4837    0.7993   -1.5198 C.3       1 <0>        -0.1545
      4 C4         -1.3306   -0.5021    0.4376 C.3       1 <0>        -0.1237
      5 C5         -0.9380   -1.8364   -0.1999 C.3       1 <0>        -0.0929
      6 H1         -0.1555   -1.6691   -0.9400 H         1 <0>         0.0999
      7 C6         -2.1603   -2.4553   -0.8811 C.3       1 <0>        -0.1830
      8 C7         -1.7415   -3.6871   -1.6415 C.2       1 <0>         0.4857
      9 O1         -0.5597   -3.9703   -1.7401 O.co2     1 <0>        -0.7054
     10 O2         -2.5845   -4.4006   -2.1581 O.co2     1 <0>        -0.6821
     11 C8         -0.4217   -2.7865    0.8825 C.3       1 <0>        -0.0066
     12 N1          0.8296   -2.2579    1.4417 N.4       1 <0>        -0.6342
     13 H2         -2.4900    2.4983   -0.7997 H         1 <0>         0.0580
     14 H3         -3.0934    1.5712    0.5948 H         1 <0>         0.0552
     15 H4         -1.4346    2.2167    0.6056 H         1 <0>         0.0513
     16 H5         -2.4955    0.0663   -1.2831 H         1 <0>         0.0825
     17 H6         -0.1200   -0.1228   -1.9732 H         1 <0>         0.0622
     18 H7         -0.7557    1.5067   -2.3032 H         1 <0>         0.0585
     19 H8          0.2993    1.2310   -0.8963 H         1 <0>         0.0499
     20 H9         -0.4886   -0.1104    1.0083 H         1 <0>         0.0479
     21 H10        -2.1811   -0.6533    1.1024 H         1 <0>         0.0726
     22 H11        -2.8979   -2.7276   -0.1262 H         1 <0>         0.0667
     23 H12        -2.5963   -1.7330   -1.5712 H         1 <0>         0.0806
     24 H13        -1.1655   -2.8733    1.6746 H         1 <0>         0.1204
     25 H14        -0.2387   -3.7686    0.4467 H         1 <0>         0.1533
     26 H15         1.4858   -2.0863    0.6946 H         1 <0>         0.4342
     27 H16         0.6420   -1.3948    1.9294 H         1 <0>         0.4224
     28 H17         1.2207   -2.9296    2.0851 H         1 <0>         0.4303
@<TRIPOS>BOND
     1    1    2 1
     2    1   13 1
     3    1   14 1
     4    1   15 1
     5    2    3 1
     6    2    4 1
     7    2   16 1
     8    3   17 1
     9    3   18 1
    10    3   19 1
    11    4    5 1
    12    4   20 1
    13    4   21 1
    14    5    6 1
    15    5    7 1
    16    5   11 1
    17    7    8 1
    18    7   22 1
    19    7   23 1
    20    8    9 2
    21    8   10 1
    22   11   12 1
    23   11   24 1
    24   11   25 1
    25   12   26 1
    26   12   27 1
    27   12   28 1
@<TRIPOS>MOLECULE
ZINC13779555
   35    35     0     0     0
SMALL
USER_CHARGES

@<TRIPOS>ATOM
      1 C1         -0.6122    1.0966   -0.4514 C.3       1 <0>        -0.1488
      2 C2         -0.2455   -0.3820   -0.3087 C.3       1 <0>        -0.0916
      3 H1          0.4413   -0.6646   -1.1064 H         1 <0>         0.0763
      4 C3         -1.5135   -1.2331   -0.4020 C.3       1 <0>        -0.1105
      5 C4         -1.1469   -2.7117   -0.2593 C.3       1 <0>        -0.0919
      6 H2         -0.4600   -2.9943   -1.0570 H         1 <0>         0.0735
      7 C5         -0.4764   -2.9423    1.0965 C.3       1 <0>        -0.1092
      8 C6          0.7915   -2.0911    1.1899 C.3       1 <0>        -0.0533
      9 C7          0.4249   -0.6126    1.0471 C.3       1 <0>        -0.1178
     10 C8          1.7557   -2.4879    0.0701 C.3       1 <0>        -0.2008
     11 C9          2.1553   -3.9311    0.2392 C.2       1 <0>         0.4823
     12 O1          1.6505   -4.6041    1.1216 O.co2     1 <0>        -0.6828
     13 O2          2.9835   -4.4257   -0.5065 O.co2     1 <0>        -0.6780
     14 C10         1.4620   -2.3218    2.5457 C.3       1 <0>        -0.0117
     15 N1          2.7458   -1.6089    2.5847 N.4       1 <0>        -0.6360
     16 C11        -2.4148   -3.5628   -0.3526 C.3       1 <0>        -0.1464
     17 H3          0.2912    1.7030   -0.3849 H         1 <0>         0.0518
     18 H4         -1.0898    1.2609   -1.4173 H         1 <0>         0.0577
     19 H5         -1.2990    1.3793    0.3464 H         1 <0>         0.0539
     20 H6         -2.2004   -0.9505    0.3958 H         1 <0>         0.0610
     21 H7         -1.9911   -1.0688   -1.3679 H         1 <0>         0.0622
     22 H8         -1.1633   -2.6596    1.8943 H         1 <0>         0.0534
     23 H9         -0.2152   -3.9956    1.1982 H         1 <0>         0.1164
     24 H10         1.3282   -0.0062    1.1136 H         1 <0>         0.0485
     25 H11        -0.2620   -0.3299    1.8449 H         1 <0>         0.0703
     26 H12         1.2655   -2.3573   -0.8947 H         1 <0>         0.0904
     27 H13         2.6437   -1.8574    0.1148 H         1 <0>         0.0485
     28 H14         0.8147   -1.9484    3.3392 H         1 <0>         0.1165
     29 H15         1.6342   -3.3885    2.6890 H         1 <0>         0.1696
     30 H16         3.3409   -1.9469    1.8433 H         1 <0>         0.4352
     31 H17         2.5853   -0.6202    2.4628 H         1 <0>         0.4196
     32 H18        -2.8925   -3.3985   -1.3185 H         1 <0>         0.0526
     33 H19        -2.1536   -4.6162   -0.2509 H         1 <0>         0.0589
     34 H20        -3.1017   -3.2802    0.4451 H         1 <0>         0.0515
     35 H21         3.1930   -1.7698    3.4747 H         1 <0>         0.4286
@<TRIPOS>BOND
     1    1    2 1
     2    1   17 1
     3    1   18 1
     4    1   19 1
     5    2    3 1
     6    2    9 1
     7    2    4 1
     8    4    5 1
     9    4   20 1
    10    4   21 1
    11    5    6 1
    12    5    7 1
    13    5   16 1
    14    7    8 1
    15    7   22 1
    16    7   23 1
    17    8    9 1
    18    8   10 1
    19    8   14 1
    20    9   24 1
    21    9   25 1
    22   10   11 1
    23   10   26 1
    24   10   27 1
    25   11   12 2
    26   11   13 1
    27   14   15 1
    28   14   28 1
    29   14   29 1
    30   15   30 1
    31   15   31 1
    32   15   35 1
    33   16   32 1
    34   16   33 1
    35   16   34 1
@<TRIPOS>MOLECULE
ZINC00004949
   29    29     0     0     0
SMALL
USER_CHARGES

@<TRIPOS>ATOM
      1 C1          0.6128    1.8465    0.4180 C.3       1 <0>        -0.1212
      2 C2          2.1217    2.0368    0.2505 C.3       1 <0>        -0.1215
      3 C3          2.5530    1.5106   -1.1199 C.3       1 <0>        -0.1148
      4 C4          2.2117    0.0229   -1.2255 C.3       1 <0>        -0.0532
      5 C5          0.7029   -0.1674   -1.0580 C.3       1 <0>        -0.1230
      6 C6          0.2715    0.3588    0.3124 C.3       1 <0>        -0.1198
      7 C7          2.9479   -0.7484   -0.1283 C.3       1 <0>        -0.2013
      8 C8          4.4351   -0.6014   -0.3223 C.2       1 <0>         0.4819
      9 O1          4.8663    0.1222   -1.2038 O.co2     1 <0>        -0.6833
     10 O2          5.2072   -1.2060    0.4021 O.co2     1 <0>        -0.6777
     11 C9          2.6430   -0.5033   -2.5959 C.3       1 <0>        -0.0118
     12 N1          2.4374   -1.9569   -2.6492 N.4       1 <0>        -0.6359
     13 H1          0.3056    2.2214    1.3943 H         1 <0>         0.0621
     14 H2          0.0883    2.3960   -0.3637 H         1 <0>         0.0601
     15 H3          2.3648    3.0966    0.3257 H         1 <0>         0.0643
     16 H4          2.6462    1.4873    1.0322 H         1 <0>         0.0668
     17 H5          2.0285    2.0600   -1.9017 H         1 <0>         0.0535
     18 H6          3.6279    1.6461   -1.2393 H         1 <0>         0.1158
     19 H7          0.1783    0.3821   -1.8397 H         1 <0>         0.0699
     20 H8          0.4597   -1.2273   -1.1332 H         1 <0>         0.0484
     21 H9          0.7961   -0.1907    1.0941 H         1 <0>         0.0688
     22 H10        -0.8034    0.2233    0.4318 H         1 <0>         0.0628
     23 H11         2.6676   -0.3497    0.8467 H         1 <0>         0.0910
     24 H12         2.6771   -1.8029   -0.1811 H         1 <0>         0.0488
     25 H13         2.0481   -0.0235   -3.3731 H         1 <0>         0.1166
     26 H14         3.6978   -0.2795   -2.7556 H         1 <0>         0.1694
     27 H15         1.4593   -2.1635   -2.5123 H         1 <0>         0.4196
     28 H16         2.7320   -2.3055   -3.5491 H         1 <0>         0.4287
     29 H17         2.9797   -2.4001   -1.9229 H         1 <0>         0.4352
@<TRIPOS>BOND
     1    1    6 1
     2    1    2 1
     3    1   13 1
     4    1   14 1
     5    2    3 1
     6    2   15 1
     7    2   16 1
     8    3    4 1
     9    3   17 1
    10    3   18 1
    11    4    5 1
    12    4    7 1
    13    4   11 1
    14    5    6 1
    15    5   19 1
    16    5   20 1
    17    6   21 1
    18    6   22 1
    19    7    8 1
    20    7   23 1
    21    7   24 1
    22    8    9 2
    23    8   10 1
    24   11   12 1
    25   11   25 1
    26   11   26 1
    27   12   27 1
    28   12   28 1
    29   12   29 1
