@<TRIPOS>MOLECULE
ZINC00169997
   20    20     0     0     0
SMALL
USER_CHARGES
(2R)-2-amino-2-(4-chlorophenyl)acetic acid
@<TRIPOS>ATOM
      1 C1         -2.1888    1.5239   -2.2948 C.ar      1 <0>        -0.1070
      2 C2         -2.4912    1.9539   -3.5731 C.ar      1 <0>        -0.1023
      3 C3         -2.2484    3.2665   -3.9366 C.ar      1 <0>        -0.0232
      4 C4         -1.7083    4.1494   -3.0185 C.ar      1 <0>        -0.1026
      5 C5         -1.4116    3.7197   -1.7388 C.ar      1 <0>        -0.0690
      6 C6         -1.6541    2.4079   -1.3763 C.ar      1 <0>        -0.1032
      7 C7         -1.3295    1.9397    0.0189 C.3       1 <0>         0.0275
      8 H1         -1.2591    2.8006    0.6838 H         1 <0>         0.1482
      9 C8         -0.0143    1.2041    0.0087 C.2       1 <0>         0.4589
     10 O1          0.0021   -0.0041    0.0020 O.co2     1 <0>        -0.6115
     11 Cl1        -2.6207    3.8054   -5.5443 Cl        1 <0>        -0.0566
     12 H2         -2.3742    0.4981   -2.0122 H         1 <0>         0.1310
     13 H3         -2.9128    1.2643   -4.2893 H         1 <0>         0.1417
     14 H4         -1.5181    5.1741   -3.3018 H         1 <0>         0.1435
     15 H5         -0.9900    4.4088   -1.0220 H         1 <0>         0.1440
     16 H6         -3.2699    1.5281    0.5701 H         1 <0>         0.4241
     17 H7         -2.4751    0.2339   -0.1075 H         1 <0>         0.4328
     18 O2          1.1389    1.8910    0.0013 O.co2     1 <0>        -0.6927
     19 N1         -2.3806    1.0343    0.5155 N.4       1 <0>        -0.6242
     20 H8         -2.1243    0.7012    1.4523 H         1 <0>         0.4406
@<TRIPOS>BOND
     1    1    6 ar
     2    1    2 ar
     3    1   12 1
     4    2    3 ar
     5    2   13 1
     6    3    4 ar
     7    3   11 1
     8    4    5 ar
     9    4   14 1
    10    5    6 ar
    11    5   15 1
    12    6    7 1
    13    7    8 1
    14    7    9 1
    15    7   19 1
    16    9   10 2
    17    9   18 1
    18   16   19 1
    19   17   19 1
    20   19   20 1
@<TRIPOS>MOLECULE
ZINC06658152
   20    20     0     0     0
SMALL
USER_CHARGES
(2S)-2-amino-2-(4-chlorophenyl)acetic acid
@<TRIPOS>ATOM
      1 C1          2.0240    3.6176   -2.3100 C.ar      1 <0>        -0.1077
      2 C2          1.8028    4.0891   -3.5903 C.ar      1 <0>        -0.1018
      3 C3          0.5538    4.5669   -3.9451 C.ar      1 <0>        -0.0236
      4 C4         -0.4746    4.5672   -3.0197 C.ar      1 <0>        -0.1022
      5 C5         -0.2537    4.0902   -1.7414 C.ar      1 <0>        -0.0695
      6 C6          0.9946    3.6133   -1.3873 C.ar      1 <0>        -0.1025
      7 C7          1.2350    3.0943    0.0069 C.3       1 <0>         0.0274
      8 H1          0.4688    3.4843    0.6769 H         1 <0>         0.1483
      9 C8          1.1765    1.5884   -0.0006 C.2       1 <0>         0.4590
     10 O1          2.1986    0.9442   -0.0139 O.co2     1 <0>        -0.6114
     11 Cl1         0.2774    5.1664   -5.5507 Cl        1 <0>        -0.0566
     12 H2          3.0001    3.2487   -2.0316 H         1 <0>         0.1308
     13 H3          2.6060    4.0886   -4.3123 H         1 <0>         0.1417
     14 H4         -1.4497    4.9404   -3.2959 H         1 <0>         0.1435
     15 H5         -1.0565    4.0904   -1.0189 H         1 <0>         0.1440
     16 H6          3.2870    3.1816   -0.1348 H         1 <0>         0.4328
     17 H7          2.6024    4.5358    0.5458 H         1 <0>         0.4241
     18 O2         -0.0110    0.9628    0.0073 O.co2     1 <0>        -0.6927
     19 N1          2.5594    3.5194    0.4930 N.4       1 <0>        -0.6243
     20 H8          2.7168    3.1284    1.4293 H         1 <0>         0.4406
@<TRIPOS>BOND
     1    1    6 ar
     2    1    2 ar
     3    1   12 1
     4    2    3 ar
     5    2   13 1
     6    3    4 ar
     7    3   11 1
     8    4    5 ar
     9    4   14 1
    10    5    6 ar
    11    5   15 1
    12    6    7 1
    13    7    8 1
    14    7    9 1
    15    7   19 1
    16    9   10 2
    17    9   18 1
    18   16   19 1
    19   17   19 1
    20   19   20 1
@<TRIPOS>MOLECULE
ZINC01532201
   23    22     0     0     0
SMALL
USER_CHARGES

@<TRIPOS>ATOM
      1 C1         -0.0187    1.5258    0.0104 C.3       1 <0>        -0.1400
      2 C2          0.0021   -0.0041    0.0020 C.3       1 <0>        -0.0915
      3 S1         -1.6997   -0.6320    0.0149 S.3       1 <0>        -0.2390
      4 C3         -1.5023   -2.4351    0.0033 C.3       1 <0>        -0.1080
      5 C4         -2.8807   -3.0992    0.0129 C.3       1 <0>        -0.1102
      6 C5         -2.7142   -4.6200    0.0032 C.3       1 <0>        -0.0449
      7 H1         -2.0807   -4.9216    0.8374 H         1 <0>         0.1355
      8 C6         -4.0653   -5.2742    0.1364 C.2       1 <0>         0.4907
      9 O1         -4.5510   -5.8682   -0.8110 O.co2     1 <0>        -0.6706
     10 O2         -4.6726   -5.2093    1.1916 O.co2     1 <0>        -0.6318
     11 N1         -2.0910   -5.0363   -1.2603 N.4       1 <0>        -0.6138
     12 H2          1.0039    1.9031    0.0027 H         1 <0>         0.0748
     13 H3         -0.5459    1.8868   -0.8726 H         1 <0>         0.0664
     14 H4         -0.5289    1.8773    0.9072 H         1 <0>         0.0676
     15 H5          0.5123   -0.3556   -0.8948 H         1 <0>         0.0802
     16 H6          0.5293   -0.3651    0.8851 H         1 <0>         0.0824
     17 H7         -0.9605   -2.7356   -0.8935 H         1 <0>         0.0708
     18 H8         -0.9435   -2.7451    0.8864 H         1 <0>         0.0924
     19 H9         -3.4225   -2.7987    0.9097 H         1 <0>         0.1202
     20 H10        -3.4395   -2.7892   -0.8701 H         1 <0>         0.0917
     21 H11        -1.1864   -4.5984   -1.3495 H         1 <0>         0.4108
     22 H12        -1.9812   -6.0393   -1.2668 H         1 <0>         0.4335
     23 H13        -2.6775   -4.7572   -2.0325 H         1 <0>         0.4329
@<TRIPOS>BOND
     1    1    2 1
     2    1   12 1
     3    1   13 1
     4    1   14 1
     5    2    3 1
     6    2   15 1
     7    2   16 1
     8    3    4 1
     9    4    5 1
    10    4   17 1
    11    4   18 1
    12    5    6 1
    13    5   19 1
    14    5   20 1
    15    6    7 1
    16    6    8 1
    17    6   11 1
    18    8    9 2
    19    8   10 1
    20   11   21 1
    21   11   22 1
    22   11   23 1
@<TRIPOS>MOLECULE
ZINC28570762
   30    30     0     0     0
SMALL
USER_CHARGES
(2S)-2-amino-4-[(3-chlorophenyl)methylsulfanyl]butanoic acid
@<TRIPOS>ATOM
      1 C1          1.1755    1.7831    0.0004 C.ar      1 <0>        -0.1044
      2 C2         -0.0126    1.0758    0.0080 C.ar      1 <0>        -0.0949
      3 C3         -1.2190    1.7503    0.0173 C.ar      1 <0>        -0.0678
      4 C4         -1.2383    3.1325    0.0298 C.ar      1 <0>        -0.0921
      5 C5         -0.0501    3.8406    0.0218 C.ar      1 <0>        -0.0347
      6 C6          1.1573    3.1649    0.0071 C.ar      1 <0>        -0.1021
      7 Cl1        -0.0736    5.5765    0.0296 Cl        1 <0>        -0.0639
      8 C7         -2.5135    0.9787    0.0192 C.3       1 <0>        -0.0516
      9 S1         -3.0248    0.6598    1.7302 S.3       1 <0>        -0.2191
     10 C8         -4.5767   -0.2638    1.5596 C.3       1 <0>        -0.1117
     11 C9         -5.1243   -0.6017    2.9477 C.3       1 <0>        -0.1116
     12 C10        -6.4333   -1.3808    2.8037 C.3       1 <0>        -0.0031
     13 H1         -6.2994   -2.2596    2.1558 H         1 <0>         0.1345
     14 C11        -6.9089   -1.8197    4.1647 C.2       1 <0>         0.4544
     15 O1         -7.7767   -1.1981    4.7308 O.co2     1 <0>        -0.6159
     16 O2         -6.3685   -2.9011    4.7480 O.co2     1 <0>        -0.7019
     17 N1         -7.4497   -0.5202    2.1839 N.4       1 <0>        -0.6669
     18 H2          2.1178    1.2555   -0.0111 H         1 <0>         0.1374
     19 H3          0.0021   -0.0041    0.0020 H         1 <0>         0.1326
     20 H4         -2.1810    3.6594    0.0416 H         1 <0>         0.1347
     21 H5          2.0854    3.7172    0.0005 H         1 <0>         0.1368
     22 H6         -3.2907    1.5653   -0.4925 H         1 <0>         0.0937
     23 H7         -2.3711    0.0223   -0.5053 H         1 <0>         0.0971
     24 H8         -5.3102    0.3491    1.0153 H         1 <0>         0.0729
     25 H9         -4.3906   -1.1938    1.0025 H         1 <0>         0.0949
     26 H10        -4.3907   -1.2146    3.4920 H         1 <0>         0.1200
     27 H11        -5.3105    0.3283    3.5048 H         1 <0>         0.0934
     28 H12        -8.3907   -1.0803    2.0804 H         1 <0>         0.4541
     29 H13        -7.1025   -0.1998    1.1905 H         1 <0>         0.4314
     30 H14        -7.6169    0.3639    2.8167 H         1 <0>         0.4536
@<TRIPOS>BOND
     1    1    6 ar
     2    1    2 ar
     3    1   18 1
     4    2    3 ar
     5    2   19 1
     6    3    4 ar
     7    3    8 1
     8    4    5 ar
     9    4   20 1
    10    5    6 ar
    11    5    7 1
    12    6   21 1
    13    8    9 1
    14    8   22 1
    15    8   23 1
    16    9   10 1
    17   10   11 1
    18   10   24 1
    19   10   25 1
    20   11   12 1
    21   11   26 1
    22   11   27 1
    23   12   13 1
    24   12   14 1
    25   12   17 1
    26   14   15 2
    27   14   16 1
    28   17   28 1
    29   17   29 1
    30   17   30 1
@<TRIPOS>MOLECULE
ZINC28570763
   30    30     0     0     0
SMALL
USER_CHARGES
(2R)-2-amino-4-[(3-chlorophenyl)methylsulfanyl]butanoic acid
@<TRIPOS>ATOM
      1 C1         -2.4221    1.2841   -2.8922 C.ar      1 <0>        -0.1042
      2 C2         -1.7497    0.8246   -1.7749 C.ar      1 <0>        -0.0950
      3 C3         -0.7416    1.5850   -1.2129 C.ar      1 <0>        -0.0678
      4 C4         -0.3979    2.8008   -1.7739 C.ar      1 <0>        -0.0922
      5 C5         -1.0668    3.2587   -2.8949 C.ar      1 <0>        -0.0347
      6 C6         -2.0795    2.4994   -3.4539 C.ar      1 <0>        -0.1022
      7 Cl1        -0.6354    4.7851   -3.6003 Cl        1 <0>        -0.0638
      8 C7         -0.0127    1.0858    0.0080 C.3       1 <0>        -0.0516
      9 S1         -0.8618    1.6708    1.5005 S.3       1 <0>        -0.2190
     10 C8          0.1270    0.9932    2.8620 C.3       1 <0>        -0.1117
     11 C9         -0.4869    1.4165    4.1980 C.3       1 <0>        -0.1117
     12 C10         0.3471    0.8450    5.3463 C.3       1 <0>        -0.0030
     13 H1          0.4685   -0.2432    5.2410 H         1 <0>         0.1345
     14 C11        -0.3243    1.1575    6.6588 C.2       1 <0>         0.4544
     15 O1          0.0659    2.0819    7.3320 O.co2     1 <0>        -0.6159
     16 O2         -1.3559    0.4090    7.0799 O.co2     1 <0>        -0.7019
     17 N1          1.6866    1.4477    5.3259 N.4       1 <0>        -0.6669
     18 H2         -3.2125    0.6914   -3.3284 H         1 <0>         0.1374
     19 H3         -2.0148   -0.1273   -1.3389 H         1 <0>         0.1326
     20 H4          0.3923    3.3932   -1.3369 H         1 <0>         0.1347
     21 H5         -2.6018    2.8562   -4.3293 H         1 <0>         0.1368
     22 H6          0.0022   -0.0141    0.0019 H         1 <0>         0.0971
     23 H7          1.0193    1.4665    0.0002 H         1 <0>         0.0937
     24 H8          0.1389   -0.1047    2.7954 H         1 <0>         0.0949
     25 H9          1.1560    1.3759    2.7937 H         1 <0>         0.0729
     26 H10        -0.4988    2.5144    4.2645 H         1 <0>         0.0934
     27 H11        -1.5159    1.0338    4.2663 H         1 <0>         0.1200
     28 H12         2.2862    1.0368    6.1515 H         1 <0>         0.4541
     29 H13         1.5999    2.5380    5.4430 H         1 <0>         0.4536
     30 H14         2.1767    1.2196    4.3679 H         1 <0>         0.4314
@<TRIPOS>BOND
     1    1    6 ar
     2    1    2 ar
     3    1   18 1
     4    2    3 ar
     5    2   19 1
     6    3    4 ar
     7    3    8 1
     8    4    5 ar
     9    4   20 1
    10    5    6 ar
    11    5    7 1
    12    6   21 1
    13    8    9 1
    14    8   22 1
    15    8   23 1
    16    9   10 1
    17   10   11 1
    18   10   24 1
    19   10   25 1
    20   11   12 1
    21   11   26 1
    22   11   27 1
    23   12   13 1
    24   12   14 1
    25   12   17 1
    26   14   15 2
    27   14   16 1
    28   17   28 1
    29   17   29 1
    30   17   30 1
@<TRIPOS>MOLECULE
ZINC28570576
   33    33     0     0     0
SMALL
USER_CHARGES
(2R)-2-amino-4-(o-tolylmethylsulfanyl)butanoic acid
@<TRIPOS>ATOM
      1 C1          0.8856    3.4993   -4.0971 C.3       1 <0>        -0.1219
      2 C2         -0.1682    2.6391   -4.7456 C.ar      1 <0>        -0.0661
      3 C3         -0.7455    3.0343   -5.9381 C.ar      1 <0>        -0.1215
      4 C4         -1.7117    2.2451   -6.5331 C.ar      1 <0>        -0.1066
      5 C5         -2.1008    1.0605   -5.9358 C.ar      1 <0>        -0.1249
      6 C6         -1.5199    0.6628   -4.7464 C.ar      1 <0>        -0.0952
      7 C7         -0.5572    1.4549   -4.1485 C.ar      1 <0>        -0.0834
      8 C8          0.0725    1.0239   -2.8490 C.3       1 <0>        -0.0501
      9 S1         -0.8901    1.6867   -1.4616 S.3       1 <0>        -0.2206
     10 C9         -0.0127    1.0858    0.0080 C.3       1 <0>        -0.1126
     11 C10        -0.7288    1.5792    1.2668 C.3       1 <0>        -0.1111
     12 C11         0.0111    1.0724    2.5063 C.3       1 <0>        -0.0032
     13 H1          0.1380   -0.0196    2.4698 H         1 <0>         0.1343
     14 C12        -0.7607    1.4538    3.7432 C.2       1 <0>         0.4546
     15 O1         -0.4228    2.4141    4.3940 O.co2     1 <0>        -0.6163
     16 O2         -1.8237    0.7269    4.1217 O.co2     1 <0>        -0.7020
     17 N1          1.3494    1.6761    2.5587 N.4       1 <0>        -0.6668
     18 H2          1.0604    4.3929   -4.7143 H         1 <0>         0.0681
     19 H3          1.8209    2.9275   -4.0066 H         1 <0>         0.0676
     20 H4          0.5447    3.8054   -3.0971 H         1 <0>         0.0774
     21 H5         -0.4413    3.9595   -6.4049 H         1 <0>         0.1250
     22 H6         -2.1625    2.5536   -7.4648 H         1 <0>         0.1250
     23 H7         -2.8555    0.4436   -6.4009 H         1 <0>         0.1256
     24 H8         -1.8206   -0.2647   -4.2821 H         1 <0>         0.1246
     25 H9          0.0856   -0.0747   -2.7945 H         1 <0>         0.0912
     26 H10         1.1027    1.4060   -2.7962 H         1 <0>         0.0919
     27 H11         0.0022   -0.0141    0.0019 H         1 <0>         0.0938
     28 H12         1.0193    1.4665    0.0002 H         1 <0>         0.0718
     29 H13        -0.7437    2.6791    1.2728 H         1 <0>         0.0930
     30 H14        -1.7608    1.1985    1.2746 H         1 <0>         0.1196
     31 H15         1.8814    1.3117    3.4499 H         1 <0>         0.4539
     32 H16         1.2560    2.7710    2.6095 H         1 <0>         0.4534
     33 H17         1.9128    1.3976    1.6559 H         1 <0>         0.4314
@<TRIPOS>BOND
     1    1    2 1
     2    1   18 1
     3    1   19 1
     4    1   20 1
     5    2    7 ar
     6    2    3 ar
     7    3    4 ar
     8    3   21 1
     9    4    5 ar
    10    4   22 1
    11    5    6 ar
    12    5   23 1
    13    6    7 ar
    14    6   24 1
    15    7    8 1
    16    8    9 1
    17    8   25 1
    18    8   26 1
    19    9   10 1
    20   10   11 1
    21   10   27 1
    22   10   28 1
    23   11   12 1
    24   11   29 1
    25   11   30 1
    26   12   13 1
    27   12   14 1
    28   12   17 1
    29   14   15 2
    30   14   16 1
    31   17   31 1
    32   17   32 1
    33   17   33 1
@<TRIPOS>MOLECULE
ZINC28570577
   33    33     0     0     0
SMALL
USER_CHARGES
(2S)-2-amino-4-(o-tolylmethylsulfanyl)butanoic acid
@<TRIPOS>ATOM
      1 C1          3.2882    5.7582    2.5038 C.3       1 <0>        -0.1245
      2 C2          3.3373    6.5162    1.2022 C.ar      1 <0>        -0.0632
      3 C3          3.4509    7.8940    1.2085 C.ar      1 <0>        -0.1209
      4 C4          3.4964    8.5892    0.0148 C.ar      1 <0>        -0.1064
      5 C5          3.4284    7.9066   -1.1856 C.ar      1 <0>        -0.1264
      6 C6          3.3202    6.5288   -1.1920 C.ar      1 <0>        -0.0963
      7 C7          3.2694    5.8338    0.0022 C.ar      1 <0>        -0.0840
      8 C8          3.1460    4.3319   -0.0047 C.3       1 <0>        -0.0500
      9 S1          1.3921    3.8692    0.0095 S.3       1 <0>        -0.2207
     10 C9          1.4167    2.0553   -0.0004 C.3       1 <0>        -0.1126
     11 C10        -0.0187    1.5258    0.0104 C.3       1 <0>        -0.1111
     12 C11         0.0021   -0.0041    0.0020 C.3       1 <0>        -0.0032
     13 H1          0.6228   -0.3941    0.8221 H         1 <0>         0.1343
     14 C12        -1.4051   -0.5263    0.1365 C.2       1 <0>         0.4546
     15 O1         -2.0063   -0.9018   -0.8420 O.co2     1 <0>        -0.6163
     16 O2         -1.9907   -0.5743    1.3433 O.co2     1 <0>        -0.7021
     17 N1          0.5820   -0.4790   -1.2614 N.4       1 <0>        -0.6668
     18 H2          3.3546    6.4661    3.3431 H         1 <0>         0.0687
     19 H3          4.1322    5.0543    2.5502 H         1 <0>         0.0687
     20 H4          2.3420    5.2009    2.5681 H         1 <0>         0.0799
     21 H5          3.5044    8.4272    2.1462 H         1 <0>         0.1256
     22 H6          3.5855    9.6655    0.0197 H         1 <0>         0.1250
     23 H7          3.4644    8.4498   -2.1184 H         1 <0>         0.1249
     24 H8          3.2715    5.9952   -2.1297 H         1 <0>         0.1229
     25 H9          3.6242    3.9289   -0.9096 H         1 <0>         0.0890
     26 H10         3.6413    3.9192    0.8865 H         1 <0>         0.0940
     27 H11         1.9316    1.7005   -0.9054 H         1 <0>         0.0718
     28 H12         1.9487    1.6909    0.8908 H         1 <0>         0.0938
     29 H13        -0.5336    1.8806    0.9154 H         1 <0>         0.1196
     30 H14        -0.5507    1.8902   -0.8808 H         1 <0>         0.0930
     31 H15         0.5969   -1.5789   -1.2674 H         1 <0>         0.4538
     32 H16         1.6092   -0.0978   -1.3596 H         1 <0>         0.4315
     33 H17        -0.0259   -0.1159   -2.1032 H         1 <0>         0.4534
@<TRIPOS>BOND
     1    1    2 1
     2    1   18 1
     3    1   19 1
     4    1   20 1
     5    2    7 ar
     6    2    3 ar
     7    3    4 ar
     8    3   21 1
     9    4    5 ar
    10    4   22 1
    11    5    6 ar
    12    5   23 1
    13    6    7 ar
    14    6   24 1
    15    7    8 1
    16    8    9 1
    17    8   25 1
    18    8   26 1
    19    9   10 1
    20   10   11 1
    21   10   27 1
    22   10   28 1
    23   11   12 1
    24   11   29 1
    25   11   30 1
    26   12   13 1
    27   12   14 1
    28   12   17 1
    29   14   15 2
    30   14   16 1
    31   17   31 1
    32   17   32 1
    33   17   33 1
@<TRIPOS>MOLECULE
ZINC28570383
   30    30     0     0     0
SMALL
USER_CHARGES
(2S)-2-amino-4-[(4-bromophenyl)methylsulfanyl]butanoic acid
@<TRIPOS>ATOM
      1 C1          1.4226    8.5848   -4.9860 C.ar      1 <0>        -0.0944
      2 C2          1.2050    9.1779   -6.2153 C.ar      1 <0>        -0.0902
      3 C3         -0.0865    9.4234   -6.6456 C.ar      1 <0>        -0.0833
      4 C4         -1.1598    9.0704   -5.8476 C.ar      1 <0>        -0.0892
      5 C5         -0.9414    8.4726   -4.6207 C.ar      1 <0>        -0.0931
      6 C6          0.3495    8.2274   -4.1911 C.ar      1 <0>        -0.0649
      7 C7          0.5872    7.5760   -2.8531 C.3       1 <0>        -0.0541
      8 S1          0.6368    5.7743   -3.0580 S.3       1 <0>        -0.2184
      9 C8          0.9262    5.1496   -1.3798 C.3       1 <0>        -0.1117
     10 C9          0.9909    3.6212   -1.4086 C.3       1 <0>        -0.1117
     11 C10         1.2350    3.0943    0.0069 C.3       1 <0>        -0.0031
     12 H1          0.4874    3.4915    0.7093 H         1 <0>         0.1346
     13 C11         1.1765    1.5884   -0.0006 C.2       1 <0>         0.4544
     14 O1          2.1986    0.9442   -0.0139 O.co2     1 <0>        -0.6160
     15 O2         -0.0110    0.9628    0.0073 O.co2     1 <0>        -0.7018
     16 N1          2.5589    3.5306    0.4703 N.4       1 <0>        -0.6669
     17 Br1        -0.3847   10.2408   -8.3246 Br        1 <0>        -0.0439
     18 H2          2.4310    8.3968   -4.6481 H         1 <0>         0.1336
     19 H3          2.0433    9.4530   -6.8382 H         1 <0>         0.1367
     20 H4         -2.1683    9.2616   -6.1834 H         1 <0>         0.1373
     21 H5         -1.7793    8.1967   -3.9978 H         1 <0>         0.1352
     22 H6          1.5455    7.9246   -2.4407 H         1 <0>         0.0941
     23 H7         -0.2276    7.8444   -2.1646 H         1 <0>         0.0963
     24 H8          1.8773    5.5497   -0.9986 H         1 <0>         0.0729
     25 H9          0.1041    5.4695   -0.7226 H         1 <0>         0.0949
     26 H10         0.0398    3.2211   -1.7899 H         1 <0>         0.1200
     27 H11         1.8130    3.3013   -2.0658 H         1 <0>         0.0934
     28 H12         2.7343    3.1518    1.4880 H         1 <0>         0.4542
     29 H13         2.6016    4.6298    0.4758 H         1 <0>         0.4313
     30 H14         3.3321    3.1370   -0.2059 H         1 <0>         0.4535
@<TRIPOS>BOND
     1    1    6 ar
     2    1    2 ar
     3    1   18 1
     4    2    3 ar
     5    2   19 1
     6    3    4 ar
     7    3   17 1
     8    4    5 ar
     9    4   20 1
    10    5    6 ar
    11    5   21 1
    12    6    7 1
    13    7    8 1
    14    7   22 1
    15    7   23 1
    16    8    9 1
    17    9   10 1
    18    9   24 1
    19    9   25 1
    20   10   11 1
    21   10   26 1
    22   10   27 1
    23   11   12 1
    24   11   13 1
    25   11   16 1
    26   13   14 2
    27   13   15 1
    28   16   28 1
    29   16   29 1
    30   16   30 1
@<TRIPOS>MOLECULE
ZINC28570384
   30    30     0     0     0
SMALL
USER_CHARGES
(2R)-2-amino-4-[(4-bromophenyl)methylsulfanyl]butanoic acid
@<TRIPOS>ATOM
      1 C1         -4.8112    6.5791   -4.6140 C.ar      1 <0>        -0.0931
      2 C2         -5.2095    7.0682   -5.8439 C.ar      1 <0>        -0.0892
      3 C3         -6.0742    6.3320   -6.6336 C.ar      1 <0>        -0.0833
      4 C4         -6.5358    5.1043   -6.1944 C.ar      1 <0>        -0.0902
      5 C5         -6.1329    4.6136   -4.9666 C.ar      1 <0>        -0.0944
      6 C6         -5.2686    5.3497   -4.1777 C.ar      1 <0>        -0.0649
      7 C7         -4.8300    4.8145   -2.8390 C.3       1 <0>        -0.0541
      8 S1         -3.3198    3.8312   -3.0463 S.3       1 <0>        -0.2184
      9 C8         -2.9291    3.2676   -1.3669 C.3       1 <0>        -0.1116
     10 C9         -1.6590    2.4150   -1.3976 C.3       1 <0>        -0.1116
     11 C10        -1.3295    1.9397    0.0189 C.3       1 <0>        -0.0031
     12 H1         -1.2747    2.7885    0.7164 H         1 <0>         0.1345
     13 C11        -0.0143    1.2041    0.0087 C.2       1 <0>         0.4543
     14 O1          0.0021   -0.0041    0.0020 O.co2     1 <0>        -0.6160
     15 O2          1.1389    1.8910    0.0013 O.co2     1 <0>        -0.7017
     16 N1         -2.3900    1.0404    0.4927 N.4       1 <0>        -0.6669
     17 Br1        -6.6247    7.0035   -8.3135 Br        1 <0>        -0.0439
     18 H2         -4.1393    7.1557   -3.9955 H         1 <0>         0.1352
     19 H3         -4.8485    8.0266   -6.1866 H         1 <0>         0.1373
     20 H4         -7.2107    4.5290   -6.8108 H         1 <0>         0.1367
     21 H5         -6.4930    3.6549   -4.6238 H         1 <0>         0.1336
     22 H6         -4.6304    5.6535   -2.1562 H         1 <0>         0.0963
     23 H7         -5.6252    4.1811   -2.4189 H         1 <0>         0.0942
     24 H8         -2.7698    4.1394   -0.7153 H         1 <0>         0.0949
     25 H9         -3.7646    2.6670   -0.9780 H         1 <0>         0.0729
     26 H10        -1.8183    1.5432   -2.0492 H         1 <0>         0.0934
     27 H11        -0.8235    3.0156   -1.7865 H         1 <0>         0.1201
     28 H12        -2.1531    0.6987    1.5111 H         1 <0>         0.4542
     29 H13        -2.4610    0.1717   -0.1783 H         1 <0>         0.4535
     30 H14        -3.3500    1.5774    0.5001 H         1 <0>         0.4313
@<TRIPOS>BOND
     1    1    6 ar
     2    1    2 ar
     3    1   18 1
     4    2    3 ar
     5    2   19 1
     6    3    4 ar
     7    3   17 1
     8    4    5 ar
     9    4   20 1
    10    5    6 ar
    11    5   21 1
    12    6    7 1
    13    7    8 1
    14    7   22 1
    15    7   23 1
    16    8    9 1
    17    9   10 1
    18    9   24 1
    19    9   25 1
    20   10   11 1
    21   10   26 1
    22   10   27 1
    23   11   12 1
    24   11   13 1
    25   11   16 1
    26   13   14 2
    27   13   15 1
    28   16   28 1
    29   16   29 1
    30   16   30 1
@<TRIPOS>MOLECULE
ZINC08075874
   26    26     0     0     0
SMALL
USER_CHARGES
(2S)-2-amino-4-phenyl-butanoic acid
@<TRIPOS>ATOM
      1 C1         -4.0053   -1.4830    0.0323 C.ar      1 <0>        -0.1184
      2 C2         -3.3683   -1.2374   -1.1696 C.ar      1 <0>        -0.1153
      3 C3         -2.0716   -0.7585   -1.1795 C.ar      1 <0>        -0.1122
      4 C4         -1.4117   -0.5257    0.0127 C.ar      1 <0>        -0.0914
      5 C5         -2.0468   -0.7767    1.2146 C.ar      1 <0>        -0.1182
      6 C6         -3.3455   -1.2502    1.2245 C.ar      1 <0>        -0.1177
      7 C7          0.0021   -0.0041    0.0020 C.3       1 <0>        -0.0887
      8 C8         -0.0187    1.5258    0.0104 C.3       1 <0>        -0.1211
      9 C9          1.4167    2.0553   -0.0004 C.3       1 <0>        -0.0172
     10 H1          1.9535    1.6326   -0.8497 H         1 <0>         0.1393
     11 C10         1.3970    3.5578   -0.1160 C.2       1 <0>         0.4532
     12 O1          1.5494    4.2415    0.8685 O.co2     1 <0>        -0.6171
     13 H2         -5.0187   -1.8564    0.0400 H         1 <0>         0.1237
     14 H3         -3.8838   -1.4192   -2.1011 H         1 <0>         0.1250
     15 H4         -1.5739   -0.5666   -2.1185 H         1 <0>         0.1247
     16 H5         -1.5297   -0.5990    2.1460 H         1 <0>         0.1191
     17 H6         -3.8433   -1.4417    2.1636 H         1 <0>         0.1235
     18 H7          0.5123   -0.3556   -0.8948 H         1 <0>         0.0853
     19 H8          0.5293   -0.3651    0.8851 H         1 <0>         0.0640
     20 H9         -0.5459    1.8868   -0.8726 H         1 <0>         0.1133
     21 H10        -0.5289    1.8773    0.9072 H         1 <0>         0.0844
     22 H11         1.6117    2.0489    2.0490 H         1 <0>         0.4343
     23 H12         2.1741    0.6659    1.3164 H         1 <0>         0.4184
     24 O2          1.2100    4.1365   -1.3126 O.co2     1 <0>        -0.7014
     25 N1          2.1131    1.6800    1.2427 N.4       1 <0>        -0.6266
     26 H13         3.0618    2.0726    1.2299 H         1 <0>         0.4369
@<TRIPOS>BOND
     1    1    6 ar
     2    1    2 ar
     3    1   13 1
     4    2    3 ar
     5    2   14 1
     6    3    4 ar
     7    3   15 1
     8    4    5 ar
     9    4    7 1
    10    5    6 ar
    11    5   16 1
    12    6   17 1
    13    7    8 1
    14    7   18 1
    15    7   19 1
    16    8    9 1
    17    8   20 1
    18    8   21 1
    19    9   10 1
    20    9   11 1
    21    9   25 1
    22   11   12 2
    23   11   24 1
    24   22   25 1
    25   23   25 1
    26   25   26 1
@<TRIPOS>MOLECULE
ZINC08075875
   26    26     0     0     0
SMALL
USER_CHARGES
(2R)-2-amino-4-phenyl-butanoic acid
@<TRIPOS>ATOM
      1 C1          0.3473    6.5635    5.4010 C.ar      1 <0>        -0.1182
      2 C2          1.6303    6.3840    4.9188 C.ar      1 <0>        -0.1176
      3 C3          1.8263    5.9213    3.6310 C.ar      1 <0>        -0.1182
      4 C4          0.7393    5.6385    2.8252 C.ar      1 <0>        -0.0915
      5 C5         -0.5437    5.8234    3.3055 C.ar      1 <0>        -0.1119
      6 C6         -0.7398    6.2807    4.5952 C.ar      1 <0>        -0.1152
      7 C7          0.9530    5.1345    1.4212 C.3       1 <0>        -0.0891
      8 C8          1.0180    3.6060    1.4324 C.3       1 <0>        -0.1248
      9 C9          1.2350    3.0943    0.0069 C.3       1 <0>        -0.0165
     10 H1          0.4562    3.4914   -0.6442 H         1 <0>         0.1392
     11 C10         1.1765    1.5884   -0.0006 C.2       1 <0>         0.4560
     12 O1          2.1986    0.9442   -0.0139 O.co2     1 <0>        -0.6164
     13 H2          0.1941    6.9243    6.4073 H         1 <0>         0.1238
     14 H3          2.4796    6.6050    5.5483 H         1 <0>         0.1236
     15 H4          2.8287    5.7811    3.2543 H         1 <0>         0.1192
     16 H5         -1.3930    5.6067    2.6744 H         1 <0>         0.1248
     17 H6         -1.7422    6.4206    4.9720 H         1 <0>         0.1251
     18 H7          1.8880    5.5352    1.0297 H         1 <0>         0.0636
     19 H8          0.1261    5.4584    0.7891 H         1 <0>         0.0861
     20 H9          0.0830    3.2053    1.8238 H         1 <0>         0.1134
     21 H10         1.8449    3.2821    2.0644 H         1 <0>         0.0849
     22 H11         3.2893    3.1803    0.1103 H         1 <0>         0.4346
     23 H12         2.6906    3.2654   -1.4389 H         1 <0>         0.4338
     24 O2         -0.0110    0.9628    0.0073 O.co2     1 <0>        -0.7014
     25 N1          2.5472    3.5608   -0.4746 N.4       1 <0>        -0.6272
     26 H13         2.5780    4.5861   -0.4302 H         1 <0>         0.4197
@<TRIPOS>BOND
     1    1    6 ar
     2    1    2 ar
     3    1   13 1
     4    2    3 ar
     5    2   14 1
     6    3    4 ar
     7    3   15 1
     8    4    5 ar
     9    4    7 1
    10    5    6 ar
    11    5   16 1
    12    6   17 1
    13    7    8 1
    14    7   18 1
    15    7   19 1
    16    8    9 1
    17    8   20 1
    18    8   21 1
    19    9   10 1
    20    9   11 1
    21    9   25 1
    22   11   12 2
    23   11   24 1
    24   22   25 1
    25   23   25 1
    26   25   26 1
@<TRIPOS>MOLECULE
ZINC02382036
   20    20     0     0     0
SMALL
USER_CHARGES
(2S)-2-amino-2-(3-chloro-4-fluoro-phenyl)acetic acid
@<TRIPOS>ATOM
      1 C1         -0.0126    1.0758    0.0080 C.ar      1 <0>        -0.0471
      2 C2          1.1754    1.7827    0.0004 C.ar      1 <0>        -0.1330
      3 C3          1.1569    3.1666    0.0076 C.ar      1 <0>         0.1262
      4 C4         -0.0532    3.8421    0.0223 C.ar      1 <0>        -0.0698
      5 C5         -1.2399    3.1324    0.0298 C.ar      1 <0>        -0.0837
      6 C6         -1.2191    1.7501    0.0173 C.ar      1 <0>        -0.1062
      7 C7         -2.5131    0.9776    0.0197 C.3       1 <0>         0.0300
      8 H1         -2.3319   -0.0360   -0.3378 H         1 <0>         0.1523
      9 C8         -3.0640    0.9249    1.4214 C.2       1 <0>         0.4580
     10 O1         -3.9479    1.6795    1.7520 O.co2     1 <0>        -0.6088
     11 Cl1        -0.0789    5.5779    0.0307 Cl        1 <0>        -0.0344
     12 F1          2.3174    3.8583    0.0006 F         1 <0>        -0.1181
     13 H2          0.0021   -0.0041    0.0020 H         1 <0>         0.1525
     14 H3          2.1177    1.2552   -0.0107 H         1 <0>         0.1564
     15 H4         -2.1833    3.6581    0.0413 H         1 <0>         0.1419
     16 H5         -3.6667    2.5842   -0.5518 H         1 <0>         0.4331
     17 H6         -3.1642    1.6330   -1.8201 H         1 <0>         0.4250
     18 O2         -2.5728    0.0396    2.3027 O.co2     1 <0>        -0.6909
     19 N1         -3.5017    1.6271   -0.8590 N.4       1 <0>        -0.6255
     20 H7         -4.3849    1.1050   -0.8173 H         1 <0>         0.4423
@<TRIPOS>BOND
     1    1    6 ar
     2    1    2 ar
     3    1   13 1
     4    2    3 ar
     5    2   14 1
     6    3    4 ar
     7    3   12 1
     8    4    5 ar
     9    4   11 1
    10    5    6 ar
    11    5   15 1
    12    6    7 1
    13    7    8 1
    14    7    9 1
    15    7   19 1
    16    9   10 2
    17    9   18 1
    18   16   19 1
    19   17   19 1
    20   19   20 1
@<TRIPOS>MOLECULE
ZINC04242536
   20    20     0     0     0
SMALL
USER_CHARGES
(2R)-2-amino-2-(3-chloro-4-fluoro-phenyl)acetic acid
@<TRIPOS>ATOM
      1 C1         -0.0585    4.4981    0.0258 C.ar      1 <0>        -0.0868
      2 C2         -1.2473    3.7927    0.0329 C.ar      1 <0>        -0.1319
      3 C3         -1.2307    2.4088    0.0210 C.ar      1 <0>         0.1260
      4 C4         -0.0215    1.7317    0.0116 C.ar      1 <0>        -0.0700
      5 C5          1.1662    2.4399    0.0040 C.ar      1 <0>        -0.0453
      6 C6          1.1472    3.8223    0.0112 C.ar      1 <0>        -0.1098
      7 C7          2.4421    4.5931    0.0024 C.3       1 <0>         0.0306
      8 H1          3.2448    3.9509   -0.3601 H         1 <0>         0.1505
      9 C8          2.7612    5.0550    1.4010 C.2       1 <0>         0.4610
     10 O1          2.5204    6.1920    1.7314 O.co2     1 <0>        -0.6091
     11 Cl1         0.0021   -0.0041    0.0020 Cl        1 <0>        -0.0314
     12 F1         -2.3921    1.7186    0.0227 F         1 <0>        -0.1181
     13 H2         -0.0717    5.5780    0.0314 H         1 <0>         0.1394
     14 H3         -2.1890    4.3214    0.0440 H         1 <0>         0.1547
     15 H4          2.1089    1.9130   -0.0071 H         1 <0>         0.1552
     16 H5          1.5734    6.3710   -0.5656 H         1 <0>         0.4335
     17 H6          3.1864    6.2571   -0.9543 H         1 <0>         0.4392
     18 O2          3.3129    4.2033    2.2796 O.co2     1 <0>        -0.6901
     19 N1          2.3056    5.7481   -0.9024 N.4       1 <0>        -0.6245
     20 H7          2.0559    5.4141   -1.8407 H         1 <0>         0.4268
@<TRIPOS>BOND
     1    1    6 ar
     2    1    2 ar
     3    1   13 1
     4    2    3 ar
     5    2   14 1
     6    3    4 ar
     7    3   12 1
     8    4    5 ar
     9    4   11 1
    10    5    6 ar
    11    5   15 1
    12    6    7 1
    13    7    8 1
    14    7    9 1
    15    7   19 1
    16    9   10 2
    17    9   18 1
    18   16   19 1
    19   17   19 1
    20   19   20 1
@<TRIPOS>MOLECULE
ZINC08461952
   23    23     0     0     0
SMALL
USER_CHARGES
(2S)-2-amino-2-phenyl-propanoic acid
@<TRIPOS>ATOM
      1 C1         -0.0127    1.0858    0.0080 C.3       1 <0>        -0.1594
      2 C2         -0.7288    1.5792    1.2668 C.3       1 <0>         0.0568
      3 C3         -0.7493    3.0861    1.2751 C.ar      1 <0>        -0.0878
      4 C4          0.2751    3.7945    0.6755 C.ar      1 <0>        -0.0817
      5 C5          0.2542    5.1767    0.6792 C.ar      1 <0>        -0.1088
      6 C6         -0.7866    5.8505    1.2906 C.ar      1 <0>        -0.1096
      7 C7         -1.8083    5.1420    1.8948 C.ar      1 <0>        -0.1085
      8 C8         -1.7896    3.7598    1.8873 C.ar      1 <0>        -0.1301
      9 C9          0.0000    1.0800    2.4877 C.2       1 <0>         0.4587
     10 O1          0.8215    1.7810    3.0296 O.co2     1 <0>        -0.5656
     11 H1          0.0021   -0.0041    0.0020 H         1 <0>         0.0854
     12 H2          1.0099    1.4631    0.0003 H         1 <0>         0.1010
     13 H3         -0.5399    1.4469   -0.8751 H         1 <0>         0.0760
     14 H4          1.0902    3.2681    0.2011 H         1 <0>         0.1308
     15 H5          1.0523    5.7302    0.2069 H         1 <0>         0.1306
     16 H6         -0.8016    6.9304    1.2959 H         1 <0>         0.1284
     17 H7         -2.6214    5.6684    2.3725 H         1 <0>         0.1287
     18 H8         -2.5878    3.2064    2.3593 H         1 <0>         0.1134
     19 H9         -2.6014    1.3831    2.0995 H         1 <0>         0.4286
     20 H10        -2.5975    1.3382    0.4370 H         1 <0>         0.4189
     21 O2         -0.2634   -0.1434    2.9732 O.co2     1 <0>        -0.7305
     22 N1         -2.1024    1.0459    1.2779 N.4       1 <0>        -0.6200
     23 H11        -2.0660    0.0201    1.3057 H         1 <0>         0.4446
@<TRIPOS>BOND
     1    1    2 1
     2    1   11 1
     3    1   12 1
     4    1   13 1
     5    2    3 1
     6    2    9 1
     7    2   22 1
     8    3    8 ar
     9    3    4 ar
    10    4    5 ar
    11    4   14 1
    12    5    6 ar
    13    5   15 1
    14    6    7 ar
    15    6   16 1
    16    7    8 ar
    17    7   17 1
    18    8   18 1
    19    9   10 2
    20    9   21 1
    21   19   22 1
    22   20   22 1
    23   22   23 1
@<TRIPOS>MOLECULE
ZINC08462000
   23    23     0     0     0
SMALL
USER_CHARGES
(2R)-2-amino-2-phenyl-propanoic acid
@<TRIPOS>ATOM
      1 C1         -3.6011    3.0237    0.7724 C.3       1 <0>        -0.1598
      2 C2         -2.5528    3.8685    0.0455 C.3       1 <0>         0.0583
      3 C3         -1.2377    3.1328    0.0299 C.ar      1 <0>        -0.0917
      4 C4         -1.2190    1.7507    0.0173 C.ar      1 <0>        -0.0813
      5 C5         -0.0126    1.0758    0.0080 C.ar      1 <0>        -0.1087
      6 C6          1.1750    1.7832    0.0004 C.ar      1 <0>        -0.1092
      7 C7          1.1563    3.1654    0.0076 C.ar      1 <0>        -0.1082
      8 C8         -0.0501    3.8402    0.0223 C.ar      1 <0>        -0.1310
      9 C9         -3.0043    4.1205   -1.3700 C.2       1 <0>         0.4610
     10 O1         -2.6238    3.4006   -2.2627 O.co2     1 <0>        -0.5664
     11 H1         -3.2746    2.8415    1.7962 H         1 <0>         0.0757
     12 H2         -4.5524    3.5558    0.7837 H         1 <0>         0.0858
     13 H3         -3.7233    2.0721    0.2551 H         1 <0>         0.1010
     14 H4         -2.1469    1.1980    0.0188 H         1 <0>         0.1309
     15 H5          0.0021   -0.0041    0.0020 H         1 <0>         0.1306
     16 H6          2.1175    1.2560   -0.0115 H         1 <0>         0.1284
     17 H7          2.0841    3.7181    0.0014 H         1 <0>         0.1288
     18 H8         -0.0647    4.9201    0.0276 H         1 <0>         0.1137
     19 H9         -1.7005    5.7276    0.2815 H         1 <0>         0.4296
     20 H10        -3.2702    5.6346    0.8231 H         1 <0>         0.4410
     21 O2         -3.8291    5.1447   -1.6392 O.co2     1 <0>        -0.7299
     22 N1         -2.3800    5.1427    0.7651 N.4       1 <0>        -0.6196
     23 H11        -2.0409    4.9506    1.7150 H         1 <0>         0.4211
@<TRIPOS>BOND
     1    1    2 1
     2    1   11 1
     3    1   12 1
     4    1   13 1
     5    2    3 1
     6    2    9 1
     7    2   22 1
     8    3    8 ar
     9    3    4 ar
    10    4    5 ar
    11    4   14 1
    12    5    6 ar
    13    5   15 1
    14    6    7 ar
    15    6   16 1
    16    7    8 ar
    17    7   17 1
    18    8   18 1
    19    9   10 2
    20    9   21 1
    21   19   22 1
    22   20   22 1
    23   22   23 1
@<TRIPOS>MOLECULE
ZINC28570368
   40    41     0     0     0
SMALL
USER_CHARGES
(2S)-2-amino-4-[(4-phenylphenyl)methylsulfanyl]butanoic acid
@<TRIPOS>ATOM
      1 C1         -1.2365    3.1339    0.0297 C.ar      1 <0>        -0.1160
      2 C2         -1.2164    1.7509    0.0173 C.ar      1 <0>        -0.1178
      3 C3         -0.0126    1.0758    0.0080 C.ar      1 <0>        -0.1092
      4 C4          1.1837    1.7901    0.0004 C.ar      1 <0>        -0.0515
      5 C5          1.1575    3.1832    0.0076 C.ar      1 <0>        -0.1089
      6 C6         -0.0519    3.8480    0.0223 C.ar      1 <0>        -0.1174
      7 C7          2.4810    1.0698   -0.0149 C.ar      1 <0>        -0.0336
      8 C8          2.5073   -0.3233   -0.0158 C.ar      1 <0>        -0.1111
      9 C9          3.7167   -0.9881   -0.0349 C.ar      1 <0>        -0.0955
     10 C10         4.9013   -0.2739   -0.0419 C.ar      1 <0>        -0.0801
     11 C11         4.8811    1.1091   -0.0362 C.ar      1 <0>        -0.0943
     12 C12         3.6774    1.7842   -0.0225 C.ar      1 <0>        -0.1101
     13 C13         6.2188   -1.0054   -0.0564 C.3       1 <0>        -0.0498
     14 S1          6.7624   -1.3058    1.6480 S.3       1 <0>        -0.2222
     15 C14         8.3395   -2.1816    1.4577 C.3       1 <0>        -0.1120
     16 C15         8.9157   -2.5004    2.8388 C.3       1 <0>        -0.1113
     17 C16        10.2460   -3.2391    2.6783 C.3       1 <0>        -0.0031
     18 H1         10.9345   -2.6747    2.0322 H         1 <0>         0.1344
     19 C17        10.8731   -3.4445    4.0331 C.2       1 <0>         0.4546
     20 O1         10.7753   -4.5132    4.5883 O.co2     1 <0>        -0.6163
     21 O2         11.5404   -2.4403    4.6230 O.co2     1 <0>        -0.7020
     22 N1         10.0085   -4.5435    2.0457 N.4       1 <0>        -0.6668
     23 H2         -2.1807    3.6581    0.0408 H         1 <0>         0.1242
     24 H3         -2.1443    1.1982    0.0191 H         1 <0>         0.1255
     25 H4          0.0021   -0.0041    0.0020 H         1 <0>         0.1253
     26 H5          2.0818    3.7418    0.0014 H         1 <0>         0.1258
     27 H6         -0.0735    4.9278    0.0275 H         1 <0>         0.1257
     28 H7          1.5831   -0.8818   -0.0055 H         1 <0>         0.1287
     29 H8          3.7383   -2.0678   -0.0398 H         1 <0>         0.1260
     30 H9          5.8090    1.6618   -0.0421 H         1 <0>         0.1276
     31 H10         3.6627    2.8640   -0.0173 H         1 <0>         0.1293
     32 H11         6.0988   -1.9665   -0.5778 H         1 <0>         0.0910
     33 H12         6.9708   -0.3961   -0.5791 H         1 <0>         0.0932
     34 H13         8.1745   -3.1178    0.9042 H         1 <0>         0.0721
     35 H14         9.0465   -1.5473    0.9029 H         1 <0>         0.0940
     36 H15         9.0806   -1.5642    3.3923 H         1 <0>         0.1197
     37 H16         8.2087   -3.1347    3.3936 H         1 <0>         0.0931
     38 H17        10.9649   -5.0746    1.9303 H         1 <0>         0.4539
     39 H18         9.5507   -4.3935    1.0568 H         1 <0>         0.4314
     40 H19         9.3321   -5.1391    2.6763 H         1 <0>         0.4534
@<TRIPOS>BOND
     1    1    6 ar
     2    1    2 ar
     3    1   23 1
     4    2    3 ar
     5    2   24 1
     6    3    4 ar
     7    3   25 1
     8    4    5 ar
     9    4    7 1
    10    5    6 ar
    11    5   26 1
    12    6   27 1
    13    7   12 ar
    14    7    8 ar
    15    8    9 ar
    16    8   28 1
    17    9   10 ar
    18    9   29 1
    19   10   11 ar
    20   10   13 1
    21   11   12 ar
    22   11   30 1
    23   12   31 1
    24   13   14 1
    25   13   32 1
    26   13   33 1
    27   14   15 1
    28   15   16 1
    29   15   34 1
    30   15   35 1
    31   16   17 1
    32   16   36 1
    33   16   37 1
    34   17   18 1
    35   17   19 1
    36   17   22 1
    37   19   20 2
    38   19   21 1
    39   22   38 1
    40   22   39 1
    41   22   40 1
@<TRIPOS>MOLECULE
ZINC28570369
   40    41     0     0     0
SMALL
USER_CHARGES
(2R)-2-amino-4-[(4-phenylphenyl)methylsulfanyl]butanoic acid
@<TRIPOS>ATOM
      1 C1         -1.2365    3.1339    0.0297 C.ar      1 <0>        -0.1160
      2 C2         -1.2164    1.7509    0.0173 C.ar      1 <0>        -0.1174
      3 C3         -0.0126    1.0758    0.0080 C.ar      1 <0>        -0.1089
      4 C4          1.1837    1.7901    0.0004 C.ar      1 <0>        -0.0515
      5 C5          1.1575    3.1832    0.0076 C.ar      1 <0>        -0.1092
      6 C6         -0.0519    3.8480    0.0223 C.ar      1 <0>        -0.1178
      7 C7          2.4810    1.0698   -0.0149 C.ar      1 <0>        -0.0336
      8 C8          2.5073   -0.3233   -0.0158 C.ar      1 <0>        -0.1101
      9 C9          3.7167   -0.9881   -0.0349 C.ar      1 <0>        -0.0943
     10 C10         4.9013   -0.2739   -0.0419 C.ar      1 <0>        -0.0801
     11 C11         4.8811    1.1091   -0.0362 C.ar      1 <0>        -0.0955
     12 C12         3.6774    1.7842   -0.0225 C.ar      1 <0>        -0.1111
     13 C13         6.2188   -1.0054   -0.0564 C.3       1 <0>        -0.0498
     14 S1          6.7624   -1.3058    1.6480 S.3       1 <0>        -0.2222
     15 C14         8.3395   -2.1816    1.4577 C.3       1 <0>        -0.1120
     16 C15         8.9157   -2.5004    2.8388 C.3       1 <0>        -0.1113
     17 C16        10.2460   -3.2391    2.6783 C.3       1 <0>        -0.0032
     18 H1         10.1306   -4.1227    2.0334 H         1 <0>         0.1344
     19 C17        10.7529   -3.6610    4.0333 C.2       1 <0>         0.4546
     20 O1         11.6086   -3.0123    4.5871 O.co2     1 <0>        -0.6162
     21 O2         10.2537   -4.7576    4.6249 O.co2     1 <0>        -0.7021
     22 N1         11.2271   -2.3486    2.0439 N.4       1 <0>        -0.6668
     23 H2         -2.1807    3.6581    0.0408 H         1 <0>         0.1242
     24 H3         -2.1443    1.1982    0.0191 H         1 <0>         0.1257
     25 H4          0.0021   -0.0041    0.0020 H         1 <0>         0.1258
     26 H5          2.0818    3.7418    0.0014 H         1 <0>         0.1253
     27 H6         -0.0735    4.9278    0.0275 H         1 <0>         0.1255
     28 H7          1.5831   -0.8818   -0.0055 H         1 <0>         0.1292
     29 H8          3.7383   -2.0678   -0.0398 H         1 <0>         0.1276
     30 H9          5.8090    1.6618   -0.0421 H         1 <0>         0.1260
     31 H10         3.6627    2.8640   -0.0173 H         1 <0>         0.1287
     32 H11         6.0988   -1.9665   -0.5778 H         1 <0>         0.0932
     33 H12         6.9708   -0.3961   -0.5791 H         1 <0>         0.0910
     34 H13         8.1745   -3.1178    0.9042 H         1 <0>         0.0940
     35 H14         9.0465   -1.5473    0.9029 H         1 <0>         0.0721
     36 H15         9.0806   -1.5642    3.3923 H         1 <0>         0.0931
     37 H16         8.2087   -3.1347    3.3936 H         1 <0>         0.1197
     38 H17        12.1835   -2.8797    1.9285 H         1 <0>         0.4539
     39 H18        11.3754   -1.4587    2.6733 H         1 <0>         0.4534
     40 H19        10.8570   -2.0406    1.0549 H         1 <0>         0.4314
@<TRIPOS>BOND
     1    1    6 ar
     2    1    2 ar
     3    1   23 1
     4    2    3 ar
     5    2   24 1
     6    3    4 ar
     7    3   25 1
     8    4    5 ar
     9    4    7 1
    10    5    6 ar
    11    5   26 1
    12    6   27 1
    13    7   12 ar
    14    7    8 ar
    15    8    9 ar
    16    8   28 1
    17    9   10 ar
    18    9   29 1
    19   10   11 ar
    20   10   13 1
    21   11   12 ar
    22   11   30 1
    23   12   31 1
    24   13   14 1
    25   13   32 1
    26   13   33 1
    27   14   15 1
    28   15   16 1
    29   15   34 1
    30   15   35 1
    31   16   17 1
    32   16   36 1
    33   16   37 1
    34   17   18 1
    35   17   19 1
    36   17   22 1
    37   19   20 2
    38   19   21 1
    39   22   38 1
    40   22   39 1
    41   22   40 1
@<TRIPOS>MOLECULE
ZINC00404299
   27    27     0     0     0
SMALL
USER_CHARGES
(2S)-2-amino-3-benzylsulfanyl-propanoic acid
@<TRIPOS>ATOM
      1 C1         -6.9179    6.3272   -3.4111 C.ar      1 <0>        -0.1087
      2 C2         -5.6880    6.9164   -3.1848 C.ar      1 <0>        -0.1189
      3 C3         -4.5544    6.1321   -3.0816 C.ar      1 <0>        -0.0964
      4 C4         -4.6506    4.7586   -3.2053 C.ar      1 <0>        -0.0856
      5 C5         -5.8796    4.1699   -3.4373 C.ar      1 <0>        -0.0999
      6 C6         -7.0140    4.9538   -3.5348 C.ar      1 <0>        -0.1206
      7 C7         -3.4146    3.9036   -3.0932 C.3       1 <0>        -0.0288
      8 S1         -3.1648    3.4259   -1.3612 S.3       1 <0>        -0.2741
      9 C8         -1.6590    2.4150   -1.3976 C.3       1 <0>        -0.1047
     10 C9         -1.3295    1.9397    0.0189 C.3       1 <0>         0.0060
     11 H1         -1.2591    2.8006    0.6838 H         1 <0>         0.1471
     12 C10        -0.0143    1.2041    0.0087 C.2       1 <0>         0.4605
     13 O1          0.0021   -0.0041    0.0020 O.co2     1 <0>        -0.6088
     14 H2         -7.8036    6.9399   -3.4910 H         1 <0>         0.1256
     15 H3         -5.6129    7.9894   -3.0882 H         1 <0>         0.1270
     16 H4         -3.5935    6.5924   -2.9047 H         1 <0>         0.1264
     17 H5         -5.9540    3.0972   -3.5383 H         1 <0>         0.1237
     18 H6         -7.9749    4.4934   -3.7113 H         1 <0>         0.1261
     19 H7         -2.5499    4.4675   -3.4430 H         1 <0>         0.1001
     20 H8         -3.5356    3.0084   -3.7032 H         1 <0>         0.0964
     21 H9         -0.8311    3.0102   -1.7829 H         1 <0>         0.1284
     22 H10        -1.8169    1.5511   -2.0432 H         1 <0>         0.1019
     23 H11        -2.4751    0.2339   -0.1075 H         1 <0>         0.4350
     24 H12        -2.2286    0.7636    1.4495 H         1 <0>         0.4360
     25 O2          1.1389    1.8910    0.0013 O.co2     1 <0>        -0.6941
     26 N1         -2.4100    1.0558    0.4907 N.4       1 <0>        -0.6257
     27 H13        -3.3009    1.5651    0.4585 H         1 <0>         0.4259
@<TRIPOS>BOND
     1    1    6 ar
     2    1    2 ar
     3    1   14 1
     4    2    3 ar
     5    2   15 1
     6    3    4 ar
     7    3   16 1
     8    4    5 ar
     9    4    7 1
    10    5    6 ar
    11    5   17 1
    12    6   18 1
    13    7    8 1
    14    7   19 1
    15    7   20 1
    16    8    9 1
    17    9   10 1
    18    9   21 1
    19    9   22 1
    20   10   11 1
    21   10   12 1
    22   10   26 1
    23   12   13 2
    24   12   25 1
    25   23   26 1
    26   24   26 1
    27   26   27 1
@<TRIPOS>MOLECULE
ZINC04202377
   23    23     0     0     0
SMALL
USER_CHARGES
(2S)-2-amino-2-(o-tolyl)acetic acid
@<TRIPOS>ATOM
      1 C1         -1.2926   -0.7753    0.0108 C.3       1 <0>        -0.1208
      2 C2          0.0021   -0.0041    0.0020 C.ar      1 <0>        -0.0403
      3 C3         -0.0167    1.3783    0.0096 C.ar      1 <0>        -0.1135
      4 C4          1.1708    2.0856    0.0021 C.ar      1 <0>        -0.1030
      5 C5          2.3773    1.4107   -0.0145 C.ar      1 <0>        -0.1176
      6 C6          2.3960    0.0288   -0.0217 C.ar      1 <0>        -0.1266
      7 C7          1.2082   -0.6788   -0.0132 C.ar      1 <0>        -0.1127
      8 C8          1.2287   -2.1856   -0.0210 C.3       1 <0>         0.0257
      9 H1          0.3977   -2.5633    0.5747 H         1 <0>         0.1470
     10 C9          1.0978   -2.6824   -1.4377 C.2       1 <0>         0.4635
     11 O1          2.0791   -3.0387   -2.0460 O.co2     1 <0>        -0.6136
     12 H2         -1.6150   -0.9557   -1.0147 H         1 <0>         0.0977
     13 H3         -1.1443   -1.7285    0.5181 H         1 <0>         0.0654
     14 H4         -2.0550   -0.1993    0.5353 H         1 <0>         0.0659
     15 H5         -0.9592    1.9056    0.0170 H         1 <0>         0.1315
     16 H6          1.1561    3.1655    0.0081 H         1 <0>         0.1292
     17 H7          3.3052    1.9634   -0.0205 H         1 <0>         0.1289
     18 H8          3.3385   -0.4984   -0.0335 H         1 <0>         0.1150
     19 H9          2.5081   -3.6679    0.6150 H         1 <0>         0.4359
     20 H10         3.2824   -2.3241    0.0147 H         1 <0>         0.4334
     21 O2         -0.1088   -2.7292   -2.0238 O.co2     1 <0>        -0.6908
     22 N1          2.4949   -2.6502    0.5725 N.4       1 <0>        -0.6252
     23 H11         2.5798   -2.2740    1.5240 H         1 <0>         0.4252
@<TRIPOS>BOND
     1    1    2 1
     2    1   12 1
     3    1   13 1
     4    1   14 1
     5    2    7 ar
     6    2    3 ar
     7    3    4 ar
     8    3   15 1
     9    4    5 ar
    10    4   16 1
    11    5    6 ar
    12    5   17 1
    13    6    7 ar
    14    6   18 1
    15    7    8 1
    16    8    9 1
    17    8   10 1
    18    8   22 1
    19   10   11 2
    20   10   21 1
    21   19   22 1
    22   20   22 1
    23   22   23 1
@<TRIPOS>MOLECULE
ZINC28570227
   32    32     0     0     0
SMALL
USER_CHARGES
(2S)-2-amino-4-[(3-nitrophenyl)methylsulfanyl]butanoic acid
@<TRIPOS>ATOM
      1 C1         -2.5312    3.9935    0.0375 C.ar      1 <0>        -0.1138
      2 C2         -3.7190    3.2860    0.0384 C.ar      1 <0>        -0.0502
      3 C3         -3.7003    1.9041    0.0299 C.ar      1 <0>        -0.0766
      4 C4         -2.4937    1.2291    0.0206 C.ar      1 <0>        -0.0368
      5 C5         -1.3062    1.9364    0.0188 C.ar      1 <0>        -0.0412
      6 C6         -1.3250    3.3188    0.0321 C.ar      1 <0>        -0.0481
      7 N1         -0.0144    1.2138    0.0087 N.pl3     1 <0>         0.0251
      8 O1          0.0021   -0.0041    0.0020 O.2       1 <0>        -0.1537
      9 O2          1.0320    1.8371    0.0021 O.3       1 <0>        -0.1531
     10 C7         -4.9950    1.1329    0.0314 C.3       1 <0>        -0.0558
     11 S1         -5.5068    0.8137    1.7421 S.3       1 <0>        -0.2169
     12 C8         -7.0590   -0.1093    1.5709 C.3       1 <0>        -0.1102
     13 C9         -7.6070   -0.4475    2.9588 C.3       1 <0>        -0.1123
     14 C10        -8.9162   -1.2260    2.8144 C.3       1 <0>        -0.0030
     15 H1         -8.7824   -2.1048    2.1664 H         1 <0>         0.1352
     16 C11        -9.3922   -1.6651    4.1751 C.2       1 <0>         0.4541
     17 O3        -10.2599   -1.0434    4.7413 O.co2     1 <0>        -0.6158
     18 O4         -8.8523   -2.7469    4.7582 O.co2     1 <0>        -0.7007
     19 N2         -9.9322   -0.3648    2.1946 N.4       1 <0>        -0.6669
     20 H2         -2.5458    5.0734    0.0444 H         1 <0>         0.1529
     21 H3         -4.6616    3.8133    0.0460 H         1 <0>         0.1455
     22 H4         -2.4790    0.1493    0.0143 H         1 <0>         0.1564
     23 H5         -0.3971    3.8714    0.0351 H         1 <0>         0.1574
     24 H6         -5.7720    1.7198   -0.4803 H         1 <0>         0.1012
     25 H7         -4.8528    0.1766   -0.4933 H         1 <0>         0.1017
     26 H8         -7.7922    0.5041    1.0267 H         1 <0>         0.0746
     27 H9         -6.8731   -1.0392    1.0135 H         1 <0>         0.0971
     28 H10        -6.8738   -1.0609    3.5030 H         1 <0>         0.1208
     29 H11        -7.7929    0.4824    3.5162 H         1 <0>         0.0937
     30 H12       -10.8734   -0.9245    2.0908 H         1 <0>         0.4547
     31 H13        -9.5847   -0.0443    1.2014 H         1 <0>         0.4309
     32 H14       -10.0992    0.5192    2.8276 H         1 <0>         0.4535
@<TRIPOS>BOND
     1    1    6 ar
     2    1    2 ar
     3    1   20 1
     4    2    3 ar
     5    2   21 1
     6    3    4 ar
     7    3   10 1
     8    4    5 ar
     9    4   22 1
    10    5    6 ar
    11    5    7 1
    12    6   23 1
    13    7    8 2
    14    7    9 1
    15   10   11 1
    16   10   24 1
    17   10   25 1
    18   11   12 1
    19   12   13 1
    20   12   26 1
    21   12   27 1
    22   13   14 1
    23   13   28 1
    24   13   29 1
    25   14   15 1
    26   14   16 1
    27   14   19 1
    28   16   17 2
    29   16   18 1
    30   19   30 1
    31   19   31 1
    32   19   32 1
@<TRIPOS>MOLECULE
ZINC28570228
   32    32     0     0     0
SMALL
USER_CHARGES
(2R)-2-amino-4-[(3-nitrophenyl)methylsulfanyl]butanoic acid
@<TRIPOS>ATOM
      1 C1         -2.5312    3.9935    0.0375 C.ar      1 <0>        -0.1127
      2 C2         -3.7190    3.2860    0.0384 C.ar      1 <0>        -0.0486
      3 C3         -3.7003    1.9041    0.0299 C.ar      1 <0>        -0.0766
      4 C4         -2.4937    1.2291    0.0206 C.ar      1 <0>        -0.0379
      5 C5         -1.3062    1.9364    0.0188 C.ar      1 <0>        -0.0423
      6 C6         -1.3250    3.3188    0.0321 C.ar      1 <0>        -0.0480
      7 N1         -0.0144    1.2138    0.0087 N.pl3     1 <0>         0.0260
      8 O1          0.0021   -0.0041    0.0020 O.2       1 <0>        -0.1564
      9 O2          1.0320    1.8371    0.0021 O.3       1 <0>        -0.1528
     10 C7         -4.9950    1.1329    0.0314 C.3       1 <0>        -0.0557
     11 S1         -5.5068    0.8137    1.7421 S.3       1 <0>        -0.2169
     12 C8         -7.0590   -0.1093    1.5709 C.3       1 <0>        -0.1101
     13 C9         -7.6070   -0.4475    2.9588 C.3       1 <0>        -0.1124
     14 C10        -8.9162   -1.2260    2.8144 C.3       1 <0>        -0.0027
     15 H1         -9.6299   -0.6818    2.1784 H         1 <0>         0.1348
     16 C11        -9.5189   -1.4523    4.1769 C.2       1 <0>         0.4541
     17 O3         -9.3815   -2.5184    4.7288 O.co2     1 <0>        -0.6150
     18 O4        -10.2086   -0.4697    4.7774 O.co2     1 <0>        -0.7017
     19 N2         -8.6476   -2.5217    2.1764 N.4       1 <0>        -0.6673
     20 H2         -2.5458    5.0734    0.0444 H         1 <0>         0.1535
     21 H3         -4.6616    3.8133    0.0460 H         1 <0>         0.1472
     22 H4         -2.4790    0.1493    0.0143 H         1 <0>         0.1550
     23 H5         -0.3971    3.8714    0.0351 H         1 <0>         0.1575
     24 H6         -5.7720    1.7198   -0.4803 H         1 <0>         0.1034
     25 H7         -4.8528    0.1766   -0.4933 H         1 <0>         0.0995
     26 H8         -7.7922    0.5041    1.0267 H         1 <0>         0.0966
     27 H9         -6.8731   -1.0392    1.0135 H         1 <0>         0.0751
     28 H10        -6.8738   -1.0609    3.5030 H         1 <0>         0.0942
     29 H11        -7.7929    0.4824    3.5162 H         1 <0>         0.1203
     30 H12        -9.5889   -3.0814    2.0726 H         1 <0>         0.4547
     31 H13        -7.9452   -3.0974    2.7971 H         1 <0>         0.4541
     32 H14        -8.2076   -2.3565    1.1819 H         1 <0>         0.4312
@<TRIPOS>BOND
     1    1    6 ar
     2    1    2 ar
     3    1   20 1
     4    2    3 ar
     5    2   21 1
     6    3    4 ar
     7    3   10 1
     8    4    5 ar
     9    4   22 1
    10    5    6 ar
    11    5    7 1
    12    6   23 1
    13    7    8 2
    14    7    9 1
    15   10   11 1
    16   10   24 1
    17   10   25 1
    18   11   12 1
    19   12   13 1
    20   12   26 1
    21   12   27 1
    22   13   14 1
    23   13   28 1
    24   13   29 1
    25   14   15 1
    26   14   16 1
    27   14   19 1
    28   16   17 2
    29   16   18 1
    30   19   30 1
    31   19   31 1
    32   19   32 1
@<TRIPOS>MOLECULE
ZINC28570229
   31    31     0     0     0
SMALL
USER_CHARGES
(2S)-2-amino-4-[(2-cyanophenyl)methylsulfanyl]butanoic acid
@<TRIPOS>ATOM
      1 C1         -0.0549    4.1969    0.0248 C.ar      1 <0>        -0.0883
      2 C2         -1.2457    3.4919    0.0319 C.ar      1 <0>        -0.1105
      3 C3         -1.2343    2.1127    0.0194 C.ar      1 <0>        -0.0694
      4 C4         -0.0173    1.4278    0.0099 C.ar      1 <0>        -0.0105
      5 C5          1.1802    2.1454    0.0023 C.ar      1 <0>        -0.0335
      6 C6          1.1542    3.5248    0.0100 C.ar      1 <0>        -0.1002
      7 C7          2.4983    1.4149   -0.0137 C.3       1 <0>        -0.0626
      8 S1          3.0111    1.1305   -1.7303 S.3       1 <0>        -0.2129
      9 C8          4.5921    0.2544   -1.5766 C.3       1 <0>        -0.1118
     10 C9          5.1434   -0.0513   -2.9707 C.3       1 <0>        -0.1114
     11 C10         6.4768   -0.7902   -2.8411 C.3       1 <0>        -0.0032
     12 H1          6.3736   -1.6797   -2.2023 H         1 <0>         0.1345
     13 C11         6.9594   -1.1994   -4.2088 C.2       1 <0>         0.4547
     14 O1          7.8045   -0.5449   -4.7721 O.co2     1 <0>        -0.6161
     15 O2          6.4504   -2.2910   -4.8013 O.co2     1 <0>        -0.7012
     16 N1          7.4686    0.0953   -2.2165 N.4       1 <0>        -0.6666
     17 C12         0.0021   -0.0041    0.0020 C.1       1 <0>         0.2459
     18 N2          0.0175   -1.1399   -0.0042 N.1       1 <0>        -0.4004
     19 H2         -0.0695    5.2768    0.0304 H         1 <0>         0.1357
     20 H3         -2.1861    4.0229    0.0430 H         1 <0>         0.1381
     21 H4         -2.1644    1.5637    0.0208 H         1 <0>         0.1375
     22 H5          2.0798    4.0812    0.0042 H         1 <0>         0.1360
     23 H6          3.2592    2.0201    0.5008 H         1 <0>         0.1020
     24 H7          2.3885    0.4490    0.5010 H         1 <0>         0.0920
     25 H8          5.3086    0.8843   -1.0290 H         1 <0>         0.0747
     26 H9          4.4380   -0.6869   -1.0287 H         1 <0>         0.0943
     27 H10         4.4269   -0.6812   -3.5183 H         1 <0>         0.1198
     28 H11         5.2976    0.8900   -3.5186 H         1 <0>         0.0944
     29 H12         8.4273   -0.4360   -2.1233 H         1 <0>         0.4543
     30 H13         7.1163    0.3939   -1.2181 H         1 <0>         0.4313
     31 H14         7.6048    0.9910   -2.8404 H         1 <0>         0.4534
@<TRIPOS>BOND
     1    1    6 ar
     2    1    2 ar
     3    1   19 1
     4    2    3 ar
     5    2   20 1
     6    3    4 ar
     7    3   21 1
     8    4    5 ar
     9    4   17 1
    10    5    6 ar
    11    5    7 1
    12    6   22 1
    13    7    8 1
    14    7   23 1
    15    7   24 1
    16    8    9 1
    17    9   10 1
    18    9   25 1
    19    9   26 1
    20   10   11 1
    21   10   27 1
    22   10   28 1
    23   11   12 1
    24   11   13 1
    25   11   16 1
    26   13   14 2
    27   13   15 1
    28   16   29 1
    29   16   30 1
    30   16   31 1
    31   17   18 3
@<TRIPOS>MOLECULE
ZINC28570230
   31    31     0     0     0
SMALL
USER_CHARGES
(2R)-2-amino-4-[(2-cyanophenyl)methylsulfanyl]butanoic acid
@<TRIPOS>ATOM
      1 C1         -2.1001    1.0619   -5.9373 C.ar      1 <0>        -0.0863
      2 C2         -1.7168    2.2463   -6.5418 C.ar      1 <0>        -0.1109
      3 C3         -0.7538    3.0423   -5.9576 C.ar      1 <0>        -0.0695
      4 C4         -0.1654    2.6508   -4.7531 C.ar      1 <0>        -0.0150
      5 C5         -0.5572    1.4549   -4.1485 C.ar      1 <0>        -0.0322
      6 C6         -1.5179    0.6657   -4.7465 C.ar      1 <0>        -0.0993
      7 C7          0.0725    1.0239   -2.8490 C.3       1 <0>        -0.0628
      8 S1         -0.8901    1.6867   -1.4616 S.3       1 <0>        -0.2128
      9 C8         -0.0127    1.0858    0.0080 C.3       1 <0>        -0.1117
     10 C9         -0.7288    1.5792    1.2668 C.3       1 <0>        -0.1116
     11 C10         0.0111    1.0724    2.5063 C.3       1 <0>        -0.0029
     12 H1          0.1380   -0.0196    2.4698 H         1 <0>         0.1350
     13 C11        -0.7607    1.4538    3.7432 C.2       1 <0>         0.4548
     14 O1         -0.4228    2.4141    4.3940 O.co2     1 <0>        -0.6156
     15 O2         -1.8237    0.7269    4.1217 O.co2     1 <0>        -0.7020
     16 N1          1.3494    1.6761    2.5587 N.4       1 <0>        -0.6675
     17 C12         0.8354    3.4720   -4.1411 C.1       1 <0>         0.2524
     18 N2          1.6294    4.1235   -3.6556 N.1       1 <0>        -0.4086
     19 H2         -2.8541    0.4421   -6.3994 H         1 <0>         0.1365
     20 H3         -2.1727    2.5479   -7.4733 H         1 <0>         0.1382
     21 H4         -0.4551    3.9661   -6.4307 H         1 <0>         0.1370
     22 H5         -1.8189   -0.2617   -4.2821 H         1 <0>         0.1378
     23 H6          0.0856   -0.0747   -2.7945 H         1 <0>         0.1043
     24 H7          1.1027    1.4060   -2.7962 H         1 <0>         0.0901
     25 H8          0.0022   -0.0141    0.0019 H         1 <0>         0.0968
     26 H9          1.0193    1.4665    0.0002 H         1 <0>         0.0723
     27 H10        -0.7437    2.6791    1.2728 H         1 <0>         0.0931
     28 H11        -1.7608    1.1985    1.2746 H         1 <0>         0.1210
     29 H12         1.8814    1.3117    3.4499 H         1 <0>         0.4541
     30 H13         1.2560    2.7710    2.6095 H         1 <0>         0.4538
     31 H14         1.9128    1.3976    1.6559 H         1 <0>         0.4315
@<TRIPOS>BOND
     1    1    6 ar
     2    1    2 ar
     3    1   19 1
     4    2    3 ar
     5    2   20 1
     6    3    4 ar
     7    3   21 1
     8    4    5 ar
     9    4   17 1
    10    5    6 ar
    11    5    7 1
    12    6   22 1
    13    7    8 1
    14    7   23 1
    15    7   24 1
    16    8    9 1
    17    9   10 1
    18    9   25 1
    19    9   26 1
    20   10   11 1
    21   10   27 1
    22   10   28 1
    23   11   12 1
    24   11   13 1
    25   11   16 1
    26   13   14 2
    27   13   15 1
    28   16   29 1
    29   16   30 1
    30   16   31 1
    31   17   18 3
@<TRIPOS>MOLECULE
ZINC28570574
   30    30     0     0     0
SMALL
USER_CHARGES
(2S)-2-amino-4-[(3-fluorophenyl)methylsulfanyl]butanoic acid
@<TRIPOS>ATOM
      1 C1          1.1756    1.7828    0.0004 C.ar      1 <0>        -0.0877
      2 C2         -0.0126    1.0758    0.0080 C.ar      1 <0>        -0.1099
      3 C3         -1.2192    1.7501    0.0173 C.ar      1 <0>        -0.0516
      4 C4         -1.2391    3.1321    0.0307 C.ar      1 <0>        -0.1363
      5 C5         -0.0501    3.8410    0.0232 C.ar      1 <0>         0.1003
      6 C6          1.1581    3.1645    0.0080 C.ar      1 <0>        -0.1454
      7 F1         -0.0684    5.1919    0.0301 F         1 <0>        -0.1365
      8 C7         -2.5134    0.9780    0.0188 C.3       1 <0>        -0.0530
      9 S1         -3.0249    0.6584    1.7296 S.3       1 <0>        -0.2184
     10 C8         -4.5765   -0.2657    1.5584 C.3       1 <0>        -0.1116
     11 C9         -5.1243   -0.6042    2.9462 C.3       1 <0>        -0.1118
     12 C10        -6.4329   -1.3836    2.8018 C.3       1 <0>        -0.0031
     13 H1         -6.2984   -2.2622    2.1537 H         1 <0>         0.1346
     14 C11        -6.9086   -1.8231    4.1626 C.2       1 <0>         0.4545
     15 O1         -7.7767   -1.2021    4.7287 O.co2     1 <0>        -0.6159
     16 O2         -6.3679   -2.9046    4.7456 O.co2     1 <0>        -0.7020
     17 N1         -7.4495   -0.5231    2.1821 N.4       1 <0>        -0.6670
     18 H2          2.1178    1.2550   -0.0118 H         1 <0>         0.1382
     19 H3          0.0021   -0.0041    0.0020 H         1 <0>         0.1334
     20 H4         -2.1820    3.6586    0.0425 H         1 <0>         0.1368
     21 H5          2.0863    3.7165    0.0017 H         1 <0>         0.1390
     22 H6         -3.2908    1.5644   -0.4929 H         1 <0>         0.0942
     23 H7         -2.3706    0.0218   -0.5059 H         1 <0>         0.0981
     24 H8         -5.3101    0.3471    1.0141 H         1 <0>         0.0730
     25 H9         -4.3899   -1.1955    1.0010 H         1 <0>         0.0952
     26 H10        -4.3907   -1.2170    3.4905 H         1 <0>         0.1201
     27 H11        -5.3109    0.3256    3.5036 H         1 <0>         0.0934
     28 H12        -8.3904   -1.0835    2.0783 H         1 <0>         0.4541
     29 H13        -7.1023   -0.2023    1.1889 H         1 <0>         0.4313
     30 H14        -7.6171    0.3607    2.8151 H         1 <0>         0.4536
@<TRIPOS>BOND
     1    1    6 ar
     2    1    2 ar
     3    1   18 1
     4    2    3 ar
     5    2   19 1
     6    3    4 ar
     7    3    8 1
     8    4    5 ar
     9    4   20 1
    10    5    6 ar
    11    5    7 1
    12    6   21 1
    13    8    9 1
    14    8   22 1
    15    8   23 1
    16    9   10 1
    17   10   11 1
    18   10   24 1
    19   10   25 1
    20   11   12 1
    21   11   26 1
    22   11   27 1
    23   12   13 1
    24   12   14 1
    25   12   17 1
    26   14   15 2
    27   14   16 1
    28   17   28 1
    29   17   29 1
    30   17   30 1
@<TRIPOS>MOLECULE
ZINC28570575
   30    30     0     0     0
SMALL
USER_CHARGES
(2R)-2-amino-4-[(3-fluorophenyl)methylsulfanyl]butanoic acid
@<TRIPOS>ATOM
      1 C1         -2.4232    1.2838   -2.8916 C.ar      1 <0>        -0.0875
      2 C2         -1.7497    0.8245   -1.7747 C.ar      1 <0>        -0.1100
      3 C3         -0.7416    1.5850   -1.2129 C.ar      1 <0>        -0.0515
      4 C4         -0.3979    2.8007   -1.7737 C.ar      1 <0>        -0.1364
      5 C5         -1.0676    3.2590   -2.8953 C.ar      1 <0>         0.1004
      6 C6         -2.0813    2.4988   -3.4540 C.ar      1 <0>        -0.1455
      7 F1         -0.7322    4.4468   -3.4446 F         1 <0>        -0.1364
      8 C7         -0.0127    1.0858    0.0080 C.3       1 <0>        -0.0530
      9 S1         -0.8618    1.6708    1.5005 S.3       1 <0>        -0.2182
     10 C8          0.1270    0.9932    2.8620 C.3       1 <0>        -0.1117
     11 C9         -0.4869    1.4165    4.1980 C.3       1 <0>        -0.1117
     12 C10         0.3471    0.8450    5.3463 C.3       1 <0>        -0.0030
     13 H1          0.4685   -0.2432    5.2410 H         1 <0>         0.1346
     14 C11        -0.3243    1.1575    6.6588 C.2       1 <0>         0.4544
     15 O1          0.0659    2.0819    7.3320 O.co2     1 <0>        -0.6159
     16 O2         -1.3559    0.4090    7.0799 O.co2     1 <0>        -0.7019
     17 N1          1.6866    1.4477    5.3259 N.4       1 <0>        -0.6670
     18 H2         -3.2137    0.6907   -3.3271 H         1 <0>         0.1382
     19 H3         -2.0146   -0.1273   -1.3384 H         1 <0>         0.1333
     20 H4          0.3926    3.3929   -1.3370 H         1 <0>         0.1368
     21 H5         -2.6042    2.8552   -4.3291 H         1 <0>         0.1390
     22 H6          0.0022   -0.0141    0.0019 H         1 <0>         0.0981
     23 H7          1.0193    1.4665    0.0002 H         1 <0>         0.0942
     24 H8          0.1389   -0.1047    2.7954 H         1 <0>         0.0952
     25 H9          1.1560    1.3759    2.7937 H         1 <0>         0.0730
     26 H10        -0.4988    2.5144    4.2645 H         1 <0>         0.0934
     27 H11        -1.5159    1.0338    4.2663 H         1 <0>         0.1202
     28 H12         2.2862    1.0368    6.1515 H         1 <0>         0.4541
     29 H13         1.5999    2.5380    5.4430 H         1 <0>         0.4536
     30 H14         2.1767    1.2196    4.3679 H         1 <0>         0.4314
@<TRIPOS>BOND
     1    1    6 ar
     2    1    2 ar
     3    1   18 1
     4    2    3 ar
     5    2   19 1
     6    3    4 ar
     7    3    8 1
     8    4    5 ar
     9    4   20 1
    10    5    6 ar
    11    5    7 1
    12    6   21 1
    13    8    9 1
    14    8   22 1
    15    8   23 1
    16    9   10 1
    17   10   11 1
    18   10   24 1
    19   10   25 1
    20   11   12 1
    21   11   26 1
    22   11   27 1
    23   12   13 1
    24   12   14 1
    25   12   17 1
    26   14   15 2
    27   14   16 1
    28   17   28 1
    29   17   29 1
    30   17   30 1
@<TRIPOS>MOLECULE
ZINC28570379
   30    30     0     0     0
SMALL
USER_CHARGES
(2S)-2-amino-4-[(2-bromophenyl)methylsulfanyl]butanoic acid
@<TRIPOS>ATOM
      1 C1          3.4290    7.9067   -1.1855 C.ar      1 <0>        -0.1035
      2 C2          3.4966    8.5898    0.0146 C.ar      1 <0>        -0.1054
      3 C3          3.4511    7.8955    1.2087 C.ar      1 <0>        -0.0902
      4 C4          3.3374    6.5167    1.2030 C.ar      1 <0>        -0.0761
      5 C5          3.2694    5.8338    0.0022 C.ar      1 <0>        -0.0526
      6 C6          3.3203    6.5288   -1.1918 C.ar      1 <0>        -0.0955
      7 C7          3.1460    4.3319   -0.0047 C.3       1 <0>        -0.0641
      8 S1          1.3921    3.8692    0.0095 S.3       1 <0>        -0.2099
      9 C8          1.4167    2.0553   -0.0004 C.3       1 <0>        -0.1119
     10 C9         -0.0187    1.5258    0.0104 C.3       1 <0>        -0.1111
     11 C10         0.0021   -0.0041    0.0020 C.3       1 <0>        -0.0031
     12 H1          0.6228   -0.3941    0.8221 H         1 <0>         0.1345
     13 C11        -1.4051   -0.5263    0.1365 C.2       1 <0>         0.4547
     14 O1         -2.0063   -0.9018   -0.8420 O.co2     1 <0>        -0.6165
     15 O2         -1.9907   -0.5743    1.3433 O.co2     1 <0>        -0.7017
     16 N1          0.5820   -0.4790   -1.2614 N.4       1 <0>        -0.6668
     17 Br1         3.2757    5.5660    2.8364 Br        1 <0>        -0.0370
     18 H2          3.4650    8.4496   -2.1185 H         1 <0>         0.1335
     19 H3          3.5854    9.6661    0.0190 H         1 <0>         0.1354
     20 H4          3.5046    8.4291    2.1461 H         1 <0>         0.1368
     21 H5          3.2716    5.9952   -2.1295 H         1 <0>         0.1332
     22 H6          3.6242    3.9289   -0.9096 H         1 <0>         0.0956
     23 H7          3.6413    3.9192    0.8865 H         1 <0>         0.1020
     24 H8          1.9316    1.7005   -0.9054 H         1 <0>         0.0724
     25 H9          1.9487    1.6909    0.8908 H         1 <0>         0.0951
     26 H10        -0.5336    1.8806    0.9154 H         1 <0>         0.1202
     27 H11        -0.5507    1.8902   -0.8808 H         1 <0>         0.0932
     28 H12         0.5969   -1.5789   -1.2674 H         1 <0>         0.4539
     29 H13         1.6092   -0.0978   -1.3596 H         1 <0>         0.4314
     30 H14        -0.0259   -0.1159   -2.1032 H         1 <0>         0.4533
@<TRIPOS>BOND
     1    1    6 ar
     2    1    2 ar
     3    1   18 1
     4    2    3 ar
     5    2   19 1
     6    3    4 ar
     7    3   20 1
     8    4    5 ar
     9    4   17 1
    10    5    6 ar
    11    5    7 1
    12    6   21 1
    13    7    8 1
    14    7   22 1
    15    7   23 1
    16    8    9 1
    17    9   10 1
    18    9   24 1
    19    9   25 1
    20   10   11 1
    21   10   26 1
    22   10   27 1
    23   11   12 1
    24   11   13 1
    25   11   16 1
    26   13   14 2
    27   13   15 1
    28   16   28 1
    29   16   29 1
    30   16   30 1
@<TRIPOS>MOLECULE
ZINC28570380
   30    30     0     0     0
SMALL
USER_CHARGES
(2R)-2-amino-4-[(2-bromophenyl)methylsulfanyl]butanoic acid
@<TRIPOS>ATOM
      1 C1         -2.1004    1.0603   -5.9361 C.ar      1 <0>        -0.1020
      2 C2         -1.7120    2.2451   -6.5337 C.ar      1 <0>        -0.1054
      3 C3         -0.7460    3.0348   -5.9394 C.ar      1 <0>        -0.0908
      4 C4         -0.1680    2.6399   -4.7461 C.ar      1 <0>        -0.0757
      5 C5         -0.5572    1.4549   -4.1485 C.ar      1 <0>        -0.0521
      6 C6         -1.5197    0.6630   -4.7464 C.ar      1 <0>        -0.0943
      7 C7          0.0725    1.0239   -2.8490 C.3       1 <0>        -0.0642
      8 S1         -0.8901    1.6867   -1.4616 S.3       1 <0>        -0.2100
      9 C8         -0.0127    1.0858    0.0080 C.3       1 <0>        -0.1117
     10 C9         -0.7288    1.5792    1.2668 C.3       1 <0>        -0.1112
     11 C10         0.0111    1.0724    2.5063 C.3       1 <0>        -0.0029
     12 H1          0.1380   -0.0196    2.4698 H         1 <0>         0.1345
     13 C11        -0.7607    1.4538    3.7432 C.2       1 <0>         0.4548
     14 O1         -0.4228    2.4141    4.3940 O.co2     1 <0>        -0.6161
     15 O2         -1.8237    0.7269    4.1217 O.co2     1 <0>        -0.7023
     16 N1          1.3494    1.6761    2.5587 N.4       1 <0>        -0.6672
     17 Br1         1.1542    3.7197   -3.9327 Br        1 <0>        -0.0428
     18 H2         -2.8550    0.4432   -6.4011 H         1 <0>         0.1343
     19 H3         -2.1632    2.5533   -7.4652 H         1 <0>         0.1356
     20 H4         -0.4422    3.9599   -6.4066 H         1 <0>         0.1364
     21 H5         -1.8204   -0.2646   -4.2821 H         1 <0>         0.1350
     22 H6          0.0856   -0.0747   -2.7945 H         1 <0>         0.0979
     23 H7          1.1027    1.4060   -2.7962 H         1 <0>         0.1001
     24 H8          0.0022   -0.0141    0.0019 H         1 <0>         0.0945
     25 H9          1.0193    1.4665    0.0002 H         1 <0>         0.0730
     26 H10        -0.7437    2.6791    1.2728 H         1 <0>         0.0936
     27 H11        -1.7608    1.1985    1.2746 H         1 <0>         0.1198
     28 H12         1.8814    1.3117    3.4499 H         1 <0>         0.4538
     29 H13         1.2560    2.7710    2.6095 H         1 <0>         0.4536
     30 H14         1.9128    1.3976    1.6559 H         1 <0>         0.4316
@<TRIPOS>BOND
     1    1    6 ar
     2    1    2 ar
     3    1   18 1
     4    2    3 ar
     5    2   19 1
     6    3    4 ar
     7    3   20 1
     8    4    5 ar
     9    4   17 1
    10    5    6 ar
    11    5    7 1
    12    6   21 1
    13    7    8 1
    14    7   22 1
    15    7   23 1
    16    8    9 1
    17    9   10 1
    18    9   24 1
    19    9   25 1
    20   10   11 1
    21   10   26 1
    22   10   27 1
    23   11   12 1
    24   11   13 1
    25   11   16 1
    26   13   14 2
    27   13   15 1
    28   16   28 1
    29   16   29 1
    30   16   30 1
@<TRIPOS>MOLECULE
ZINC04203228
   20    20     0     0     0
SMALL
USER_CHARGES
(2S)-2-amino-2-(3-chlorophenyl)acetic acid
@<TRIPOS>ATOM
      1 C1         -0.0126    1.0758    0.0080 C.ar      1 <0>        -0.0971
      2 C2          1.1754    1.7832    0.0004 C.ar      1 <0>        -0.0783
      3 C3          1.1574    3.1653    0.0080 C.ar      1 <0>        -0.0937
      4 C4         -0.0484    3.8411    0.0227 C.ar      1 <0>        -0.1132
      5 C5         -1.2373    3.1339    0.0298 C.ar      1 <0>        -0.0286
      6 C6         -1.2187    1.7503    0.0173 C.ar      1 <0>        -0.0967
      7 Cl1        -2.7520    3.9818    0.0476 Cl        1 <0>        -0.0567
      8 C7          2.4527    3.9356    0.0008 C.3       1 <0>         0.0284
      9 H1          3.2616    3.2894    0.3417 H         1 <0>         0.1497
     10 C8          2.7460    4.4119   -1.3985 C.2       1 <0>         0.4588
     11 O1          2.4997    5.5523   -1.7126 O.co2     1 <0>        -0.6103
     12 H2          0.0021   -0.0041    0.0020 H         1 <0>         0.1431
     13 H3          2.1177    1.2557   -0.0111 H         1 <0>         0.1412
     14 H4         -0.0623    4.9210    0.0290 H         1 <0>         0.1315
     15 H5         -2.1466    1.1976    0.0191 H         1 <0>         0.1412
     16 H6          1.5954    5.7077    0.6032 H         1 <0>         0.4330
     17 H7          2.2065    4.7977    1.8540 H         1 <0>         0.4243
     18 O2          3.2810    3.5692   -2.2960 O.co2     1 <0>        -0.6927
     19 N1          2.3619    5.1034    0.8948 N.4       1 <0>        -0.6249
     20 H8          3.2410    5.6320    0.8499 H         1 <0>         0.4409
@<TRIPOS>BOND
     1    1    6 ar
     2    1    2 ar
     3    1   12 1
     4    2    3 ar
     5    2   13 1
     6    3    4 ar
     7    3    8 1
     8    4    5 ar
     9    4   14 1
    10    5    6 ar
    11    5    7 1
    12    6   15 1
    13    8    9 1
    14    8   10 1
    15    8   19 1
    16   10   11 2
    17   10   18 1
    18   16   19 1
    19   17   19 1
    20   19   20 1
@<TRIPOS>MOLECULE
ZINC04203229
   20    20     0     0     0
SMALL
USER_CHARGES
(2R)-2-amino-2-(3-chlorophenyl)acetic acid
@<TRIPOS>ATOM
      1 C1         -1.2185    1.7506    0.0173 C.ar      1 <0>        -0.0966
      2 C2         -1.2374    3.1330    0.0293 C.ar      1 <0>        -0.1171
      3 C3         -0.0503    3.8410    0.0222 C.ar      1 <0>        -0.0975
      4 C4          1.1566    3.1672    0.0075 C.ar      1 <0>        -0.0749
      5 C5          1.1762    1.7841    0.0004 C.ar      1 <0>        -0.0290
      6 C6         -0.0126    1.0758    0.0080 C.ar      1 <0>        -0.0965
      7 Cl1         2.6914    0.9371   -0.0174 Cl        1 <0>        -0.0536
      8 C7         -0.0718    5.3479    0.0300 C.3       1 <0>         0.0289
      9 H1          0.8853    5.7267   -0.3286 H         1 <0>         0.1480
     10 C8         -0.3126    5.8396    1.4340 C.2       1 <0>         0.4618
     11 O1         -1.4180    6.1948    1.7685 O.co2     1 <0>        -0.6107
     12 H2         -2.1464    1.1979    0.0191 H         1 <0>         0.1413
     13 H3         -2.1801    3.6599    0.0407 H         1 <0>         0.1285
     14 H4          2.0841    3.7205    0.0013 H         1 <0>         0.1445
     15 H5          0.0021   -0.0041    0.0020 H         1 <0>         0.1412
     16 H6         -2.0461    5.4888   -0.5363 H         1 <0>         0.4334
     17 H7         -1.1423    6.8338   -0.9104 H         1 <0>         0.4378
     18 O2          0.7009    5.8829    2.3130 O.co2     1 <0>        -0.6918
     19 N1         -1.1408    5.8160   -0.8697 N.4       1 <0>        -0.6239
     20 H8         -0.9762    5.4432   -1.8121 H         1 <0>         0.4261
@<TRIPOS>BOND
     1    1    6 ar
     2    1    2 ar
     3    1   12 1
     4    2    3 ar
     5    2   13 1
     6    3    4 ar
     7    3    8 1
     8    4    5 ar
     9    4   14 1
    10    5    6 ar
    11    5    7 1
    12    6   15 1
    13    8    9 1
    14    8   10 1
    15    8   19 1
    16   10   11 2
    17   10   18 1
    18   16   19 1
    19   17   19 1
    20   19   20 1
@<TRIPOS>MOLECULE
ZINC02560145
   20    20     0     0     0
SMALL
USER_CHARGES
2-amino-2-(2,3-difluorophenyl)-acetic acid
@<TRIPOS>ATOM
      1 C1          1.1529    3.4378    0.0096 C.ar      1 <0>        -0.0882
      2 C2         -0.0533    4.1134    0.0248 C.ar      1 <0>        -0.1135
      3 C3         -1.2420    3.4084    0.0323 C.ar      1 <0>        -0.1140
      4 C4         -1.2258    2.0244    0.0189 C.ar      1 <0>         0.1074
      5 C5         -0.0162    1.3468    0.0094 C.ar      1 <0>         0.0795
      6 C6          1.1724    2.0558    0.0019 C.ar      1 <0>        -0.1147
      7 F1          0.0021   -0.0041    0.0020 F         1 <0>        -0.1184
      8 F2         -2.3874    1.3345    0.0206 F         1 <0>        -0.1049
      9 C7         -2.5558    4.1464    0.0484 C.3       1 <0>         0.0284
     10 H1         -3.2904    3.5935   -0.5370 H         1 <0>         0.1523
     11 C8         -3.0411    4.2773    1.4691 C.2       1 <0>         0.4582
     12 O1         -2.8793    5.3132    2.0697 O.co2     1 <0>        -0.6085
     13 H2          2.0807    3.9905    0.0033 H         1 <0>         0.1498
     14 H3         -0.0666    5.1933    0.0304 H         1 <0>         0.1341
     15 H4          2.1153    1.5292   -0.0103 H         1 <0>         0.1544
     16 H5         -1.6965    6.0165   -0.0066 H         1 <0>         0.4342
     17 H6         -2.1102    5.4230   -1.5041 H         1 <0>         0.4250
     18 O2         -3.6531    3.2432    2.0672 O.co2     1 <0>        -0.6825
     19 N1         -2.3968    5.4928   -0.5291 N.4       1 <0>        -0.6222
     20 H7         -3.2938    5.9899   -0.4783 H         1 <0>         0.4437
@<TRIPOS>BOND
     1    1    6 ar
     2    1    2 ar
     3    1   13 1
     4    2    3 ar
     5    2   14 1
     6    3    4 ar
     7    3    9 1
     8    4    5 ar
     9    4    8 1
    10    5    6 ar
    11    5    7 1
    12    6   15 1
    13    9   10 1
    14    9   11 1
    15    9   19 1
    16   11   12 2
    17   11   18 1
    18   16   19 1
    19   17   19 1
    20   19   20 1
@<TRIPOS>MOLECULE
ZINC04329306
   20    20     0     0     0
SMALL
USER_CHARGES
2-amino-2-(2,3-difluorophenyl)-acetic acid
@<TRIPOS>ATOM
      1 C1          1.1707    2.0872    0.0021 C.ar      1 <0>        -0.0885
      2 C2          2.3781    1.4137   -0.0131 C.ar      1 <0>        -0.1163
      3 C3          2.4003    0.0318   -0.0207 C.ar      1 <0>        -0.1143
      4 C4          1.2129   -0.6794   -0.0132 C.ar      1 <0>         0.1088
      5 C5          0.0021   -0.0041    0.0020 C.ar      1 <0>         0.0792
      6 C6         -0.0167    1.3799    0.0096 C.ar      1 <0>        -0.1152
      7 F1         -1.1582   -0.6961    0.0089 F         1 <0>        -0.1183
      8 F2          1.2337   -2.0302   -0.0211 F         1 <0>        -0.1017
      9 C7          3.7172   -0.7006   -0.0367 C.3       1 <0>         0.0288
     10 H1          3.6459   -1.5618   -0.7010 H         1 <0>         0.1527
     11 C8          4.0494   -1.1674    1.3572 C.2       1 <0>         0.4573
     12 O1          4.8317   -0.5423    2.0332 O.co2     1 <0>        -0.6087
     13 H2          1.1554    3.1671    0.0080 H         1 <0>         0.1495
     14 H3          3.3049    1.9681   -0.0189 H         1 <0>         0.1327
     15 H4         -0.9592    1.9071    0.0170 H         1 <0>         0.1542
     16 H5          4.6068    0.4772   -1.4719 H         1 <0>         0.4249
     17 H6          4.8591    1.0082    0.0838 H         1 <0>         0.4347
     18 O2          3.4761   -2.2776    1.8476 O.co2     1 <0>        -0.6809
     19 N1          4.7933    0.1859   -0.5138 N.4       1 <0>        -0.6224
     20 H7          5.6857   -0.3211   -0.4854 H         1 <0>         0.4437
@<TRIPOS>BOND
     1    1    6 ar
     2    1    2 ar
     3    1   13 1
     4    2    3 ar
     5    2   14 1
     6    3    4 ar
     7    3    9 1
     8    4    5 ar
     9    4    8 1
    10    5    6 ar
    11    5    7 1
    12    6   15 1
    13    9   10 1
    14    9   11 1
    15    9   19 1
    16   11   12 2
    17   11   18 1
    18   16   19 1
    19   17   19 1
    20   19   20 1
@<TRIPOS>MOLECULE
ZINC28570370
   36    36     0     0     0
SMALL
USER_CHARGES
(2R)-2-amino-4-[(3,4-dimethylphenyl)methylsulfanyl]butanoic acid
@<TRIPOS>ATOM
      1 C1          2.4904    1.0477   -0.0161 C.3       1 <0>        -0.1191
      2 C2          1.1752    1.7833    0.0004 C.ar      1 <0>        -0.0769
      3 C3         -0.0126    1.0758    0.0080 C.ar      1 <0>        -0.1159
      4 C4         -1.2188    1.7505    0.0173 C.ar      1 <0>        -0.1004
      5 C5         -1.2375    3.1329    0.0299 C.ar      1 <0>        -0.0836
      6 C6         -0.0501    3.8402    0.0228 C.ar      1 <0>        -0.0961
      7 C7          1.1565    3.1653    0.0076 C.ar      1 <0>        -0.0872
      8 C8          2.4512    3.9365   -0.0006 C.3       1 <0>        -0.1164
      9 C9         -2.5527    3.8686    0.0459 C.3       1 <0>        -0.0473
     10 S1         -3.0960    4.1730   -1.6578 S.3       1 <0>        -0.2233
     11 C10        -4.6703    5.0535   -1.4657 C.3       1 <0>        -0.1120
     12 C11        -5.2461    5.3760   -2.8460 C.3       1 <0>        -0.1111
     13 C12        -6.5739    6.1187   -2.6839 C.3       1 <0>        -0.0032
     14 H1         -7.2638    5.5556   -2.0381 H         1 <0>         0.1343
     15 C13        -7.2010    6.3279   -4.0382 C.2       1 <0>         0.4547
     16 O1         -7.1000    7.3970   -4.5920 O.co2     1 <0>        -0.6164
     17 O2         -7.8717    5.3266   -4.6292 O.co2     1 <0>        -0.7021
     18 N1         -6.3320    7.4215   -2.0498 N.4       1 <0>        -0.6667
     19 H2          2.3041   -0.0364   -0.0198 H         1 <0>         0.0666
     20 H3          3.0722    1.3167    0.8778 H         1 <0>         0.0716
     21 H4          3.0548    1.3259   -0.9184 H         1 <0>         0.0723
     22 H5          0.0021   -0.0041    0.0020 H         1 <0>         0.1257
     23 H6         -2.1467    1.1979    0.0187 H         1 <0>         0.1242
     24 H7         -0.0647    4.9201    0.0288 H         1 <0>         0.1225
     25 H8          2.2355    5.0151    0.0069 H         1 <0>         0.0649
     26 H9          3.0231    3.6832   -0.9054 H         1 <0>         0.0718
     27 H10         3.0399    3.6741    0.8908 H         1 <0>         0.0711
     28 H11        -3.3064    3.2609    0.5681 H         1 <0>         0.0921
     29 H12        -2.4295    4.8286    0.5686 H         1 <0>         0.0895
     30 H13        -5.3791    4.4207   -0.9115 H         1 <0>         0.0937
     31 H14        -4.5022    5.9884   -0.9110 H         1 <0>         0.0717
     32 H15        -4.5373    6.0088   -3.4002 H         1 <0>         0.0930
     33 H16        -5.4142    4.4411   -3.4007 H         1 <0>         0.1196
     34 H17        -7.2866    7.9554   -1.9333 H         1 <0>         0.4537
     35 H18        -5.6540    8.0158   -2.6800 H         1 <0>         0.4534
     36 H19        -5.8742    7.2688   -1.0613 H         1 <0>         0.4315
@<TRIPOS>BOND
     1    1    2 1
     2    1   19 1
     3    1   20 1
     4    1   21 1
     5    2    7 ar
     6    2    3 ar
     7    3    4 ar
     8    3   22 1
     9    4    5 ar
    10    4   23 1
    11    5    6 ar
    12    5    9 1
    13    6    7 ar
    14    6   24 1
    15    7    8 1
    16    8   25 1
    17    8   26 1
    18    8   27 1
    19    9   10 1
    20    9   28 1
    21    9   29 1
    22   10   11 1
    23   11   12 1
    24   11   30 1
    25   11   31 1
    26   12   13 1
    27   12   32 1
    28   12   33 1
    29   13   14 1
    30   13   15 1
    31   13   18 1
    32   15   16 2
    33   15   17 1
    34   18   34 1
    35   18   35 1
    36   18   36 1
@<TRIPOS>MOLECULE
ZINC28570371
   36    36     0     0     0
SMALL
USER_CHARGES
(2S)-2-amino-4-[(3,4-dimethylphenyl)methylsulfanyl]butanoic acid
@<TRIPOS>ATOM
      1 C1          2.4904    1.0477   -0.0161 C.3       1 <0>        -0.1190
      2 C2          1.1752    1.7833    0.0004 C.ar      1 <0>        -0.0770
      3 C3         -0.0126    1.0758    0.0080 C.ar      1 <0>        -0.1169
      4 C4         -1.2188    1.7505    0.0173 C.ar      1 <0>        -0.1018
      5 C5         -1.2375    3.1329    0.0299 C.ar      1 <0>        -0.0836
      6 C6         -0.0501    3.8402    0.0228 C.ar      1 <0>        -0.0951
      7 C7          1.1565    3.1653    0.0076 C.ar      1 <0>        -0.0858
      8 C8          2.4512    3.9365   -0.0006 C.3       1 <0>        -0.1174
      9 C9         -2.5527    3.8686    0.0459 C.3       1 <0>        -0.0473
     10 S1         -3.0960    4.1730   -1.6578 S.3       1 <0>        -0.2233
     11 C10        -4.6703    5.0535   -1.4657 C.3       1 <0>        -0.1121
     12 C11        -5.2461    5.3760   -2.8460 C.3       1 <0>        -0.1112
     13 C12        -6.5739    6.1187   -2.6839 C.3       1 <0>        -0.0032
     14 H1         -6.4553    7.0010   -2.0378 H         1 <0>         0.1343
     15 C13        -7.0801    6.5441   -4.0381 C.2       1 <0>         0.4546
     16 O1         -7.9381    5.8988   -4.5924 O.co2     1 <0>        -0.6163
     17 O2         -6.5777    7.6399   -4.6286 O.co2     1 <0>        -0.7022
     18 N1         -7.5576    5.2305   -2.0503 N.4       1 <0>        -0.6668
     19 H2          2.3041   -0.0364   -0.0198 H         1 <0>         0.0662
     20 H3          3.0722    1.3167    0.8778 H         1 <0>         0.0718
     21 H4          3.0548    1.3259   -0.9184 H         1 <0>         0.0725
     22 H5          0.0021   -0.0041    0.0020 H         1 <0>         0.1251
     23 H6         -2.1467    1.1979    0.0187 H         1 <0>         0.1225
     24 H7         -0.0647    4.9201    0.0288 H         1 <0>         0.1241
     25 H8          2.2355    5.0151    0.0069 H         1 <0>         0.0661
     26 H9          3.0231    3.6832   -0.9054 H         1 <0>         0.0721
     27 H10         3.0399    3.6741    0.8908 H         1 <0>         0.0712
     28 H11        -3.3064    3.2609    0.5681 H         1 <0>         0.0899
     29 H12        -2.4295    4.8286    0.5686 H         1 <0>         0.0917
     30 H13        -5.3791    4.4207   -0.9115 H         1 <0>         0.0718
     31 H14        -4.5022    5.9884   -0.9110 H         1 <0>         0.0937
     32 H15        -4.5373    6.0088   -3.4002 H         1 <0>         0.1196
     33 H16        -5.4142    4.4411   -3.4007 H         1 <0>         0.0930
     34 H17        -8.5122    5.7645   -1.9338 H         1 <0>         0.4538
     35 H18        -7.1881    4.9200   -1.0618 H         1 <0>         0.4315
     36 H19        -7.7090    4.3420   -2.6809 H         1 <0>         0.4534
@<TRIPOS>BOND
     1    1    2 1
     2    1   19 1
     3    1   20 1
     4    1   21 1
     5    2    7 ar
     6    2    3 ar
     7    3    4 ar
     8    3   22 1
     9    4    5 ar
    10    4   23 1
    11    5    6 ar
    12    5    9 1
    13    6    7 ar
    14    6   24 1
    15    7    8 1
    16    8   25 1
    17    8   26 1
    18    8   27 1
    19    9   10 1
    20    9   28 1
    21    9   29 1
    22   10   11 1
    23   11   12 1
    24   11   30 1
    25   11   31 1
    26   12   13 1
    27   12   32 1
    28   12   33 1
    29   13   14 1
    30   13   15 1
    31   13   18 1
    32   15   16 2
    33   15   17 1
    34   18   34 1
    35   18   35 1
    36   18   36 1
@<TRIPOS>MOLECULE
ZINC28570578
   34    34     0     0     0
SMALL
USER_CHARGES
(2R)-2-amino-4-[(2-methoxyphenyl)methylsulfanyl]butanoic acid
@<TRIPOS>ATOM
      1 C1          1.1349    4.6304   -4.8388 C.3       1 <0>         0.0225
      2 O1          0.7829    3.4204   -4.1649 O.3       1 <0>        -0.3117
      3 C2         -0.1672    2.6433   -4.7483 C.ar      1 <0>         0.1458
      4 C3         -0.7485    3.0370   -5.9451 C.ar      1 <0>        -0.2097
      5 C4         -1.7136    2.2452   -6.5362 C.ar      1 <0>        -0.0702
      6 C5         -2.1006    1.0609   -5.9362 C.ar      1 <0>        -0.1559
      7 C6         -1.5192    0.6638   -4.7465 C.ar      1 <0>        -0.0615
      8 C7         -0.5572    1.4549   -4.1485 C.ar      1 <0>        -0.1136
      9 C8          0.0725    1.0239   -2.8490 C.3       1 <0>        -0.0375
     10 S1         -0.8901    1.6867   -1.4616 S.3       1 <0>        -0.2241
     11 C9         -0.0127    1.0858    0.0080 C.3       1 <0>        -0.1111
     12 C10        -0.7288    1.5792    1.2668 C.3       1 <0>        -0.1108
     13 C11         0.0111    1.0724    2.5063 C.3       1 <0>        -0.0031
     14 H1          0.1380   -0.0196    2.4698 H         1 <0>         0.1342
     15 C12        -0.7607    1.4538    3.7432 C.2       1 <0>         0.4549
     16 O2         -0.4228    2.4141    4.3940 O.co2     1 <0>        -0.6168
     17 O3         -1.8237    0.7269    4.1217 O.co2     1 <0>        -0.7026
     18 N1          1.3494    1.6761    2.5587 N.4       1 <0>        -0.6668
     19 H2          1.9088    5.1590   -4.2629 H         1 <0>         0.1029
     20 H3          0.2452    5.2707   -4.9314 H         1 <0>         0.0588
     21 H4          1.5216    4.3929   -5.8408 H         1 <0>         0.0573
     22 H5         -0.4463    3.9617   -6.4142 H         1 <0>         0.1311
     23 H6         -2.1661    2.5511   -7.4679 H         1 <0>         0.1282
     24 H7         -2.8554    0.4432   -6.4000 H         1 <0>         0.1286
     25 H8         -1.8202   -0.2636   -4.2820 H         1 <0>         0.1324
     26 H9          0.0856   -0.0747   -2.7945 H         1 <0>         0.0908
     27 H10         1.1027    1.4060   -2.7962 H         1 <0>         0.0934
     28 H11         0.0022   -0.0141    0.0019 H         1 <0>         0.0929
     29 H12         1.0193    1.4665    0.0002 H         1 <0>         0.0714
     30 H13        -0.7437    2.6791    1.2728 H         1 <0>         0.0926
     31 H14        -1.7608    1.1985    1.2746 H         1 <0>         0.1192
     32 H15         1.8814    1.3117    3.4499 H         1 <0>         0.4534
     33 H16         1.2560    2.7710    2.6095 H         1 <0>         0.4533
     34 H17         1.9128    1.3976    1.6559 H         1 <0>         0.4319
@<TRIPOS>BOND
     1    1    2 1
     2    1   19 1
     3    1   20 1
     4    1   21 1
     5    2    3 1
     6    3    8 ar
     7    3    4 ar
     8    4    5 ar
     9    4   22 1
    10    5    6 ar
    11    5   23 1
    12    6    7 ar
    13    6   24 1
    14    7    8 ar
    15    7   25 1
    16    8    9 1
    17    9   10 1
    18    9   26 1
    19    9   27 1
    20   10   11 1
    21   11   12 1
    22   11   28 1
    23   11   29 1
    24   12   13 1
    25   12   30 1
    26   12   31 1
    27   13   14 1
    28   13   15 1
    29   13   18 1
    30   15   16 2
    31   15   17 1
    32   18   32 1
    33   18   33 1
    34   18   34 1
@<TRIPOS>MOLECULE
ZINC28570579
   34    34     0     0     0
SMALL
USER_CHARGES
(2S)-2-amino-4-[(2-methoxyphenyl)methylsulfanyl]butanoic acid
@<TRIPOS>ATOM
      1 C1          3.3687    6.6084    3.5818 C.3       1 <0>         0.0223
      2 O1          3.2934    5.8374    2.3810 O.3       1 <0>        -0.3099
      3 C2          3.3376    6.5192    1.2062 C.ar      1 <0>         0.1478
      4 C3          3.4516    7.9020    1.2092 C.ar      1 <0>        -0.2095
      5 C4          3.4968    8.5927    0.0139 C.ar      1 <0>        -0.0698
      6 C5          3.4286    7.9071   -1.1852 C.ar      1 <0>        -0.1576
      7 C6          3.3203    6.5289   -1.1909 C.ar      1 <0>        -0.0624
      8 C7          3.2694    5.8338    0.0022 C.ar      1 <0>        -0.1147
      9 C8          3.1460    4.3319   -0.0047 C.3       1 <0>        -0.0374
     10 S1          1.3921    3.8692    0.0095 S.3       1 <0>        -0.2241
     11 C9          1.4167    2.0553   -0.0004 C.3       1 <0>        -0.1111
     12 C10        -0.0187    1.5258    0.0104 C.3       1 <0>        -0.1107
     13 C11         0.0021   -0.0041    0.0020 C.3       1 <0>        -0.0032
     14 H1          0.6228   -0.3941    0.8221 H         1 <0>         0.1342
     15 C12        -1.4051   -0.5263    0.1365 C.2       1 <0>         0.4548
     16 O2         -2.0063   -0.9018   -0.8420 O.co2     1 <0>        -0.6168
     17 O3         -1.9907   -0.5743    1.3433 O.co2     1 <0>        -0.7025
     18 N1          0.5820   -0.4790   -1.2614 N.4       1 <0>        -0.6666
     19 H2          3.3223    5.9372    4.4520 H         1 <0>         0.1045
     20 H3          2.5258    7.3142    3.6178 H         1 <0>         0.0591
     21 H4          4.3160    7.1673    3.5999 H         1 <0>         0.0571
     22 H5          3.5053    8.4379    2.1453 H         1 <0>         0.1317
     23 H6          3.5859    9.6690    0.0156 H         1 <0>         0.1280
     24 H7          3.4641    8.4489   -2.1187 H         1 <0>         0.1278
     25 H8          3.2713    5.9954   -2.1286 H         1 <0>         0.1306
     26 H9          3.6242    3.9289   -0.9096 H         1 <0>         0.0886
     27 H10         3.6413    3.9192    0.8865 H         1 <0>         0.0954
     28 H11         1.9316    1.7005   -0.9054 H         1 <0>         0.0709
     29 H12         1.9487    1.6909    0.8908 H         1 <0>         0.0933
     30 H13        -0.5336    1.8806    0.9154 H         1 <0>         0.1192
     31 H14        -0.5507    1.8902   -0.8808 H         1 <0>         0.0926
     32 H15         0.5969   -1.5789   -1.2674 H         1 <0>         0.4534
     33 H16         1.6092   -0.0978   -1.3596 H         1 <0>         0.4317
     34 H17        -0.0259   -0.1159   -2.1032 H         1 <0>         0.4532
@<TRIPOS>BOND
     1    1    2 1
     2    1   19 1
     3    1   20 1
     4    1   21 1
     5    2    3 1
     6    3    8 ar
     7    3    4 ar
     8    4    5 ar
     9    4   22 1
    10    5    6 ar
    11    5   23 1
    12    6    7 ar
    13    6   24 1
    14    7    8 ar
    15    7   25 1
    16    8    9 1
    17    9   10 1
    18    9   26 1
    19    9   27 1
    20   10   11 1
    21   11   12 1
    22   11   28 1
    23   11   29 1
    24   12   13 1
    25   12   30 1
    26   12   31 1
    27   13   14 1
    28   13   15 1
    29   13   18 1
    30   15   16 2
    31   15   17 1
    32   18   32 1
    33   18   33 1
    34   18   34 1
@<TRIPOS>MOLECULE
ZINC28570580
   34    34     0     0     0
SMALL
USER_CHARGES
(2R)-2-amino-4-[(3-methoxyphenyl)methylsulfanyl]butanoic acid
@<TRIPOS>ATOM
      1 C1         -1.4654    4.8628   -4.6068 C.3       1 <0>         0.0227
      2 O1         -0.7321    4.4537   -3.4506 O.3       1 <0>        -0.3167
      3 C2         -1.0687    3.2590   -2.8973 C.ar      1 <0>         0.1282
      4 C3         -2.0839    2.4957   -3.4561 C.ar      1 <0>        -0.2001
      5 C4         -2.4238    1.2816   -2.8921 C.ar      1 <0>        -0.0775
      6 C5         -1.7498    0.8241   -1.7746 C.ar      1 <0>        -0.1368
      7 C6         -0.7416    1.5850   -1.2129 C.ar      1 <0>        -0.0412
      8 C7         -0.3977    2.8002   -1.7733 C.ar      1 <0>        -0.1338
      9 C8         -0.0127    1.0858    0.0080 C.3       1 <0>        -0.0508
     10 S1         -0.8618    1.6708    1.5005 S.3       1 <0>        -0.2185
     11 C9          0.1270    0.9932    2.8620 C.3       1 <0>        -0.1123
     12 C10        -0.4869    1.4165    4.1980 C.3       1 <0>        -0.1115
     13 C11         0.3471    0.8450    5.3463 C.3       1 <0>        -0.0030
     14 H1          0.4685   -0.2432    5.2410 H         1 <0>         0.1344
     15 C12        -0.3243    1.1575    6.6588 C.2       1 <0>         0.4546
     16 O2          0.0659    2.0819    7.3320 O.co2     1 <0>        -0.6163
     17 O3         -1.3559    0.4090    7.0799 O.co2     1 <0>        -0.7022
     18 N1          1.6866    1.4477    5.3259 N.4       1 <0>        -0.6669
     19 H2         -1.0940    5.8398   -4.9498 H         1 <0>         0.1041
     20 H3         -2.5329    4.9444   -4.3540 H         1 <0>         0.0582
     21 H4         -1.3338    4.1191   -5.4066 H         1 <0>         0.0576
     22 H5         -2.6075    2.8506   -4.3314 H         1 <0>         0.1308
     23 H6         -3.2136    0.6870   -3.3269 H         1 <0>         0.1297
     24 H7         -2.0141   -0.1276   -1.3377 H         1 <0>         0.1274
     25 H8          0.3925    3.3926   -1.3363 H         1 <0>         0.1318
     26 H9          0.0022   -0.0141    0.0019 H         1 <0>         0.0961
     27 H10         1.0193    1.4665    0.0002 H         1 <0>         0.0931
     28 H11         0.1389   -0.1047    2.7954 H         1 <0>         0.0944
     29 H12         1.1560    1.3759    2.7937 H         1 <0>         0.0726
     30 H13        -0.4988    2.5144    4.2645 H         1 <0>         0.0933
     31 H14        -1.5159    1.0338    4.2663 H         1 <0>         0.1198
     32 H15         2.2862    1.0368    6.1515 H         1 <0>         0.4538
     33 H16         1.5999    2.5380    5.4430 H         1 <0>         0.4536
     34 H17         2.1767    1.2196    4.3679 H         1 <0>         0.4316
@<TRIPOS>BOND
     1    1    2 1
     2    1   19 1
     3    1   20 1
     4    1   21 1
     5    2    3 1
     6    3    8 ar
     7    3    4 ar
     8    4    5 ar
     9    4   22 1
    10    5    6 ar
    11    5   23 1
    12    6    7 ar
    13    6   24 1
    14    7    8 ar
    15    7    9 1
    16    8   25 1
    17    9   10 1
    18    9   26 1
    19    9   27 1
    20   10   11 1
    21   11   12 1
    22   11   28 1
    23   11   29 1
    24   12   13 1
    25   12   30 1
    26   12   31 1
    27   13   14 1
    28   13   15 1
    29   13   18 1
    30   15   16 2
    31   15   17 1
    32   18   32 1
    33   18   33 1
    34   18   34 1
@<TRIPOS>MOLECULE
ZINC28570581
   34    34     0     0     0
SMALL
USER_CHARGES
(2S)-2-amino-4-[(3-methoxyphenyl)methylsulfanyl]butanoic acid
@<TRIPOS>ATOM
      1 C1         -2.2997   -0.3660    0.0108 C.3       1 <0>         0.0227
      2 O1         -2.3918    1.0600    0.0191 O.3       1 <0>        -0.3167
      3 C2         -1.2232    1.7538    0.0174 C.ar      1 <0>         0.1283
      4 C3         -0.0126    1.0758    0.0080 C.ar      1 <0>        -0.2001
      5 C4          1.1737    1.7832    0.0004 C.ar      1 <0>        -0.0776
      6 C5          1.1556    3.1660    0.0081 C.ar      1 <0>        -0.1368
      7 C6         -0.0491    3.8437    0.0233 C.ar      1 <0>        -0.0412
      8 C7         -1.2386    3.1407    0.0313 C.ar      1 <0>        -0.1338
      9 C8         -0.0652    5.3506    0.0316 C.3       1 <0>        -0.0508
     10 S1         -0.0880    5.9645   -1.6753 S.3       1 <0>        -0.2186
     11 C9         -0.1055    7.7692   -1.4924 C.3       1 <0>        -0.1123
     12 C10        -0.1257    8.4218   -2.8760 C.3       1 <0>        -0.1115
     13 C11        -0.1405    9.9440   -2.7218 C.3       1 <0>        -0.0030
     14 H1          0.6901   10.2836   -2.0856 H         1 <0>         0.1344
     15 C12        -0.0364   10.5876   -4.0804 C.2       1 <0>         0.4545
     16 O2         -1.0284   11.0080   -4.6274 O.co2     1 <0>        -0.6163
     17 O3          1.1583   10.6939   -4.6830 O.co2     1 <0>        -0.7022
     18 N1         -1.3941   10.3587   -2.0782 N.4       1 <0>        -0.6669
     19 H2         -3.3110   -0.7987    0.0132 H         1 <0>         0.1040
     20 H3         -1.7544   -0.7034    0.9045 H         1 <0>         0.0576
     21 H4         -1.7629   -0.6935   -0.8917 H         1 <0>         0.0582
     22 H5          0.0021   -0.0041    0.0020 H         1 <0>         0.1308
     23 H6          2.1162    1.2560   -0.0118 H         1 <0>         0.1297
     24 H7          2.0843    3.7173    0.0018 H         1 <0>         0.1274
     25 H8         -2.1795    3.6707    0.0436 H         1 <0>         0.1318
     26 H9         -0.9622    5.7048    0.5607 H         1 <0>         0.0931
     27 H10         0.8339    5.7241    0.5436 H         1 <0>         0.0961
     28 H11        -1.0016    8.0722   -0.9310 H         1 <0>         0.0726
     29 H12         0.7945    8.0914   -0.9481 H         1 <0>         0.0945
     30 H13         0.7704    8.1188   -3.4374 H         1 <0>         0.1198
     31 H14        -1.0257    8.0996   -3.4203 H         1 <0>         0.0933
     32 H15        -1.4048   11.4530   -1.9673 H         1 <0>         0.4538
     33 H16        -1.4700    9.8889   -1.0865 H         1 <0>         0.4316
     34 H17        -2.2463   10.0447   -2.6989 H         1 <0>         0.4536
@<TRIPOS>BOND
     1    1    2 1
     2    1   19 1
     3    1   20 1
     4    1   21 1
     5    2    3 1
     6    3    8 ar
     7    3    4 ar
     8    4    5 ar
     9    4   22 1
    10    5    6 ar
    11    5   23 1
    12    6    7 ar
    13    6   24 1
    14    7    8 ar
    15    7    9 1
    16    8   25 1
    17    9   10 1
    18    9   26 1
    19    9   27 1
    20   10   11 1
    21   11   12 1
    22   11   28 1
    23   11   29 1
    24   12   13 1
    25   12   30 1
    26   12   31 1
    27   13   14 1
    28   13   15 1
    29   13   18 1
    30   15   16 2
    31   15   17 1
    32   18   32 1
    33   18   33 1
    34   18   34 1
@<TRIPOS>MOLECULE
ZINC28570309
   30    30     0     0     0
SMALL
USER_CHARGES
(2S)-2-amino-4-[(2,5-dichlorophenyl)methylsulfanyl]butanoic acid
@<TRIPOS>ATOM
      1 C1          1.2083   -0.6788   -0.0131 C.ar      1 <0>        -0.0897
      2 C2          0.0021   -0.0041    0.0020 C.ar      1 <0>        -0.0956
      3 C3         -0.0167    1.3791    0.0096 C.ar      1 <0>        -0.0175
      4 C4          1.1721    2.0872    0.0021 C.ar      1 <0>        -0.0583
      5 C5          2.3780    1.4127   -0.0130 C.ar      1 <0>        -0.0805
      6 C6          2.3968    0.0291   -0.0206 C.ar      1 <0>        -0.0321
      7 Cl1         3.9117   -0.8183   -0.0390 Cl        1 <0>        -0.0532
      8 C7          1.1517    3.5941    0.0098 C.3       1 <0>        -0.0596
      9 S1          1.1595    4.1901    1.7231 S.3       1 <0>        -0.2096
     10 C8          1.1334    5.9965    1.5595 C.3       1 <0>        -0.1117
     11 C9          1.1376    6.6347    2.9500 C.3       1 <0>        -0.1115
     12 C10         1.1156    8.1583    2.8120 C.3       1 <0>        -0.0030
     13 H1          0.2771    8.4843    2.1790 H         1 <0>         0.1346
     14 C11         0.9958    8.7847    4.1774 C.2       1 <0>         0.4546
     15 O1          1.9773    9.2231    4.7291 O.co2     1 <0>        -0.6161
     16 O2         -0.2011    8.8556    4.7807 O.co2     1 <0>        -0.7016
     17 N1          2.3589    8.6101    2.1733 N.4       1 <0>        -0.6669
     18 Cl2        -1.5317    2.2266    0.0214 Cl        1 <0>        -0.0461
     19 H2          1.2230   -1.7587   -0.0194 H         1 <0>         0.1472
     20 H3         -0.9258   -0.5567    0.0075 H         1 <0>         0.1483
     21 H4          3.3058    1.9654   -0.0185 H         1 <0>         0.1448
     22 H5          2.0399    3.9755   -0.5152 H         1 <0>         0.0985
     23 H6          0.2439    3.9511   -0.4985 H         1 <0>         0.1030
     24 H7          2.0220    6.3270    1.0017 H         1 <0>         0.0735
     25 H8          0.2260    6.3026    1.0183 H         1 <0>         0.0956
     26 H9          0.2490    6.3042    3.5078 H         1 <0>         0.1203
     27 H10         2.0450    6.3286    3.4912 H         1 <0>         0.0936
     28 H11         2.3431    9.7055    2.0741 H         1 <0>         0.4541
     29 H12         2.4463    8.1529    1.1767 H         1 <0>         0.4313
     30 H13         3.2183    8.3102    2.7909 H         1 <0>         0.4535
@<TRIPOS>BOND
     1    1    6 ar
     2    1    2 ar
     3    1   19 1
     4    2    3 ar
     5    2   20 1
     6    3    4 ar
     7    3   18 1
     8    4    5 ar
     9    4    8 1
    10    5    6 ar
    11    5   21 1
    12    6    7 1
    13    8    9 1
    14    8   22 1
    15    8   23 1
    16    9   10 1
    17   10   11 1
    18   10   24 1
    19   10   25 1
    20   11   12 1
    21   11   26 1
    22   11   27 1
    23   12   13 1
    24   12   14 1
    25   12   17 1
    26   14   15 2
    27   14   16 1
    28   17   28 1
    29   17   29 1
    30   17   30 1
@<TRIPOS>MOLECULE
ZINC28570310
   30    30     0     0     0
SMALL
USER_CHARGES
(2R)-2-amino-4-[(2,5-dichlorophenyl)methylsulfanyl]butanoic acid
@<TRIPOS>ATOM
      1 C1          1.2083   -0.6788   -0.0131 C.ar      1 <0>        -0.0898
      2 C2          0.0021   -0.0041    0.0020 C.ar      1 <0>        -0.0961
      3 C3         -0.0167    1.3791    0.0096 C.ar      1 <0>        -0.0175
      4 C4          1.1721    2.0872    0.0021 C.ar      1 <0>        -0.0578
      5 C5          2.3780    1.4127   -0.0130 C.ar      1 <0>        -0.0795
      6 C6          2.3968    0.0291   -0.0206 C.ar      1 <0>        -0.0309
      7 Cl1         3.9117   -0.8183   -0.0390 Cl        1 <0>        -0.0515
      8 C7          1.1517    3.5941    0.0098 C.3       1 <0>        -0.0597
      9 S1          1.1595    4.1901    1.7231 S.3       1 <0>        -0.2096
     10 C8          1.1334    5.9965    1.5595 C.3       1 <0>        -0.1116
     11 C9          1.1376    6.6347    2.9500 C.3       1 <0>        -0.1115
     12 C10         1.1156    8.1583    2.8120 C.3       1 <0>        -0.0028
     13 H1          1.9331    8.5069    2.1638 H         1 <0>         0.1347
     14 C11         1.2435    8.7880    4.1751 C.2       1 <0>         0.4546
     15 O1          0.2608    9.1997    4.7450 O.co2     1 <0>        -0.6160
     16 O2          2.4491    8.8916    4.7561 O.co2     1 <0>        -0.7019
     17 N1         -0.1512    8.5759    2.1965 N.4       1 <0>        -0.6672
     18 Cl2        -1.5317    2.2266    0.0214 Cl        1 <0>        -0.0513
     19 H2          1.2230   -1.7587   -0.0194 H         1 <0>         0.1473
     20 H3         -0.9258   -0.5567    0.0075 H         1 <0>         0.1479
     21 H4          3.3058    1.9654   -0.0185 H         1 <0>         0.1465
     22 H5          2.0399    3.9755   -0.5152 H         1 <0>         0.1006
     23 H6          0.2439    3.9511   -0.4985 H         1 <0>         0.1011
     24 H7          2.0220    6.3270    1.0017 H         1 <0>         0.0956
     25 H8          0.2260    6.3026    1.0183 H         1 <0>         0.0734
     26 H9          0.2490    6.3042    3.5078 H         1 <0>         0.0937
     27 H10         2.0450    6.3286    3.4912 H         1 <0>         0.1203
     28 H11        -0.1671    9.6713    2.0973 H         1 <0>         0.4541
     29 H12        -0.9906    8.2529    2.8298 H         1 <0>         0.4536
     30 H13        -0.2445    8.1162    1.2015 H         1 <0>         0.4315
@<TRIPOS>BOND
     1    1    6 ar
     2    1    2 ar
     3    1   19 1
     4    2    3 ar
     5    2   20 1
     6    3    4 ar
     7    3   18 1
     8    4    5 ar
     9    4    8 1
    10    5    6 ar
    11    5   21 1
    12    6    7 1
    13    8    9 1
    14    8   22 1
    15    8   23 1
    16    9   10 1
    17   10   11 1
    18   10   24 1
    19   10   25 1
    20   11   12 1
    21   11   26 1
    22   11   27 1
    23   12   13 1
    24   12   14 1
    25   12   17 1
    26   14   15 2
    27   14   16 1
    28   17   28 1
    29   17   29 1
    30   17   30 1
@<TRIPOS>MOLECULE
ZINC00105196
   23    23     0     0     0
SMALL
USER_CHARGES

@<TRIPOS>ATOM
      1 C1         -0.0167    1.3781    0.0096 C.ar      1 <0>        -0.1158
      2 C2          1.1709    2.0855    0.0021 C.ar      1 <0>        -0.1117
      3 C3          2.3773    1.4107   -0.0130 C.ar      1 <0>        -0.1423
      4 C4          2.3960    0.0285   -0.0201 C.ar      1 <0>        -0.1094
      5 C5          1.2084   -0.6789   -0.0117 C.ar      1 <0>        -0.1066
      6 C6          0.0021   -0.0041    0.0020 C.ar      1 <0>        -0.1088
      7 C7          3.7112   -0.7071   -0.0376 C.3       1 <0>        -0.0859
      8 C8          4.1714   -0.9633    1.3989 C.3       1 <0>        -0.0423
      9 H1          3.3868   -1.4885    1.9436 H         1 <0>         0.1329
     10 C9          5.4216   -1.8045    1.3834 C.2       1 <0>         0.4885
     11 O1          6.5163   -1.2690    1.3447 O.co2     1 <0>        -0.6672
     12 O2          5.3385   -3.0206    1.4096 O.co2     1 <0>        -0.6351
     13 N1          4.4519    0.3186    2.0592 N.4       1 <0>        -0.6149
     14 H2         -0.9591    1.9053    0.0259 H         1 <0>         0.1267
     15 H3          1.1563    3.1654    0.0076 H         1 <0>         0.1272
     16 H4          3.3051    1.9634   -0.0196 H         1 <0>         0.1219
     17 H5          1.2231   -1.7588   -0.0176 H         1 <0>         0.1303
     18 H6         -0.9258   -0.5567    0.0082 H         1 <0>         0.1283
     19 H7          3.5884   -1.6586   -0.5549 H         1 <0>         0.1151
     20 H8          4.4573   -0.1052   -0.5563 H         1 <0>         0.0940
     21 H9          4.7554    0.1497    3.0065 H         1 <0>         0.4306
     22 H10         5.1782    0.8048    1.5550 H         1 <0>         0.4320
     23 H11         3.6148    0.8819    2.0696 H         1 <0>         0.4126
@<TRIPOS>BOND
     1    1    6 ar
     2    1    2 ar
     3    1   14 1
     4    2    3 ar
     5    2   15 1
     6    3    4 ar
     7    3   16 1
     8    4    5 ar
     9    4    7 1
    10    5    6 ar
    11    5   17 1
    12    6   18 1
    13    7    8 1
    14    7   19 1
    15    7   20 1
    16    8    9 1
    17    8   10 1
    18    8   13 1
    19   10   11 2
    20   10   12 1
    21   13   21 1
    22   13   22 1
    23   13   23 1
@<TRIPOS>MOLECULE
ZINC28570764
   30    30     0     0     0
SMALL
USER_CHARGES
(2S)-2-amino-4-[(4-chlorophenyl)methylsulfanyl]butanoic acid
@<TRIPOS>ATOM
      1 C1          1.4227    8.5847   -4.9859 C.ar      1 <0>        -0.0874
      2 C2          1.2052    9.1770   -6.2157 C.ar      1 <0>        -0.1101
      3 C3         -0.0865    9.4226   -6.6461 C.ar      1 <0>        -0.0269
      4 C4         -1.1600    9.0700   -5.8477 C.ar      1 <0>        -0.1091
      5 C5         -0.9414    8.4726   -4.6207 C.ar      1 <0>        -0.0861
      6 C6          0.3495    8.2274   -4.1911 C.ar      1 <0>        -0.0765
      7 C7          0.5872    7.5760   -2.8531 C.3       1 <0>        -0.0521
      8 S1          0.6368    5.7743   -3.0580 S.3       1 <0>        -0.2198
      9 C8          0.9262    5.1496   -1.3798 C.3       1 <0>        -0.1116
     10 C9          0.9909    3.6212   -1.4086 C.3       1 <0>        -0.1116
     11 C10         1.2350    3.0943    0.0069 C.3       1 <0>        -0.0031
     12 H1          0.4874    3.4915    0.7093 H         1 <0>         0.1345
     13 C11         1.1765    1.5884   -0.0006 C.2       1 <0>         0.4544
     14 O1          2.1986    0.9442   -0.0139 O.co2     1 <0>        -0.6160
     15 O2         -0.0110    0.9628    0.0073 O.co2     1 <0>        -0.7018
     16 N1          2.5589    3.5306    0.4703 N.4       1 <0>        -0.6669
     17 Cl1        -0.3603   10.1725   -8.1877 Cl        1 <0>        -0.0635
     18 H2          2.4310    8.3970   -4.6479 H         1 <0>         0.1338
     19 H3          2.0435    9.4521   -6.8385 H         1 <0>         0.1373
     20 H4         -2.1685    9.2611   -6.1834 H         1 <0>         0.1380
     21 H5         -1.7793    8.1969   -3.9975 H         1 <0>         0.1355
     22 H6          1.5455    7.9246   -2.4407 H         1 <0>         0.0935
     23 H7         -0.2276    7.8444   -2.1646 H         1 <0>         0.0957
     24 H8          1.8773    5.5497   -0.9986 H         1 <0>         0.0728
     25 H9          0.1041    5.4695   -0.7226 H         1 <0>         0.0948
     26 H10         0.0398    3.2211   -1.7899 H         1 <0>         0.1200
     27 H11         1.8130    3.3013   -2.0658 H         1 <0>         0.0934
     28 H12         2.7343    3.1518    1.4880 H         1 <0>         0.4541
     29 H13         2.6016    4.6298    0.4758 H         1 <0>         0.4313
     30 H14         3.3321    3.1370   -0.2059 H         1 <0>         0.4535
@<TRIPOS>BOND
     1    1    6 ar
     2    1    2 ar
     3    1   18 1
     4    2    3 ar
     5    2   19 1
     6    3    4 ar
     7    3   17 1
     8    4    5 ar
     9    4   20 1
    10    5    6 ar
    11    5   21 1
    12    6    7 1
    13    7    8 1
    14    7   22 1
    15    7   23 1
    16    8    9 1
    17    9   10 1
    18    9   24 1
    19    9   25 1
    20   10   11 1
    21   10   26 1
    22   10   27 1
    23   11   12 1
    24   11   13 1
    25   11   16 1
    26   13   14 2
    27   13   15 1
    28   16   28 1
    29   16   29 1
    30   16   30 1
@<TRIPOS>MOLECULE
ZINC28570765
   30    30     0     0     0
SMALL
USER_CHARGES
(2R)-2-amino-4-[(4-chlorophenyl)methylsulfanyl]butanoic acid
@<TRIPOS>ATOM
      1 C1         -4.8111    6.5791   -4.6140 C.ar      1 <0>        -0.0862
      2 C2         -5.2086    7.0679   -5.8442 C.ar      1 <0>        -0.1090
      3 C3         -6.0735    6.3316   -6.6341 C.ar      1 <0>        -0.0270
      4 C4         -6.5356    5.1039   -6.1945 C.ar      1 <0>        -0.1101
      5 C5         -6.1329    4.6136   -4.9666 C.ar      1 <0>        -0.0875
      6 C6         -5.2686    5.3497   -4.1777 C.ar      1 <0>        -0.0765
      7 C7         -4.8300    4.8145   -2.8390 C.3       1 <0>        -0.0521
      8 S1         -3.3198    3.8312   -3.0463 S.3       1 <0>        -0.2198
      9 C8         -2.9291    3.2676   -1.3669 C.3       1 <0>        -0.1116
     10 C9         -1.6590    2.4150   -1.3976 C.3       1 <0>        -0.1116
     11 C10        -1.3295    1.9397    0.0189 C.3       1 <0>        -0.0031
     12 H1         -1.2747    2.7885    0.7164 H         1 <0>         0.1345
     13 C11        -0.0143    1.2041    0.0087 C.2       1 <0>         0.4543
     14 O1          0.0021   -0.0041    0.0020 O.co2     1 <0>        -0.6161
     15 O2          1.1389    1.8910    0.0013 O.co2     1 <0>        -0.7018
     16 N1         -2.3900    1.0404    0.4927 N.4       1 <0>        -0.6669
     17 Cl1        -6.5784    6.9479   -8.1765 Cl        1 <0>        -0.0635
     18 H2         -4.1394    7.1557   -3.9953 H         1 <0>         0.1354
     19 H3         -4.8476    8.0264   -6.1868 H         1 <0>         0.1380
     20 H4         -7.2105    4.5285   -6.8109 H         1 <0>         0.1374
     21 H5         -6.4932    3.6550   -4.6235 H         1 <0>         0.1338
     22 H6         -4.6304    5.6535   -2.1562 H         1 <0>         0.0957
     23 H7         -5.6252    4.1811   -2.4189 H         1 <0>         0.0935
     24 H8         -2.7698    4.1394   -0.7153 H         1 <0>         0.0948
     25 H9         -3.7646    2.6670   -0.9780 H         1 <0>         0.0728
     26 H10        -1.8183    1.5432   -2.0492 H         1 <0>         0.0934
     27 H11        -0.8235    3.0156   -1.7865 H         1 <0>         0.1200
     28 H12        -2.1531    0.6987    1.5111 H         1 <0>         0.4541
     29 H13        -2.4610    0.1717   -0.1783 H         1 <0>         0.4535
     30 H14        -3.3500    1.5774    0.5001 H         1 <0>         0.4313
@<TRIPOS>BOND
     1    1    6 ar
     2    1    2 ar
     3    1   18 1
     4    2    3 ar
     5    2   19 1
     6    3    4 ar
     7    3   17 1
     8    4    5 ar
     9    4   20 1
    10    5    6 ar
    11    5   21 1
    12    6    7 1
    13    7    8 1
    14    7   22 1
    15    7   23 1
    16    8    9 1
    17    9   10 1
    18    9   24 1
    19    9   25 1
    20   10   11 1
    21   10   26 1
    22   10   27 1
    23   11   12 1
    24   11   13 1
    25   11   16 1
    26   13   14 2
    27   13   15 1
    28   16   28 1
    29   16   29 1
    30   16   30 1
@<TRIPOS>MOLECULE
ZINC02567159
   23    23     0     0     0
SMALL
USER_CHARGES
(2S)-2-amino-2-(p-tolyl)acetic acid
@<TRIPOS>ATOM
      1 C1          0.0601   -4.2753   -0.0212 C.3       1 <0>        -0.1208
      2 C2          0.0397   -2.7685   -0.0128 C.ar      1 <0>        -0.0703
      3 C3          1.1512   -2.0599   -0.4291 C.ar      1 <0>        -0.1137
      4 C4          1.1323   -0.6777   -0.4219 C.ar      1 <0>        -0.0780
      5 C5          0.0021   -0.0041    0.0020 C.ar      1 <0>        -0.1133
      6 C6         -1.1074   -0.7127    0.4236 C.ar      1 <0>        -0.1155
      7 C7         -1.0904   -2.0949    0.4115 C.ar      1 <0>        -0.1133
      8 C8         -0.0184    1.5028    0.0103 C.3       1 <0>         0.0289
      9 H1          1.0042    1.8801    0.0026 H         1 <0>         0.1447
     10 C9         -0.7472    2.0020   -1.2106 C.2       1 <0>         0.4597
     11 O1         -1.8983    2.3586   -1.1233 O.co2     1 <0>        -0.6141
     12 H2          0.4257   -4.6390    0.9391 H         1 <0>         0.0748
     13 H3         -0.9486   -4.6514   -0.1921 H         1 <0>         0.0704
     14 H4          0.7180   -4.6254   -0.8166 H         1 <0>         0.0712
     15 H5          2.0343   -2.5861   -0.7603 H         1 <0>         0.1313
     16 H6          2.0008   -0.1240   -0.7471 H         1 <0>         0.1333
     17 H7         -1.9889   -0.1864    0.7590 H         1 <0>         0.1204
     18 H8         -1.9587   -2.6485    0.7370 H         1 <0>         0.1295
     19 H9         -1.6566    1.6399    1.2495 H         1 <0>         0.4324
     20 H10        -0.2008    1.7093    2.0505 H         1 <0>         0.4231
     21 O2         -0.1176    2.0504   -2.3951 O.co2     1 <0>        -0.6956
     22 N1         -0.7049    2.0015    1.2149 N.4       1 <0>        -0.6238
     23 H11        -0.7372    3.0273    1.1847 H         1 <0>         0.4388
@<TRIPOS>BOND
     1    1    2 1
     2    1   12 1
     3    1   13 1
     4    1   14 1
     5    2    7 ar
     6    2    3 ar
     7    3    4 ar
     8    3   15 1
     9    4    5 ar
    10    4   16 1
    11    5    6 ar
    12    5    8 1
    13    6    7 ar
    14    6   17 1
    15    7   18 1
    16    8    9 1
    17    8   10 1
    18    8   22 1
    19   10   11 2
    20   10   21 1
    21   19   22 1
    22   20   22 1
    23   22   23 1
@<TRIPOS>MOLECULE
ZINC00154475
   20    20     0     0     0
SMALL
USER_CHARGES
2-amino-2-phenyl-acetic acid
@<TRIPOS>ATOM
      1 C1          1.2084   -0.6789   -0.0136 C.ar      1 <0>        -0.1053
      2 C2          0.0021   -0.0041    0.0020 C.ar      1 <0>        -0.1118
      3 C3         -0.0167    1.3781    0.0096 C.ar      1 <0>        -0.0826
      4 C4          1.1709    2.0855    0.0021 C.ar      1 <0>        -0.1109
      5 C5          2.3773    1.4107   -0.0136 C.ar      1 <0>        -0.1211
      6 C6          2.3961    0.0285   -0.0212 C.ar      1 <0>        -0.1116
      7 C7          1.1505    3.5924    0.0099 C.3       1 <0>         0.0287
      8 H1          0.1767    3.9443   -0.3307 H         1 <0>         0.1450
      9 C8          1.4035    4.0909    1.4094 C.2       1 <0>         0.4621
     10 O1          2.5045    4.4769    1.7234 O.co2     1 <0>        -0.6130
     11 H2          1.2231   -1.7588   -0.0196 H         1 <0>         0.1295
     12 H3         -0.9258   -0.5567    0.0079 H         1 <0>         0.1319
     13 H4         -0.9592    1.9054    0.0170 H         1 <0>         0.1333
     14 H5          3.3052    1.9634   -0.0192 H         1 <0>         0.1207
     15 H6          3.3386   -0.4987   -0.0327 H         1 <0>         0.1302
     16 H7          2.1615    5.1074   -0.9497 H         1 <0>         0.4359
     17 H8          3.1093    3.7882   -0.5929 H         1 <0>         0.4329
     18 O2          0.4057    4.1061    2.3071 O.co2     1 <0>        -0.6954
     19 N1          2.1892    4.0899   -0.9093 N.4       1 <0>        -0.6239
     20 H9          2.0175    3.7125   -1.8486 H         1 <0>         0.4253
@<TRIPOS>BOND
     1    1    6 ar
     2    1    2 ar
     3    1   11 1
     4    2    3 ar
     5    2   12 1
     6    3    4 ar
     7    3   13 1
     8    4    5 ar
     9    4    7 1
    10    5    6 ar
    11    5   14 1
    12    6   15 1
    13    7    8 1
    14    7    9 1
    15    7   19 1
    16    9   10 2
    17    9   18 1
    18   16   19 1
    19   17   19 1
    20   19   20 1
@<TRIPOS>MOLECULE
ZINC28570225
   32    32     0     0     0
SMALL
USER_CHARGES
(2S)-2-amino-4-[(2-nitrophenyl)methylsulfanyl]butanoic acid
@<TRIPOS>ATOM
      1 C1          1.2068   -0.6763    0.0265 C.ar      1 <0>        -0.0636
      2 C2          1.2260   -2.0575    0.0838 C.ar      1 <0>        -0.1115
      3 C3          0.0401   -2.7669    0.0556 C.ar      1 <0>        -0.0535
      4 C4         -1.1649   -2.0955   -0.0385 C.ar      1 <0>        -0.0327
      5 C5         -1.1841   -0.7147   -0.0948 C.ar      1 <0>        -0.0107
      6 C6          0.0020   -0.0050   -0.0627 C.ar      1 <0>        -0.1035
      7 C7         -2.4978    0.0173   -0.1916 C.3       1 <0>        -0.0776
      8 S1         -3.0383    0.0632   -1.9226 S.3       1 <0>        -0.1997
      9 C8         -4.6111    0.9653   -1.8675 C.3       1 <0>        -0.1070
     10 C9         -5.1844    1.0777   -3.2816 C.3       1 <0>        -0.1120
     11 C10        -6.5109    1.8386   -3.2351 C.3       1 <0>        -0.0019
     12 H1         -6.3914    2.8077   -2.7286 H         1 <0>         0.1342
     13 C11        -7.0144    2.0566   -4.6387 C.2       1 <0>         0.4547
     14 O1         -7.8730    1.3368   -5.0911 O.co2     1 <0>        -0.6154
     15 O2         -6.5091    3.0503   -5.3863 O.co2     1 <0>        -0.7035
     16 N1         -7.4972    1.0575   -2.4769 N.4       1 <0>        -0.6673
     17 N2         -2.4347   -2.8554   -0.0729 N.pl3     1 <0>         0.0303
     18 O3         -2.4275   -4.0615    0.0966 O.2       1 <0>        -0.1685
     19 O4         -3.4874   -2.2738   -0.2657 O.3       1 <0>        -0.1450
     20 H2          2.1333   -0.1219    0.0520 H         1 <0>         0.1482
     21 H3          2.1674   -2.5821    0.1538 H         1 <0>         0.1512
     22 H4          0.0548   -3.8457    0.1040 H         1 <0>         0.1567
     23 H5         -0.0130    1.0740   -0.1071 H         1 <0>         0.1501
     24 H6         -3.2534   -0.5037    0.4148 H         1 <0>         0.1211
     25 H7         -2.3734    1.0447    0.1811 H         1 <0>         0.0996
     26 H8         -5.3219    0.4242   -1.2256 H         1 <0>         0.0788
     27 H9         -4.4419    1.9726   -1.4593 H         1 <0>         0.0945
     28 H10        -4.4736    1.6188   -3.9235 H         1 <0>         0.1186
     29 H11        -5.3536    0.0704   -3.6898 H         1 <0>         0.0946
     30 H12        -8.4509    1.6046   -2.4435 H         1 <0>         0.4535
     31 H13        -7.1297    0.8984   -1.4524 H         1 <0>         0.4328
     32 H14        -7.6496    0.0846   -2.9671 H         1 <0>         0.4546
@<TRIPOS>BOND
     1    1    6 ar
     2    1    2 ar
     3    1   20 1
     4    2    3 ar
     5    2   21 1
     6    3    4 ar
     7    3   22 1
     8    4    5 ar
     9    4   17 1
    10    5    6 ar
    11    5    7 1
    12    6   23 1
    13    7    8 1
    14    7   24 1
    15    7   25 1
    16    8    9 1
    17    9   10 1
    18    9   26 1
    19    9   27 1
    20   10   11 1
    21   10   28 1
    22   10   29 1
    23   11   12 1
    24   11   13 1
    25   11   16 1
    26   13   14 2
    27   13   15 1
    28   16   30 1
    29   16   31 1
    30   16   32 1
    31   17   18 2
    32   17   19 1
@<TRIPOS>MOLECULE
ZINC28570226
   32    32     0     0     0
SMALL
USER_CHARGES
(2R)-2-amino-4-[(2-nitrophenyl)methylsulfanyl]butanoic acid
@<TRIPOS>ATOM
      1 C1         -2.0241    1.0134   -5.9887 C.ar      1 <0>        -0.0691
      2 C2         -1.9065    2.3342   -6.3803 C.ar      1 <0>        -0.1061
      3 C3         -1.0171    3.1705   -5.7324 C.ar      1 <0>        -0.0593
      4 C4         -0.2449    2.6863   -4.6928 C.ar      1 <0>        -0.0243
      5 C5         -0.3624    1.3660   -4.3014 C.ar      1 <0>        -0.0183
      6 C6         -1.2483    0.5281   -4.9529 C.ar      1 <0>        -0.0972
      7 C7          0.4796    0.8381   -3.1685 C.3       1 <0>        -0.0729
      8 S1         -0.4245    1.0217   -1.6066 S.3       1 <0>        -0.1867
      9 C8          0.7100    0.3492   -0.3611 C.3       1 <0>        -0.1116
     10 C9          0.0631    0.4440    1.0221 C.3       1 <0>        -0.1115
     11 C10         1.0200   -0.1232    2.0726 C.3       1 <0>        -0.0023
     12 H1          1.3415   -1.1403    1.8041 H         1 <0>         0.1339
     13 C11         0.3367   -0.1434    3.4157 C.2       1 <0>         0.4549
     14 O1          0.5636    0.7274    4.2220 O.co2     1 <0>        -0.6152
     15 O2         -0.5238   -1.1287    3.7162 O.co2     1 <0>        -0.7034
     16 N1          2.2210    0.7194    2.1468 N.4       1 <0>        -0.6673
     17 N2          0.7080    3.5819   -3.9993 N.pl3     1 <0>         0.0198
     18 O3          0.8682    3.4859   -2.7957 O.2       1 <0>        -0.1324
     19 O4          1.3320    4.4147   -4.6322 O.3       1 <0>        -0.1601
     20 H2         -2.7189    0.3599   -6.4952 H         1 <0>         0.1483
     21 H3         -2.5095    2.7123   -7.1926 H         1 <0>         0.1512
     22 H4         -0.9250    4.2021   -6.0385 H         1 <0>         0.1514
     23 H5         -1.3370   -0.5048   -4.6499 H         1 <0>         0.1507
     24 H6          0.7012   -0.2254   -3.3411 H         1 <0>         0.1047
     25 H7          1.4208    1.4049   -3.1161 H         1 <0>         0.0963
     26 H8          0.9267   -0.7040   -0.5931 H         1 <0>         0.0938
     27 H9          1.6464    0.9264   -0.3683 H         1 <0>         0.0771
     28 H10        -0.1536    1.4972    1.2541 H         1 <0>         0.0957
     29 H11        -0.8733   -0.1332    1.0293 H         1 <0>         0.1191
     30 H12         2.9089    0.3116    2.9021 H         1 <0>         0.4536
     31 H13         1.9337    1.7434    2.4274 H         1 <0>         0.4547
     32 H14         2.7197    0.7341    1.1665 H         1 <0>         0.4323
@<TRIPOS>BOND
     1    1    6 ar
     2    1    2 ar
     3    1   20 1
     4    2    3 ar
     5    2   21 1
     6    3    4 ar
     7    3   22 1
     8    4    5 ar
     9    4   17 1
    10    5    6 ar
    11    5    7 1
    12    6   23 1
    13    7    8 1
    14    7   24 1
    15    7   25 1
    16    8    9 1
    17    9   10 1
    18    9   26 1
    19    9   27 1
    20   10   11 1
    21   10   28 1
    22   10   29 1
    23   11   12 1
    24   11   13 1
    25   11   16 1
    26   13   14 2
    27   13   15 1
    28   16   30 1
    29   16   31 1
    30   16   32 1
    31   17   18 2
    32   17   19 1
@<TRIPOS>MOLECULE
ZINC28570232
   31    31     0     0     0
SMALL
USER_CHARGES
(2S)-2-amino-4-[(3-cyanophenyl)methylsulfanyl]butanoic acid
@<TRIPOS>ATOM
      1 C1          1.1714    1.7832    0.0005 C.ar      1 <0>        -0.1162
      2 C2          1.1545    3.1669    0.0081 C.ar      1 <0>        -0.0688
      3 C3         -0.0483    3.8503    0.0233 C.ar      1 <0>        -0.0805
      4 C4         -1.2401    3.1552    0.0314 C.ar      1 <0>        -0.0523
      5 C5         -1.2304    1.7592    0.0174 C.ar      1 <0>        -0.0254
      6 C6         -0.0126    1.0758    0.0080 C.ar      1 <0>        -0.0618
      7 C7         -2.4636    1.0313    0.0193 C.1       1 <0>         0.2488
      8 N1         -3.4419    0.4539    0.0207 N.1       1 <0>        -0.4074
      9 C8         -0.0567    5.3572    0.0315 C.3       1 <0>        -0.0529
     10 S1         -0.0765    5.9711   -1.6753 S.3       1 <0>        -0.2199
     11 C9         -0.0850    7.7758   -1.4925 C.3       1 <0>        -0.1114
     12 C10        -0.1019    8.4285   -2.8762 C.3       1 <0>        -0.1119
     13 C11        -0.1090    9.9507   -2.7221 C.3       1 <0>        -0.0031
     14 H1          0.7235   10.2859   -2.0860 H         1 <0>         0.1346
     15 C12        -0.0018   10.5938   -4.0807 C.2       1 <0>         0.4543
     16 O1         -0.9916   11.0191   -4.6276 O.co2     1 <0>        -0.6159
     17 O2          1.1934   10.6940   -4.6834 O.co2     1 <0>        -0.7020
     18 N2         -1.3606   10.3718   -2.0784 N.4       1 <0>        -0.6671
     19 H2          2.1139    1.2560   -0.0118 H         1 <0>         0.1394
     20 H3          2.0845    3.7159    0.0018 H         1 <0>         0.1347
     21 H4         -2.1784    3.6899    0.0436 H         1 <0>         0.1345
     22 H5          0.0021   -0.0041    0.0020 H         1 <0>         0.1367
     23 H6         -0.9519    5.7160    0.5606 H         1 <0>         0.0945
     24 H7          0.8443    5.7261    0.5434 H         1 <0>         0.0982
     25 H8         -0.9796    8.0832   -0.9311 H         1 <0>         0.0730
     26 H9          0.8166    8.0935   -0.9482 H         1 <0>         0.0953
     27 H10         0.7927    8.1210   -3.4376 H         1 <0>         0.1202
     28 H11        -1.0035    8.1109   -3.4205 H         1 <0>         0.0934
     29 H12        -1.3658   11.4662   -1.9676 H         1 <0>         0.4542
     30 H13        -1.4388    9.9024   -1.0866 H         1 <0>         0.4313
     31 H14        -2.2144   10.0621   -2.6990 H         1 <0>         0.4536
@<TRIPOS>BOND
     1    1    6 ar
     2    1    2 ar
     3    1   19 1
     4    2    3 ar
     5    2   20 1
     6    3    4 ar
     7    3    9 1
     8    4    5 ar
     9    4   21 1
    10    5    6 ar
    11    5    7 1
    12    6   22 1
    13    7    8 3
    14    9   10 1
    15    9   23 1
    16    9   24 1
    17   10   11 1
    18   11   12 1
    19   11   25 1
    20   11   26 1
    21   12   13 1
    22   12   27 1
    23   12   28 1
    24   13   14 1
    25   13   15 1
    26   13   18 1
    27   15   16 2
    28   15   17 1
    29   18   29 1
    30   18   30 1
    31   18   31 1
@<TRIPOS>MOLECULE
ZINC28570233
   31    31     0     0     0
SMALL
USER_CHARGES
(2R)-2-amino-4-[(3-cyanophenyl)methylsulfanyl]butanoic acid
@<TRIPOS>ATOM
      1 C1         -1.2457    3.4919    0.0319 C.ar      1 <0>        -0.1163
      2 C2         -0.0549    4.1969    0.0248 C.ar      1 <0>        -0.0688
      3 C3          1.1542    3.5248    0.0100 C.ar      1 <0>        -0.0806
      4 C4          1.1802    2.1454    0.0023 C.ar      1 <0>        -0.0523
      5 C5         -0.0173    1.4278    0.0099 C.ar      1 <0>        -0.0255
      6 C6         -1.2343    2.1127    0.0194 C.ar      1 <0>        -0.0618
      7 C7          0.0021   -0.0041    0.0020 C.1       1 <0>         0.2489
      8 N1          0.0175   -1.1399   -0.0042 N.1       1 <0>        -0.4074
      9 C8          2.4458    4.3011    0.0019 C.3       1 <0>        -0.0528
     10 S1          2.9477    4.6219   -1.7116 S.3       1 <0>        -0.2200
     11 C9          4.4970    5.5512   -1.5484 C.3       1 <0>        -0.1114
     12 C10         5.0367    5.8911   -2.9391 C.3       1 <0>        -0.1119
     13 C11         6.3435    6.6749   -2.8015 C.3       1 <0>        -0.0031
     14 H1          6.2095    7.5533   -2.1531 H         1 <0>         0.1346
     15 C12         6.8109    7.1155   -4.1647 C.2       1 <0>         0.4543
     16 O1          7.6782    6.4971   -4.7350 O.co2     1 <0>        -0.6160
     17 O2          6.2637    8.1949   -4.7454 O.co2     1 <0>        -0.7019
     18 N2          7.3660    5.8180   -2.1865 N.4       1 <0>        -0.6671
     19 H2         -2.1861    4.0228    0.0427 H         1 <0>         0.1395
     20 H3         -0.0695    5.2768    0.0304 H         1 <0>         0.1347
     21 H4          2.1248    1.6219   -0.0092 H         1 <0>         0.1345
     22 H5         -2.1644    1.5637    0.0204 H         1 <0>         0.1367
     23 H6          2.3024    5.2569    0.5271 H         1 <0>         0.0982
     24 H7          3.2276    3.7174    0.5098 H         1 <0>         0.0945
     25 H8          4.3101    6.4805   -0.9904 H         1 <0>         0.0953
     26 H9          5.2354    4.9410   -1.0076 H         1 <0>         0.0730
     27 H10         5.2236    4.9617   -3.4971 H         1 <0>         0.0934
     28 H11         4.2983    6.5013   -3.4799 H         1 <0>         0.1202
     29 H12         8.3055    6.3815   -2.0876 H         1 <0>         0.4542
     30 H13         7.5333    4.9344   -2.8200 H         1 <0>         0.4536
     31 H14         7.0248    5.4964   -1.1914 H         1 <0>         0.4313
@<TRIPOS>BOND
     1    1    6 ar
     2    1    2 ar
     3    1   19 1
     4    2    3 ar
     5    2   20 1
     6    3    4 ar
     7    3    9 1
     8    4    5 ar
     9    4   21 1
    10    5    6 ar
    11    5    7 1
    12    6   22 1
    13    7    8 3
    14    9   10 1
    15    9   23 1
    16    9   24 1
    17   10   11 1
    18   11   12 1
    19   11   25 1
    20   11   26 1
    21   12   13 1
    22   12   27 1
    23   12   28 1
    24   13   14 1
    25   13   15 1
    26   13   18 1
    27   15   16 2
    28   15   17 1
    29   18   29 1
    30   18   30 1
    31   18   31 1
@<TRIPOS>MOLECULE
ZINC28570816
   33    33     0     0     0
SMALL
USER_CHARGES
(2S)-2-amino-4-[[3-(trifluoromethyl)phenyl]methylsulfanyl]butanoic acid
@<TRIPOS>ATOM
      1 C1          1.1748    1.7831    0.0004 C.ar      1 <0>        -0.1166
      2 C2          1.1561    3.1655    0.0076 C.ar      1 <0>        -0.0667
      3 C3         -0.0501    3.8402    0.0223 C.ar      1 <0>        -0.0804
      4 C4         -1.2379    3.1327    0.0303 C.ar      1 <0>        -0.0504
      5 C5         -1.2192    1.7508    0.0173 C.ar      1 <0>        -0.1815
      6 C6         -0.0126    1.0758    0.0080 C.ar      1 <0>        -0.0642
      7 C7         -2.5139    0.9796    0.0192 C.3       1 <0>         0.5086
      8 F1         -2.2397   -0.3922    0.0104 F         1 <0>        -0.1751
      9 F2         -3.2466    1.3013    1.1668 F         1 <0>        -0.1762
     10 F3         -3.2574    1.3138   -1.1177 F         1 <0>        -0.1743
     11 C8         -0.0705    5.3471    0.0302 C.3       1 <0>        -0.0530
     12 S1         -0.0948    5.9603   -1.6768 S.3       1 <0>        -0.2188
     13 C9         -0.1176    7.7650   -1.4945 C.3       1 <0>        -0.1113
     14 C10        -0.1394    8.4172   -2.8784 C.3       1 <0>        -0.1119
     15 C11        -0.1587    9.9393   -2.7246 C.3       1 <0>        -0.0030
     16 H1          0.6708   10.2814   -2.0883 H         1 <0>         0.1346
     17 C12        -0.0562   10.5828   -4.0834 C.2       1 <0>         0.4544
     18 O1         -1.0493   11.0002   -4.6306 O.co2     1 <0>        -0.6157
     19 O2          1.1383   10.6924   -4.6858 O.co2     1 <0>        -0.7019
     20 N1         -1.4137   10.3506   -2.0813 N.4       1 <0>        -0.6670
     21 H2          2.1173    1.2559   -0.0114 H         1 <0>         0.1408
     22 H3          2.0839    3.7182    0.0014 H         1 <0>         0.1366
     23 H4         -2.1804    3.6599    0.0422 H         1 <0>         0.1354
     24 H5          0.0021   -0.0041    0.0020 H         1 <0>         0.1423
     25 H6         -0.9686    5.6989    0.5590 H         1 <0>         0.0950
     26 H7          0.8274    5.7233    0.5423 H         1 <0>         0.0985
     27 H8         -1.0147    8.0655   -0.9334 H         1 <0>         0.0734
     28 H9          0.7813    8.0900   -0.9501 H         1 <0>         0.0953
     29 H10         0.7577    8.1167   -3.4395 H         1 <0>         0.1201
     30 H11        -1.0383    8.0922   -3.4228 H         1 <0>         0.0937
     31 H12        -1.4275   11.4449   -1.9707 H         1 <0>         0.4542
     32 H13        -1.4884    9.8809   -1.0895 H         1 <0>         0.4313
     33 H14        -2.2648   10.0340   -2.7020 H         1 <0>         0.4537
@<TRIPOS>BOND
     1    1    6 ar
     2    1    2 ar
     3    1   21 1
     4    2    3 ar
     5    2   22 1
     6    3    4 ar
     7    3   11 1
     8    4    5 ar
     9    4   23 1
    10    5    6 ar
    11    5    7 1
    12    6   24 1
    13    7    8 1
    14    7    9 1
    15    7   10 1
    16   11   12 1
    17   11   25 1
    18   11   26 1
    19   12   13 1
    20   13   14 1
    21   13   27 1
    22   13   28 1
    23   14   15 1
    24   14   29 1
    25   14   30 1
    26   15   16 1
    27   15   17 1
    28   15   20 1
    29   17   18 2
    30   17   19 1
    31   20   31 1
    32   20   32 1
    33   20   33 1
@<TRIPOS>MOLECULE
ZINC28570817
   33    33     0     0     0
SMALL
USER_CHARGES
(2R)-2-amino-4-[[3-(trifluoromethyl)phenyl]methylsulfanyl]butanoic acid
@<TRIPOS>ATOM
      1 C1         -2.4211    1.2845   -2.8927 C.ar      1 <0>        -0.1165
      2 C2         -1.7497    0.8247   -1.7749 C.ar      1 <0>        -0.0666
      3 C3         -0.7416    1.5850   -1.2129 C.ar      1 <0>        -0.0805
      4 C4         -0.3980    2.8009   -1.7741 C.ar      1 <0>        -0.0519
      5 C5         -1.0665    3.2588   -2.8938 C.ar      1 <0>        -0.1815
      6 C6         -2.0782    2.5005   -3.4532 C.ar      1 <0>        -0.0621
      7 C7         -0.6923    4.5844   -3.5052 C.3       1 <0>         0.5086
      8 F1          0.3041    4.3894   -4.4677 F         1 <0>        -0.1755
      9 F2         -1.8186    5.1541   -4.1088 F         1 <0>        -0.1746
     10 F3         -0.2151    5.4404   -2.5068 F         1 <0>        -0.1758
     11 C8         -0.0127    1.0858    0.0080 C.3       1 <0>        -0.0529
     12 S1         -0.8618    1.6708    1.5005 S.3       1 <0>        -0.2189
     13 C9          0.1270    0.9932    2.8620 C.3       1 <0>        -0.1113
     14 C10        -0.4869    1.4165    4.1980 C.3       1 <0>        -0.1119
     15 C11         0.3471    0.8450    5.3463 C.3       1 <0>        -0.0030
     16 H1          0.4685   -0.2432    5.2410 H         1 <0>         0.1346
     17 C12        -0.3243    1.1575    6.6588 C.2       1 <0>         0.4544
     18 O1          0.0659    2.0819    7.3320 O.co2     1 <0>        -0.6157
     19 O2         -1.3559    0.4090    7.0799 O.co2     1 <0>        -0.7019
     20 N1          1.6866    1.4477    5.3259 N.4       1 <0>        -0.6670
     21 H2         -3.2111    0.6920   -3.3299 H         1 <0>         0.1408
     22 H3         -2.0151   -0.1272   -1.3392 H         1 <0>         0.1366
     23 H4          0.3925    3.3932   -1.3373 H         1 <0>         0.1376
     24 H5         -2.6003    2.8581   -4.3283 H         1 <0>         0.1398
     25 H6          0.0022   -0.0141    0.0019 H         1 <0>         0.0985
     26 H7          1.0193    1.4665    0.0002 H         1 <0>         0.0950
     27 H8          0.1389   -0.1047    2.7954 H         1 <0>         0.0953
     28 H9          1.1560    1.3759    2.7937 H         1 <0>         0.0734
     29 H10        -0.4988    2.5144    4.2645 H         1 <0>         0.0937
     30 H11        -1.5159    1.0338    4.2663 H         1 <0>         0.1201
     31 H12         2.2862    1.0368    6.1515 H         1 <0>         0.4542
     32 H13         1.5999    2.5380    5.4430 H         1 <0>         0.4537
     33 H14         2.1767    1.2196    4.3679 H         1 <0>         0.4313
@<TRIPOS>BOND
     1    1    6 ar
     2    1    2 ar
     3    1   21 1
     4    2    3 ar
     5    2   22 1
     6    3    4 ar
     7    3   11 1
     8    4    5 ar
     9    4   23 1
    10    5    6 ar
    11    5    7 1
    12    6   24 1
    13    7    8 1
    14    7    9 1
    15    7   10 1
    16   11   12 1
    17   11   25 1
    18   11   26 1
    19   12   13 1
    20   13   14 1
    21   13   27 1
    22   13   28 1
    23   14   15 1
    24   14   29 1
    25   14   30 1
    26   15   16 1
    27   15   17 1
    28   15   20 1
    29   17   18 2
    30   17   19 1
    31   20   31 1
    32   20   32 1
    33   20   33 1
