@<TRIPOS>MOLECULE
ZINC18274777
   20    20     0     0     0
SMALL
USER_CHARGES

@<TRIPOS>ATOM
      1 C1         -2.1938    1.4701    0.6085 C.3       1 <0>        -0.1738
      2 C2         -2.1691   -0.0367    0.6077 C.2       1 <0>         0.5100
      3 O1         -3.0611   -0.6582    1.1456 O.2       1 <0>        -0.5253
      4 N1         -1.1558   -0.6938    0.0094 N.am      1 <0>        -0.6760
      5 C3         -1.0811   -2.0905    0.0916 C.ar      1 <0>         0.1315
      6 C4          0.1554   -2.7160    0.1778 C.ar      1 <0>        -0.1278
      7 C5          0.2283   -4.0925    0.2593 C.ar      1 <0>        -0.1267
      8 C6         -0.9336   -4.8504    0.2546 C.ar      1 <0>         0.0907
      9 C7         -2.1693   -4.2261    0.1680 C.ar      1 <0>        -0.1267
     10 C8         -2.2439   -2.8493    0.0927 C.ar      1 <0>        -0.1043
     11 O2         -0.8611   -6.2059    0.3344 O.3       1 <0>        -0.4991
     12 H1         -3.0822    1.8186    1.1352 H         1 <0>         0.0977
     13 H2         -1.3026    1.8478    1.1098 H         1 <0>         0.0926
     14 H3         -2.2144    1.8337   -0.4188 H         1 <0>         0.0926
     15 H4         -0.4783   -0.1997   -0.4782 H         1 <0>         0.4131
     16 H5          1.0601   -2.1261    0.1808 H         1 <0>         0.1308
     17 H6          1.1901   -4.5792    0.3264 H         1 <0>         0.1337
     18 H7         -3.0735   -4.8168    0.1636 H         1 <0>         0.1330
     19 H8         -3.2062   -2.3631    0.0301 H         1 <0>         0.1433
     20 H9         -0.8763   -6.5480    1.2387 H         1 <0>         0.3908
@<TRIPOS>BOND
     1    1    2 1
     2    1   12 1
     3    1   13 1
     4    1   14 1
     5    2    3 2
     6    2    4 am
     7    4    5 1
     8    4   15 1
     9    5   10 ar
    10    5    6 ar
    11    6    7 ar
    12    6   16 1
    13    7    8 ar
    14    7   17 1
    15    8    9 ar
    16    8   11 1
    17    9   10 ar
    18    9   18 1
    19   10   19 1
    20   11   20 1
@<TRIPOS>MOLECULE
ZINC00899824
   47    48     0     0     0
SMALL
USER_CHARGES

@<TRIPOS>ATOM
      1 C1         -0.0173    1.4248    0.0099 C.3       1 <0>         0.0223
      2 O1          0.0021   -0.0041    0.0020 O.3       1 <0>        -0.3062
      3 C2          0.6062   -0.6075   -1.0564 C.ar      1 <0>         0.1006
      4 C3          1.1701    0.1578   -2.0573 C.ar      1 <0>        -0.1693
      5 C4          1.7915   -0.4674   -3.1460 C.ar      1 <0>        -0.0548
      6 C5          1.8369   -1.8658   -3.2124 C.ar      1 <0>        -0.1153
      7 C6          1.2717   -2.6208   -2.2092 C.ar      1 <0>        -0.1104
      8 C7          0.6608   -1.9995   -1.1274 C.ar      1 <0>         0.0921
      9 O2          0.1105   -2.7497   -0.1383 O.3       1 <0>        -0.4848
     10 C8          2.3926    0.3403   -4.2140 C.2       1 <0>        -0.0031
     11 C9          2.9934   -0.2669   -5.2666 C.2       1 <0>        -0.2426
     12 C10         3.5700    0.5078   -6.2910 C.2       1 <0>         0.3746
     13 C11         4.2380   -0.1673   -7.4611 C.3       1 <0>        -0.2163
     14 C12         4.7690    0.8780   -8.4080 C.2       1 <0>         0.3746
     15 O3          4.6195    2.0570   -8.1569 O.2       1 <0>        -0.4254
     16 C13         5.4382    0.4879   -9.5835 C.2       1 <0>        -0.2426
     17 C14         5.9159    1.4282  -10.4353 C.2       1 <0>        -0.0031
     18 C15         6.6137    1.0215  -11.6609 C.ar      1 <0>        -0.0549
     19 C16         6.7822   -0.3375  -11.9554 C.ar      1 <0>        -0.1153
     20 C17         7.4373   -0.7158  -13.1059 C.ar      1 <0>        -0.1104
     21 C18         7.9326    0.2469  -13.9763 C.ar      1 <0>         0.0920
     22 C19         7.7694    1.6023  -13.6901 C.ar      1 <0>         0.1006
     23 C20         7.1082    1.9913  -12.5425 C.ar      1 <0>        -0.1693
     24 O4          8.2569    2.5409  -14.5450 O.3       1 <0>        -0.3062
     25 C21         8.0541    3.9101  -14.1894 C.3       1 <0>         0.0223
     26 O5          8.5781   -0.1327  -15.1090 O.3       1 <0>        -0.4848
     27 O6          3.5292    1.7203   -6.2316 O.2       1 <0>        -0.4254
     28 H1          1.0053    1.8021    0.0021 H         1 <0>         0.0579
     29 H2         -0.5445    1.7859   -0.8732 H         1 <0>         0.0575
     30 H3         -0.5275    1.7763    0.9067 H         1 <0>         0.1046
     31 H4          1.1319    1.2357   -2.0014 H         1 <0>         0.1391
     32 H5          2.3148   -2.3516   -4.0503 H         1 <0>         0.1371
     33 H6          1.3073   -3.6990   -2.2614 H         1 <0>         0.1423
     34 H7         -0.8182   -2.9751   -0.2859 H         1 <0>         0.3908
     35 H8          2.3563    1.4184   -4.1613 H         1 <0>         0.1367
     36 H9          3.0298   -1.3450   -5.3193 H         1 <0>         0.1356
     37 H10         5.0615   -0.7848   -7.1027 H         1 <0>         0.1288
     38 H11         5.5711   -0.5604   -9.8068 H         1 <0>         0.1356
     39 H12         5.7830    2.4765  -10.2120 H         1 <0>         0.1368
     40 H13         6.3989   -1.0882  -11.2802 H         1 <0>         0.1371
     41 H14         7.5667   -1.7639  -13.3320 H         1 <0>         0.1423
     42 H15         6.9767    3.0405  -12.3226 H         1 <0>         0.1391
     43 H16         6.9855    4.1110  -14.1123 H         1 <0>         0.0575
     44 H17         8.5317    4.1110  -13.2305 H         1 <0>         0.0580
     45 H18         8.4902    4.5526  -14.9543 H         1 <0>         0.1045
     46 H19         7.9975   -0.2431  -15.8744 H         1 <0>         0.3910
     47 H20         3.5134   -0.7940   -7.9810 H         1 <0>         0.1286
@<TRIPOS>BOND
     1    1    2 1
     2    1   28 1
     3    1   29 1
     4    1   30 1
     5    2    3 1
     6    3    8 ar
     7    3    4 ar
     8    4    5 ar
     9    4   31 1
    10    5    6 ar
    11    5   10 1
    12    6    7 ar
    13    6   32 1
    14    7    8 ar
    15    7   33 1
    16    8    9 1
    17    9   34 1
    18   10   11 2
    19   10   35 1
    20   11   12 1
    21   11   36 1
    22   12   13 1
    23   12   27 2
    24   13   14 1
    25   13   37 1
    26   13   47 1
    27   14   15 2
    28   14   16 1
    29   16   17 2
    30   16   38 1
    31   17   18 1
    32   17   39 1
    33   18   23 ar
    34   18   19 ar
    35   19   20 ar
    36   19   40 1
    37   20   21 ar
    38   20   41 1
    39   21   22 ar
    40   21   26 1
    41   22   23 ar
    42   22   24 1
    43   23   42 1
    44   24   25 1
    45   25   43 1
    46   25   44 1
    47   25   45 1
    48   26   46 1
@<TRIPOS>MOLECULE
ZINC02570895
   40    42     0     0     0
SMALL
USER_CHARGES

@<TRIPOS>ATOM
      1 C1          0.0405    1.5033    0.0105 C.3       1 <0>        -0.1224
      2 C2          0.0481   -0.0036    0.0022 C.ar      1 <0>        -0.0617
      3 C3         -0.4654   -0.6891   -1.0843 C.ar      1 <0>        -0.1180
      4 C4         -0.4609   -2.0687   -1.0981 C.ar      1 <0>        -0.0762
      5 C5          0.0630   -2.7726   -0.0133 C.ar      1 <0>        -0.0606
      6 C6          0.5793   -2.0754    1.0794 C.ar      1 <0>        -0.0985
      7 C7          0.5738   -0.6957    1.0787 C.ar      1 <0>        -0.1165
      8 C8          0.0704   -4.2518   -0.0214 C.2       1 <0>         0.1497
      9 C9          0.0778   -5.0559   -1.1264 C.2       1 <0>        -0.2047
     10 C10         0.0841   -6.3814   -0.6911 C.2       1 <0>        -0.0034
     11 N1          0.0806   -6.3920    0.6183 N.2       1 <0>        -0.2184
     12 N2          0.0772   -5.0674    1.0740 N.pl3     1 <0>        -0.3181
     13 C11         0.0780   -4.6538    2.4124 C.ar      1 <0>         0.1993
     14 C12        -0.7877   -3.6523    2.8316 C.ar      1 <0>        -0.1310
     15 C13        -0.7845   -3.2467    4.1518 C.ar      1 <0>        -0.0008
     16 C14         0.0799   -3.8365    5.0557 C.ar      1 <0>        -0.6729
     17 C15         0.9432   -4.8341    4.6414 C.ar      1 <0>         0.0013
     18 C16         0.9405   -5.2485    3.3238 C.ar      1 <0>        -0.1237
     19 S1          0.0817   -3.3155    6.7389 S.o2      1 <0>         2.7035
     20 O1          1.3615   -3.6412    7.2635 O.2       1 <0>        -0.9570
     21 O2         -0.4336   -1.9913    6.7547 O.2       1 <0>        -0.9571
     22 N3         -1.0144   -4.2595    7.5449 N.pl3     1 <0>        -1.2487
     23 C17         0.0927   -7.5984   -1.5799 C.3       1 <0>         0.5581
     24 F1          1.4144   -7.9678   -1.8518 F         1 <0>        -0.1637
     25 F2         -0.5625   -8.6523   -0.9339 F         1 <0>        -0.1639
     26 F3         -0.5656   -7.3049   -2.7789 F         1 <0>        -0.1610
     27 H1          0.9639    1.8738   -0.4347 H         1 <0>         0.0767
     28 H2         -0.8113    1.8655   -0.5652 H         1 <0>         0.0714
     29 H3         -0.0366    1.8607    1.0374 H         1 <0>         0.0715
     30 H4         -0.8709   -0.1431   -1.9232 H         1 <0>         0.1331
     31 H5         -0.8624   -2.6027   -1.9467 H         1 <0>         0.1336
     32 H6          0.9862   -2.6145    1.9221 H         1 <0>         0.1246
     33 H7          0.9772   -0.1548    1.9220 H         1 <0>         0.1315
     34 H8          0.0784   -4.7241   -2.1542 H         1 <0>         0.1732
     35 H9         -1.4626   -3.1908    2.1259 H         1 <0>         0.1459
     36 H10        -1.4576   -2.4679    4.4785 H         1 <0>         0.1580
     37 H11         1.6174   -5.2926    5.3496 H         1 <0>         0.1579
     38 H12         1.6117   -6.0309    3.0018 H         1 <0>         0.1479
     39 H13        -1.5085   -4.9443    7.0675 H         1 <0>         0.4179
     40 H14        -1.1624   -4.1277    8.4945 H         1 <0>         0.4235
@<TRIPOS>BOND
     1    1    2 1
     2    1   27 1
     3    1   28 1
     4    1   29 1
     5    2    7 ar
     6    2    3 ar
     7    3    4 ar
     8    3   30 1
     9    4    5 ar
    10    4   31 1
    11    5    6 ar
    12    5    8 1
    13    6    7 ar
    14    6   32 1
    15    7   33 1
    16    8   12 1
    17    8    9 2
    18    9   10 1
    19    9   34 1
    20   10   11 2
    21   10   23 1
    22   11   12 1
    23   12   13 1
    24   13   18 ar
    25   13   14 ar
    26   14   15 ar
    27   14   35 1
    28   15   16 ar
    29   15   36 1
    30   16   17 ar
    31   16   19 1
    32   17   18 ar
    33   17   37 1
    34   18   38 1
    35   19   20 2
    36   19   21 2
    37   19   22 1
    38   22   39 1
    39   22   40 1
    40   23   24 1
    41   23   25 1
    42   23   26 1
@<TRIPOS>MOLECULE
ZINC01529253
   23    22     0     0     0
SMALL
USER_CHARGES

@<TRIPOS>ATOM
      1 C1         -0.0187    1.5258    0.0104 C.3       1 <0>        -0.1185
      2 C2          0.0021   -0.0041    0.0020 C.3       1 <0>        -0.1546
      3 C3         -1.4333   -0.5336    0.0129 C.3       1 <0>        -0.0098
      4 N1         -1.4134   -2.0025    0.0048 N.4       1 <0>        -0.6393
      5 C4          1.4167    2.0553   -0.0004 C.3       1 <0>        -0.1545
      6 C5          1.3960    3.5852    0.0080 C.3       1 <0>        -0.0098
      7 N2          2.7741    4.0937   -0.0024 N.4       1 <0>        -0.6393
      8 H1         -0.5459    1.8868   -0.8726 H         1 <0>         0.0875
      9 H2         -0.5289    1.8773    0.9072 H         1 <0>         0.0875
     10 H3          0.5123   -0.3556   -0.8948 H         1 <0>         0.0923
     11 H4          0.5293   -0.3651    0.8851 H         1 <0>         0.0923
     12 H5         -1.9435   -0.1821    0.9097 H         1 <0>         0.1360
     13 H6         -1.9605   -0.1726   -0.8702 H         1 <0>         0.1360
     14 H7         -0.9411   -2.3279   -0.8254 H         1 <0>         0.4373
     15 H8         -0.9254   -2.3367    0.8222 H         1 <0>         0.4372
     16 H9          1.9439    1.6943    0.8826 H         1 <0>         0.0923
     17 H10         1.9269    1.7038   -0.8972 H         1 <0>         0.0923
     18 H11         0.8688    3.9463   -0.8751 H         1 <0>         0.1360
     19 H12         0.8858    3.9367    0.9048 H         1 <0>         0.1360
     20 H13         3.2621    3.7594    0.8150 H         1 <0>         0.4372
     21 H14         3.2464    3.7683   -0.8326 H         1 <0>         0.4373
     22 H15        -2.3600   -2.3517    0.0120 H         1 <0>         0.4442
     23 H16         2.7604    5.1025    0.0031 H         1 <0>         0.4442
@<TRIPOS>BOND
     1    1    2 1
     2    1    5 1
     3    1    8 1
     4    1    9 1
     5    2    3 1
     6    2   10 1
     7    2   11 1
     8    3    4 1
     9    3   12 1
    10    3   13 1
    11    4   14 1
    12    4   15 1
    13    4   22 1
    14    5    6 1
    15    5   16 1
    16    5   17 1
    17    6    7 1
    18    6   18 1
    19    6   19 1
    20    7   20 1
    21    7   21 1
    22    7   23 1
@<TRIPOS>MOLECULE
ZINC19365690
   48    47     0     0     0
SMALL
USER_CHARGES
N'-[2-(2-dimethylaminoethyl-methyl-amino)ethyl]-N,N,N'-trimethyl-ethane-1,2-diamine
@<TRIPOS>ATOM
      1 C1          1.3463    2.0098   -0.0000 C.3       1 <0>        -0.0462
      2 N1         -0.0178    1.4648    0.0101 N.4       1 <0>        -0.4005
      3 C2         -0.8017    1.9868   -1.1173 C.3       1 <0>        -0.0528
      4 C3          0.0021   -0.0041    0.0020 C.3       1 <0>        -0.0093
      5 C4         -1.4090   -0.5347    0.2631 C.3       1 <0>         0.0273
      6 N2         -1.3891   -2.0035    0.2551 N.3       1 <0>        -0.5344
      7 C5         -1.0640   -2.5183   -1.0818 C.3       1 <0>         0.0047
      8 C6         -2.6660   -2.5500    0.7334 C.3       1 <0>         0.0553
      9 C7         -2.5268   -4.0584    0.9481 C.3       1 <0>         0.0552
     10 N3         -3.8037   -4.6049    1.4264 N.3       1 <0>        -0.5345
     11 C8         -4.1288   -4.0901    2.7633 C.3       1 <0>         0.0050
     12 C9         -3.7838   -6.0737    1.4184 C.3       1 <0>         0.0273
     13 C10        -5.1949   -6.6044    1.6795 C.3       1 <0>        -0.0093
     14 N4         -5.1749   -8.0732    1.6714 N.4       1 <0>        -0.4005
     15 C11        -4.3911   -8.5953    2.7988 C.3       1 <0>        -0.0524
     16 C12        -6.5390   -8.6183    1.6815 C.3       1 <0>        -0.0462
     17 H1          1.9098    1.6034    0.8528 H         1 <0>         0.1258
     18 H2          1.3037    3.1062    0.0777 H         1 <0>         0.1284
     19 H3          1.8468    1.7279   -0.9381 H         1 <0>         0.1199
     20 H4         -1.8165    1.5634   -1.0855 H         1 <0>         0.1215
     21 H5         -0.3162    1.7047   -2.0632 H         1 <0>         0.1202
     22 H6         -0.8594    3.0831   -1.0474 H         1 <0>         0.1290
     23 H7          0.3524   -0.3606   -0.9779 H         1 <0>         0.1276
     24 H8          0.6812   -0.3660    0.7881 H         1 <0>         0.1407
     25 H9         -1.7593   -0.1781    1.2429 H         1 <0>         0.0985
     26 H10        -2.0881   -0.1729   -0.5230 H         1 <0>         0.0605
     27 H11        -1.0559   -3.6180   -1.0592 H         1 <0>         0.0829
     28 H12        -0.0727   -2.1505   -1.3853 H         1 <0>         0.0746
     29 H13        -1.8199   -2.1719   -1.8019 H         1 <0>         0.0400
     30 H14        -2.9381   -2.0679    1.6840 H         1 <0>         0.0842
     31 H15        -3.4503   -2.3568   -0.0133 H         1 <0>         0.0555
     32 H16        -2.2547   -4.5405   -0.0025 H         1 <0>         0.0843
     33 H17        -1.7426   -4.2517    1.6948 H         1 <0>         0.0556
     34 H18        -5.0875   -4.5144    3.0964 H         1 <0>         0.0738
     35 H19        -4.2067   -2.9935    2.7250 H         1 <0>         0.0831
     36 H20        -3.3357   -4.3769    3.4695 H         1 <0>         0.0404
     37 H21        -3.4334   -6.4303    0.4386 H         1 <0>         0.0984
     38 H22        -3.1047   -6.4355    2.2045 H         1 <0>         0.0605
     39 H23        -5.5452   -6.2478    2.6594 H         1 <0>         0.1277
     40 H24        -5.8740   -6.2426    0.8934 H         1 <0>         0.1407
     41 H25        -4.3928   -9.6949    2.7685 H         1 <0>         0.1289
     42 H26        -4.8370   -8.2539    3.7446 H         1 <0>         0.1198
     43 H27        -3.3567   -8.2281    2.7274 H         1 <0>         0.1216
     44 H28        -6.4947   -9.7174    1.6752 H         1 <0>         0.1283
     45 H29        -7.0804   -8.2680    0.7904 H         1 <0>         0.1260
     46 H30        -7.0633   -8.2777    2.5866 H         1 <0>         0.1198
     47 H31        -0.5052    1.7912    0.9406 H         1 <0>         0.4466
     48 H32        -4.6873   -8.3994    0.7409 H         1 <0>         0.4467
@<TRIPOS>BOND
     1    1    2 1
     2    1   17 1
     3    1   18 1
     4    1   19 1
     5    2    3 1
     6    2    4 1
     7    2   47 1
     8    3   20 1
     9    3   21 1
    10    3   22 1
    11    4    5 1
    12    4   23 1
    13    4   24 1
    14    5    6 1
    15    5   25 1
    16    5   26 1
    17    6    7 1
    18    6    8 1
    19    7   27 1
    20    7   28 1
    21    7   29 1
    22    8    9 1
    23    8   30 1
    24    8   31 1
    25    9   10 1
    26    9   32 1
    27    9   33 1
    28   10   11 1
    29   10   12 1
    30   11   34 1
    31   11   35 1
    32   11   36 1
    33   12   13 1
    34   12   37 1
    35   12   38 1
    36   13   14 1
    37   13   39 1
    38   13   40 1
    39   14   15 1
    40   14   16 1
    41   14   48 1
    42   15   41 1
    43   15   42 1
    44   15   43 1
    45   16   44 1
    46   16   45 1
    47   16   46 1
@<TRIPOS>MOLECULE
ZINC01700217
   29    30     0     0     0
SMALL
USER_CHARGES

@<TRIPOS>ATOM
      1 C1         -0.0164    1.3568    0.0095 C.ar      1 <0>        -0.1044
      2 C2          1.1685    2.0902    0.0021 C.ar      1 <0>        -0.1154
      3 C3          2.3785    1.4660   -0.0127 C.ar      1 <0>        -0.1086
      4 C4          2.4369    0.0637   -0.0208 C.ar      1 <0>        -0.0883
      5 C5          1.2329   -0.6830   -0.0133 C.ar      1 <0>        -0.0154
      6 C6          0.0021   -0.0041    0.0020 C.ar      1 <0>        -0.1079
      7 C7          1.2897   -2.0870   -0.0204 C.ar      1 <0>        -0.1454
      8 C8          2.4960   -2.7188   -0.0343 C.ar      1 <0>        -0.0741
      9 C9          3.6853   -1.9966   -0.0413 C.ar      1 <0>        -0.2035
     10 C10         3.6728   -0.6178   -0.0357 C.ar      1 <0>         0.2107
     11 N1          4.8691    0.0961   -0.0437 N.pl3     1 <0>        -0.7455
     12 C11         6.1482   -0.6180   -0.0592 C.3       1 <0>         0.1008
     13 C12         7.2966    0.3928   -0.0653 C.3       1 <0>        -0.0201
     14 N2          8.5792   -0.3232   -0.0809 N.4       1 <0>        -0.6315
     15 H1         -0.9633    1.8759    0.0259 H         1 <0>         0.1285
     16 H2          1.1264    3.1693    0.0079 H         1 <0>         0.1259
     17 H3          3.2888    2.0471   -0.0187 H         1 <0>         0.1160
     18 H4         -0.9241   -0.5595    0.0082 H         1 <0>         0.1331
     19 H5          0.3773   -2.6647   -0.0144 H         1 <0>         0.1292
     20 H6          2.5301   -3.7982   -0.0396 H         1 <0>         0.1256
     21 H7          4.6289   -2.5219   -0.0517 H         1 <0>         0.1166
     22 H8          4.8552    1.0660   -0.0390 H         1 <0>         0.4055
     23 H9          6.2233   -1.2480    0.8272 H         1 <0>         0.0823
     24 H10         6.2065   -1.2396   -0.9527 H         1 <0>         0.0823
     25 H11         7.2214    1.0228   -0.9517 H         1 <0>         0.1409
     26 H12         7.2383    1.0144    0.8282 H         1 <0>         0.1409
     27 H13         8.6488   -0.9063    0.7396 H         1 <0>         0.4388
     28 H14         8.6331   -0.8986   -0.9080 H         1 <0>         0.4388
     29 H15         9.3366    0.3434   -0.0849 H         1 <0>         0.4445
@<TRIPOS>BOND
     1    1    6 ar
     2    1    2 ar
     3    1   15 1
     4    2    3 ar
     5    2   16 1
     6    3    4 ar
     7    3   17 1
     8    4   10 ar
     9    4    5 ar
    10    5    6 ar
    11    5    7 ar
    12    6   18 1
    13    7    8 ar
    14    7   19 1
    15    8    9 ar
    16    8   20 1
    17    9   10 ar
    18    9   21 1
    19   10   11 1
    20   11   12 1
    21   11   22 1
    22   12   13 1
    23   12   23 1
    24   12   24 1
    25   13   14 1
    26   13   25 1
    27   13   26 1
    28   14   27 1
    29   14   28 1
    30   14   29 1
@<TRIPOS>MOLECULE
ZINC00493069
   31    33     0     0     0
SMALL
USER_CHARGES

@<TRIPOS>ATOM
      1 C1         -0.0167    1.3781    0.0096 C.ar      1 <0>        -0.1060
      2 C2          1.1709    2.0855    0.0021 C.ar      1 <0>        -0.1228
      3 C3          2.3773    1.4107   -0.0130 C.ar      1 <0>        -0.0937
      4 C4          2.3960    0.0285   -0.0201 C.ar      1 <0>        -0.1034
      5 C5          1.2084   -0.6789   -0.0117 C.ar      1 <0>        -0.0937
      6 C6          0.0021   -0.0041    0.0020 C.ar      1 <0>        -0.1228
      7 C7          3.7112   -0.7071   -0.0376 C.3       1 <0>         0.1002
      8 O1          4.1410   -0.9464    1.3041 O.3       1 <0>        -0.2980
      9 C8          5.3173   -1.6042    1.4664 C.ar      1 <0>         0.1911
     10 C9          6.0448   -2.0055    0.3474 C.ar      1 <0>        -0.2289
     11 C10         7.2287   -2.6681    0.4939 C.ar      1 <0>        -0.0093
     12 C11         7.7161   -2.9461    1.7761 C.ar      1 <0>        -0.2014
     13 C12         8.9837   -3.6549    1.9637 C.2       1 <0>         0.0110
     14 C13         9.4033   -3.8944    3.2334 C.2       1 <0>        -0.2572
     15 C14         8.6211   -3.4620    4.3239 C.2       1 <0>         0.5095
     16 O2          9.0089   -3.6832    5.4570 O.2       1 <0>        -0.4611
     17 O3          7.4602   -2.8124    4.1451 O.3       1 <0>        -0.2700
     18 C15         6.9862   -2.5430    2.9098 C.ar      1 <0>         0.1901
     19 C16         5.7874   -1.8661    2.7427 C.ar      1 <0>        -0.1768
     20 H1         -0.9591    1.9053    0.0259 H         1 <0>         0.1260
     21 H2          1.1563    3.1654    0.0076 H         1 <0>         0.1269
     22 H3          3.3051    1.9634   -0.0196 H         1 <0>         0.1251
     23 H4          1.2231   -1.7588   -0.0176 H         1 <0>         0.1251
     24 H5         -0.9258   -0.5567    0.0082 H         1 <0>         0.1269
     25 H6          3.5884   -1.6586   -0.5549 H         1 <0>         0.0779
     26 H7          4.4573   -0.1052   -0.5563 H         1 <0>         0.0779
     27 H8          5.6688   -1.7911   -0.6421 H         1 <0>         0.1417
     28 H9          7.7878   -2.9773   -0.3769 H         1 <0>         0.1444
     29 H10         9.5690   -3.9787    1.1157 H         1 <0>         0.1540
     30 H11        10.3335   -4.4151    3.4070 H         1 <0>         0.1646
     31 H12         5.2201   -1.5480    3.6049 H         1 <0>         0.1527
@<TRIPOS>BOND
     1    1    6 ar
     2    1    2 ar
     3    1   20 1
     4    2    3 ar
     5    2   21 1
     6    3    4 ar
     7    3   22 1
     8    4    5 ar
     9    4    7 1
    10    5    6 ar
    11    5   23 1
    12    6   24 1
    13    7    8 1
    14    7   25 1
    15    7   26 1
    16    8    9 1
    17    9   19 ar
    18    9   10 ar
    19   10   11 ar
    20   10   27 1
    21   11   12 ar
    22   11   28 1
    23   12   18 ar
    24   12   13 1
    25   13   14 2
    26   13   29 1
    27   14   15 1
    28   14   30 1
    29   15   16 2
    30   15   17 1
    31   17   18 1
    32   18   19 ar
    33   19   31 1
@<TRIPOS>MOLECULE
ZINC00006787
   29    30     0     0     0
SMALL
USER_CHARGES

@<TRIPOS>ATOM
      1 C1         -0.0169    1.3936    0.0097 C.ar      1 <0>        -0.0880
      2 C2          1.1682    2.0965    0.0022 C.ar      1 <0>        -0.1444
      3 C3          2.3804    1.4185   -0.0131 C.ar      1 <0>         0.1088
      4 C4          2.4043    0.0297   -0.0212 C.ar      1 <0>        -0.1437
      5 C5          1.2244   -0.6820   -0.0142 C.ar      1 <0>        -0.0943
      6 C6          0.0021   -0.0041    0.0020 C.ar      1 <0>        -0.0701
      7 C7         -1.2624   -0.7604    0.0105 C.2       1 <0>        -0.0946
      8 C8         -1.2417   -2.1029    0.0031 C.2       1 <0>        -0.1125
      9 C9         -2.5067   -2.8595    0.0116 C.ar      1 <0>        -0.0208
     10 C10        -3.7282   -2.1821    0.0216 C.ar      1 <0>        -0.1505
     11 C11        -4.9138   -2.8974    0.0296 C.ar      1 <0>         0.1270
     12 C12        -4.8898   -4.2848    0.0277 C.ar      1 <0>        -0.1731
     13 C13        -3.6788   -4.9623    0.0183 C.ar      1 <0>         0.1263
     14 C14        -2.4878   -4.2561    0.0039 C.ar      1 <0>        -0.1438
     15 O1         -3.6617   -6.3213    0.0174 O.3       1 <0>        -0.4960
     16 O2         -6.1029   -2.2395    0.0398 O.3       1 <0>        -0.4960
     17 O3          3.5463    2.1158   -0.0204 O.3       1 <0>        -0.4996
     18 H1         -0.9588    1.9217    0.0260 H         1 <0>         0.1307
     19 H2          1.1546    3.1764    0.0077 H         1 <0>         0.1317
     20 H3          3.3492   -0.4932   -0.0334 H         1 <0>         0.1314
     21 H4          1.2440   -1.7618   -0.0209 H         1 <0>         0.1307
     22 H5         -2.2059   -0.2349    0.0227 H         1 <0>         0.1259
     23 H6         -0.2983   -2.6284   -0.0091 H         1 <0>         0.1276
     24 H7         -3.7479   -1.1023    0.0234 H         1 <0>         0.1351
     25 H8         -5.8166   -4.8392    0.0340 H         1 <0>         0.1362
     26 H9         -1.5459   -4.7843   -0.0083 H         1 <0>         0.1350
     27 H10        -3.6634   -6.7141   -0.8663 H         1 <0>         0.3942
     28 H11        -6.4539   -2.0477   -0.8406 H         1 <0>         0.3942
     29 H12         3.8923    2.3129    0.8608 H         1 <0>         0.3928
@<TRIPOS>BOND
     1    1    6 ar
     2    1    2 ar
     3    1   18 1
     4    2    3 ar
     5    2   19 1
     6    3    4 ar
     7    3   17 1
     8    4    5 ar
     9    4   20 1
    10    5    6 ar
    11    5   21 1
    12    6    7 1
    13    7    8 2
    14    7   22 1
    15    8    9 1
    16    8   23 1
    17    9   14 ar
    18    9   10 ar
    19   10   11 ar
    20   10   24 1
    21   11   12 ar
    22   11   16 1
    23   12   13 ar
    24   12   25 1
    25   13   14 ar
    26   13   15 1
    27   14   26 1
    28   15   27 1
    29   16   28 1
    30   17   29 1
@<TRIPOS>MOLECULE
ZINC00896918
   22    22     0     0     0
SMALL
USER_CHARGES

@<TRIPOS>ATOM
      1 C1         -0.0167    1.3778    0.0096 C.ar      1 <0>         0.0974
      2 C2          1.1707    2.0862    0.0021 C.ar      1 <0>        -0.6868
      3 C3          2.3777    1.4131   -0.0135 C.ar      1 <0>         0.0588
      4 C4          2.3983    0.0299   -0.0210 C.ar      1 <0>        -0.0734
      5 C5          1.2094   -0.6794   -0.0130 C.ar      1 <0>         0.1016
      6 C6          0.0021   -0.0041    0.0020 C.ar      1 <0>        -0.6843
      7 S1         -1.5117   -0.9057    0.0122 S.o2      1 <0>         2.7000
      8 O1         -1.3921   -1.8888    1.0313 O.2       1 <0>        -0.9349
      9 O2         -2.5575    0.0562    0.0006 O.2       1 <0>        -0.9450
     10 N1         -1.6044   -1.7230   -1.4251 N.pl3     1 <0>        -1.2435
     11 Cl1         1.2335   -2.4152   -0.0231 Cl        1 <0>         0.0087
     12 Cl2         3.9142   -0.8161   -0.0412 Cl        1 <0>        -0.0140
     13 S2          1.1451    3.8480    0.0117 S.o2      1 <0>         2.7054
     14 O3          2.3791    4.2752   -0.5486 O.2       1 <0>        -0.9481
     15 O4         -0.1113    4.2388   -0.5251 O.2       1 <0>        -0.9447
     16 N2          1.1530    4.3291    1.5963 N.pl3     1 <0>        -1.2462
     17 H1         -0.9593    1.9047    0.0259 H         1 <0>         0.1825
     18 H2          3.3048    1.9671   -0.0201 H         1 <0>         0.1751
     19 H3         -0.8907   -1.6407   -2.0768 H         1 <0>         0.4176
     20 H4         -2.3725   -2.2840   -1.6154 H         1 <0>         0.4278
     21 H5          1.1694    3.6663    2.3043 H         1 <0>         0.4190
     22 H6          1.1413    5.2737    1.8164 H         1 <0>         0.4268
@<TRIPOS>BOND
     1    1    6 ar
     2    1    2 ar
     3    1   17 1
     4    2    3 ar
     5    2   13 1
     6    3    4 ar
     7    3   18 1
     8    4    5 ar
     9    4   12 1
    10    5    6 ar
    11    5   11 1
    12    6    7 1
    13    7    8 2
    14    7    9 2
    15    7   10 1
    16   10   19 1
    17   10   20 1
    18   13   14 2
    19   13   15 2
    20   13   16 1
    21   16   21 1
    22   16   22 1
@<TRIPOS>MOLECULE
ZINC02506731
   21    21     0     0     0
SMALL
USER_CHARGES

@<TRIPOS>ATOM
      1 C1         -0.0166    1.3766    0.0096 C.ar      1 <0>        -0.0167
      2 C2          1.1707    2.0859    0.0021 C.ar      1 <0>        -0.1925
      3 C3          2.3799    1.4157   -0.0135 C.ar      1 <0>         0.0238
      4 C4          2.4059    0.0347   -0.0211 C.ar      1 <0>        -0.7469
      5 C5          1.2154   -0.6807   -0.0131 C.ar      1 <0>         0.3101
      6 C6          0.0021   -0.0041    0.0020 C.ar      1 <0>        -0.2007
      7 N1          1.2380   -2.0772   -0.0208 N.pl3     1 <0>        -0.5919
      8 N2          0.0663   -2.7793   -0.0129 N.3       1 <0>        -0.5996
      9 S1          3.9474   -0.8184   -0.0415 S.o2      1 <0>         2.7006
     10 O1          3.8584   -1.7934   -1.0714 O.2       1 <0>        -0.9719
     11 O2          4.9622    0.1761   -0.0196 O.2       1 <0>        -0.9615
     12 N3          4.0669   -1.6480    1.3867 N.pl3     1 <0>        -1.2535
     13 H1         -0.9594    1.9032    0.0259 H         1 <0>         0.1328
     14 H2          1.1532    3.1658    0.0080 H         1 <0>         0.1325
     15 H3          3.3052    1.9726   -0.0200 H         1 <0>         0.1458
     16 H4         -0.9254   -0.5574    0.0082 H         1 <0>         0.1375
     17 H5          2.0857   -2.5485   -0.0317 H         1 <0>         0.4056
     18 H6         -0.5220   -2.5097   -0.7871 H         1 <0>         0.3414
     19 H7          0.2402   -3.7732   -0.0199 H         1 <0>         0.3650
     20 H8          3.3512   -1.5955    2.0394 H         1 <0>         0.4182
     21 H9          4.8524   -2.1865    1.5706 H         1 <0>         0.4221
@<TRIPOS>BOND
     1    1    6 ar
     2    1    2 ar
     3    1   13 1
     4    2    3 ar
     5    2   14 1
     6    3    4 ar
     7    3   15 1
     8    4    5 ar
     9    4    9 1
    10    5    6 ar
    11    5    7 1
    12    6   16 1
    13    7    8 1
    14    7   17 1
    15    8   18 1
    16    8   19 1
    17    9   10 2
    18    9   11 2
    19    9   12 1
    20   12   20 1
    21   12   21 1
@<TRIPOS>MOLECULE
ZINC00056721
   26    27     0     0     0
SMALL
USER_CHARGES

@<TRIPOS>ATOM
      1 C1         -0.0187    1.5258    0.0104 C.3       1 <0>        -0.1547
      2 C2          0.0021   -0.0041    0.0020 C.3       1 <0>         0.0492
      3 O1          0.6932   -0.4774    1.1597 O.3       1 <0>        -0.3006
      4 C3          0.8020   -1.8247    1.3057 C.ar      1 <0>         0.1921
      5 C4          0.2604   -2.6828    0.3521 C.ar      1 <0>        -0.2018
      6 C5          0.3546   -4.0332    0.4731 C.ar      1 <0>         0.0140
      7 C6          1.0107   -4.6197    1.5806 C.ar      1 <0>        -0.0020
      8 C7          1.5510   -3.7250    2.5328 C.ar      1 <0>        -0.0796
      9 C8          1.4586   -2.3607    2.4030 C.ar      1 <0>        -0.1219
     10 S1          2.2658   -4.8318    3.7244 S.3       1 <0>         0.1249
     11 C9          1.8165   -6.3576    2.9091 C.2       1 <0>        -0.4422
     12 N1          1.1890   -5.9318    1.8469 N.2       1 <0>        -0.3736
     13 S2          2.1387   -8.0154    3.4117 S.o2      1 <0>         2.7381
     14 O2          3.5473   -8.1923    3.3489 O.2       1 <0>        -0.9371
     15 O3          1.3964   -8.2298    4.6043 O.2       1 <0>        -0.9317
     16 N2          1.4848   -9.0116    2.2617 N.pl3     1 <0>        -1.2315
     17 H1          1.0039    1.9031    0.0027 H         1 <0>         0.0693
     18 H2         -0.5459    1.8868   -0.8726 H         1 <0>         0.0837
     19 H3         -0.5289    1.8773    0.9072 H         1 <0>         0.0693
     20 H4         -1.0205   -0.3814    0.0098 H         1 <0>         0.0697
     21 H5          0.5123   -0.3556   -0.8948 H         1 <0>         0.0697
     22 H6         -0.2474   -2.2649   -0.5046 H         1 <0>         0.1477
     23 H7         -0.0778   -4.6673   -0.2867 H         1 <0>         0.1464
     24 H8          1.8895   -1.7116    3.1509 H         1 <0>         0.1511
     25 H9          1.8842   -9.8780    2.0868 H         1 <0>         0.4270
     26 H10         0.7024   -8.7286    1.7631 H         1 <0>         0.4245
@<TRIPOS>BOND
     1    1    2 1
     2    1   17 1
     3    1   18 1
     4    1   19 1
     5    2    3 1
     6    2   20 1
     7    2   21 1
     8    3    4 1
     9    4    9 ar
    10    4    5 ar
    11    5    6 ar
    12    5   22 1
    13    6    7 ar
    14    6   23 1
    15    7   12 1
    16    7    8 ar
    17    8    9 ar
    18    8   10 1
    19    9   24 1
    20   10   11 1
    21   11   12 2
    22   11   13 1
    23   13   14 2
    24   13   15 2
    25   13   16 1
    26   16   25 1
    27   16   26 1
@<TRIPOS>MOLECULE
ZINC12503151
   23    23     0     0     0
SMALL
NO_CHARGES

@<TRIPOS>ATOM
      1 C1         -0.3789    1.0705    0.3515 C.3       1 <0>        -0.1347
      2 C2          0.5076   -0.1196    0.0888 C.2       1 <0>         0.4551
      3 O1          1.3641   -0.4298    0.8951 O.3       1 <0>        -0.3923
      4 N1          0.3540   -0.8288   -1.0216 N.2       1 <0>        -0.6178
      5 C3         -0.0468   -2.1007   -0.9514 C.2       1 <0>         0.3126
      6 N2         -0.4722   -2.7924    0.1303 N.pl3     1 <0>        -0.4005
      7 N3         -0.8397   -4.1105   -0.0380 N.pl3     1 <0>        -0.2827
      8 C4         -0.7560   -4.6173   -1.2349 C.2       1 <0>        -0.3295
      9 S1         -0.1544   -3.2357   -2.1872 S.3       1 <0>         0.3047
     10 S2         -1.1447   -6.2486   -1.7756 S.o2      1 <0>         2.5478
     11 O2         -0.0915   -6.6516   -2.6403 O.2       1 <0>        -0.9992
     12 O3         -1.5023   -6.9867   -0.6152 O.2       1 <0>        -1.0188
     13 N4         -2.5089   -6.1432   -2.7085 N.2       1 <0>        -1.2921
     14 C5         -0.5404   -2.1568    1.4485 C.3       1 <0>        -0.0096
     15 H1          0.0812    1.9657   -0.0669 H         1 <0>         0.1260
     16 H2         -1.3508    0.9096   -0.1151 H         1 <0>         0.1164
     17 H3         -0.5083    1.1970    1.4263 H         1 <0>         0.1126
     18 H4         -2.8882   -6.9430   -3.1051 H         1 <0>         0.3463
     19 H5         -0.8348   -1.1136    1.3340 H         1 <0>         0.0956
     20 H6         -1.2744   -2.6760    2.0647 H         1 <0>         0.1123
     21 H7          0.4374   -2.2079    1.9275 H         1 <0>         0.0918
     22 H8         -1.1502   -4.6433    0.7107 H         1 <0>         0.4270
     23 H9          1.8975   -1.1912    0.6290 H         1 <0>         0.4290
@<TRIPOS>BOND
     1    1    2 1
     2    1   15 1
     3    1   16 1
     4    1   17 1
     5    2    3 2
     6    2    4 1
     7    3   23 1
     8    4    5 2
     9    5    9 1
    10    5    6 1
    11    6    7 1
    12    6   14 1
    13    7    8 2
    14    7   22 1
    15    8    9 1
    16    8   10 1
    17   10   11 2
    18   10   12 2
    19   10   13 1
    20   13   18 1
    21   14   19 1
    22   14   20 1
    23   14   21 1
@<TRIPOS>MOLECULE
ZINC12503151
   23    23     0     0     0
SMALL
NO_CHARGES

@<TRIPOS>ATOM
      1 C1         -1.1346    0.9241    0.3407 C.3       1 <0>        -0.1307
      2 C2          0.0031   -0.0044    0.0020 C.2       1 <0>         0.4894
      3 O1          0.9224   -0.1509    0.7852 O.3       1 <0>        -0.3736
      4 N1          0.0020   -0.6621   -1.1500 N.2       1 <0>        -0.6464
      5 C3         -0.0802   -1.9949   -1.1578 C.2       1 <0>         0.3469
      6 N2          0.0027   -2.8388   -2.2117 N.pl3     1 <0>        -0.3538
      7 N3         -0.1119   -4.1925   -1.9774 N.pl3     1 <0>        -0.2782
      8 C4         -0.2944   -4.5840   -0.7486 C.2       1 <0>        -0.3302
      9 S1         -0.3048   -3.0391    0.1407 S.3       1 <0>         0.0989
     10 S2         -0.4768   -6.2215   -0.1244 S.o2      1 <0>         2.5579
     11 O2         -1.5476   -6.1834    0.8090 O.2       1 <0>        -1.0001
     12 O3         -0.4786   -7.0877   -1.2508 O.2       1 <0>        -1.0219
     13 N4          0.8919   -6.5715    0.7396 N.2       1 <0>        -1.2976
     14 C5          0.2086   -2.3268   -3.5688 C.3       1 <0>         0.0360
     15 H1         -0.9060    1.9262   -0.0224 H         1 <0>         0.1254
     16 H2         -2.0490    0.5661   -0.1324 H         1 <0>         0.1183
     17 H3         -1.2715    0.9518    1.4217 H         1 <0>         0.1209
     18 H4          0.9868   -7.4364    1.1685 H         1 <0>         0.3466
     19 H5          1.2771   -2.2630   -3.7748 H         1 <0>         0.0931
     20 H6         -0.2601   -3.0003   -4.2862 H         1 <0>         0.0994
     21 H7         -0.2378   -1.3362   -3.6550 H         1 <0>         0.1167
     22 H8         -0.0588   -4.8327   -2.7042 H         1 <0>         0.4514
     23 H9          1.5651   -0.8215    0.5163 H         1 <0>         0.4315
@<TRIPOS>BOND
     1    1    2 1
     2    1   15 1
     3    1   16 1
     4    1   17 1
     5    2    3 2
     6    2    4 1
     7    3   23 1
     8    4    5 2
     9    5    9 1
    10    5    6 1
    11    6    7 1
    12    6   14 1
    13    7    8 2
    14    7   22 1
    15    8    9 1
    16    8   10 1
    17   10   11 2
    18   10   12 2
    19   10   13 1
    20   13   18 1
    21   14   19 1
    22   14   20 1
    23   14   21 1
@<TRIPOS>MOLECULE
ZINC00057719
   24    25     0     0     0
SMALL
USER_CHARGES
7-ethoxychromen-2-one
@<TRIPOS>ATOM
      1 C1         -2.5802    4.0249    0.0361 C.3       1 <0>        -0.1550
      2 C2         -1.1559    3.4661    0.0264 C.3       1 <0>         0.0514
      3 O1         -1.2045    2.0380    0.0188 O.3       1 <0>        -0.3054
      4 C3         -0.0167    1.3809    0.0096 C.ar      1 <0>         0.1915
      5 C4          1.1738    2.1055    0.0022 C.ar      1 <0>        -0.2283
      6 C5          2.3758    1.4597   -0.0124 C.ar      1 <0>        -0.0099
      7 C6          2.4136    0.0606   -0.0207 C.ar      1 <0>        -0.2019
      8 C7          3.6889   -0.6590   -0.0367 C.2       1 <0>         0.0111
      9 C8          3.6594   -2.0171   -0.0437 C.2       1 <0>        -0.2573
     10 C9          2.4212   -2.6917   -0.0355 C.2       1 <0>         0.5094
     11 O2          2.4090   -3.9096   -0.0419 O.2       1 <0>        -0.4613
     12 O3          1.2557   -2.0261   -0.0204 O.3       1 <0>        -0.2701
     13 C10         1.2148   -0.6765   -0.0132 C.ar      1 <0>         0.1898
     14 C11         0.0021   -0.0041    0.0020 C.ar      1 <0>        -0.1781
     15 H1         -3.1019    3.6744    0.9267 H         1 <0>         0.0688
     16 H2         -2.5431    5.1142    0.0419 H         1 <0>         0.0826
     17 H3         -3.1103    3.6840   -0.8532 H         1 <0>         0.0689
     18 H4         -0.6258    3.8069    0.9157 H         1 <0>         0.0683
     19 H5         -0.6342    3.8166   -0.8642 H         1 <0>         0.0683
     20 H6          1.1448    3.1851    0.0083 H         1 <0>         0.1416
     21 H7          3.2952    2.0265   -0.0186 H         1 <0>         0.1442
     22 H8          4.6273   -0.1245   -0.0425 H         1 <0>         0.1540
     23 H9          4.5819   -2.5786   -0.0559 H         1 <0>         0.1647
     24 H10        -0.9248   -0.5585    0.0076 H         1 <0>         0.1528
@<TRIPOS>BOND
     1    1    2 1
     2    1   15 1
     3    1   16 1
     4    1   17 1
     5    2    3 1
     6    2   18 1
     7    2   19 1
     8    3    4 1
     9    4   14 ar
    10    4    5 ar
    11    5    6 ar
    12    5   20 1
    13    6    7 ar
    14    6   21 1
    15    7   13 ar
    16    7    8 1
    17    8    9 2
    18    8   22 1
    19    9   10 1
    20    9   23 1
    21   10   11 2
    22   10   12 1
    23   12   13 1
    24   13   14 ar
    25   14   24 1
@<TRIPOS>MOLECULE
ZINC01532612
   32    31     0     0     0
SMALL
USER_CHARGES

@<TRIPOS>ATOM
      1 C1         -0.0187    1.5258    0.0104 C.3       1 <0>        -0.1525
      2 C2          0.0021   -0.0041    0.0020 C.3       1 <0>        -0.1508
      3 C3         -1.4333   -0.5336    0.0129 C.3       1 <0>        -0.0098
      4 N1         -1.4134   -2.0025    0.0048 N.4       1 <0>        -0.5105
      5 C4         -2.7915   -2.5110    0.0152 C.3       1 <0>        -0.0048
      6 C5         -2.7708   -4.0408    0.0068 C.3       1 <0>        -0.1881
      7 C6         -4.2062   -4.5704    0.0177 C.3       1 <0>        -0.0022
      8 N2         -4.1863   -6.0392    0.0096 N.4       1 <0>        -0.6386
      9 C7          1.4167    2.0553   -0.0004 C.3       1 <0>        -0.0083
     10 N3          1.3968    3.5242    0.0076 N.4       1 <0>        -0.6396
     11 H1         -0.5459    1.8868   -0.8726 H         1 <0>         0.1012
     12 H2         -0.5289    1.8773    0.9072 H         1 <0>         0.1012
     13 H3          0.5123   -0.3556   -0.8948 H         1 <0>         0.1018
     14 H4          0.5293   -0.3651    0.8851 H         1 <0>         0.1017
     15 H5         -1.9435   -0.1821    0.9097 H         1 <0>         0.1401
     16 H6         -1.9605   -0.1726   -0.8702 H         1 <0>         0.1401
     17 H7         -0.9411   -2.3279   -0.8254 H         1 <0>         0.4346
     18 H8         -3.3017   -2.1594    0.9120 H         1 <0>         0.1457
     19 H9         -3.3187   -2.1499   -0.8678 H         1 <0>         0.1457
     20 H10        -2.2606   -4.3923   -0.8900 H         1 <0>         0.1137
     21 H11        -2.2436   -4.4019    0.8899 H         1 <0>         0.1137
     22 H12        -4.7164   -4.2189    0.9145 H         1 <0>         0.1458
     23 H13        -4.7334   -4.2093   -0.8654 H         1 <0>         0.1458
     24 H14        -3.7140   -6.3646   -0.8206 H         1 <0>         0.4411
     25 H15        -3.6982   -6.3735    0.8270 H         1 <0>         0.4411
     26 H16         1.9439    1.6943    0.8826 H         1 <0>         0.1382
     27 H17         1.9269    1.7038   -0.8972 H         1 <0>         0.1382
     28 H18         0.9088    3.8584   -0.8098 H         1 <0>         0.4394
     29 H19         0.9245    3.8496    0.8378 H         1 <0>         0.4394
     30 H20        -5.1329   -6.3885    0.0168 H         1 <0>         0.4534
     31 H21         2.3434    3.8734    0.0005 H         1 <0>         0.4488
     32 H22        -0.9254   -2.3367    0.8222 H         1 <0>         0.4346
@<TRIPOS>BOND
     1    1    2 1
     2    1    9 1
     3    1   11 1
     4    1   12 1
     5    2    3 1
     6    2   13 1
     7    2   14 1
     8    3    4 1
     9    3   15 1
    10    3   16 1
    11    4    5 1
    12    4   17 1
    13    4   32 1
    14    5    6 1
    15    5   18 1
    16    5   19 1
    17    6    7 1
    18    6   20 1
    19    6   21 1
    20    7    8 1
    21    7   22 1
    22    7   23 1
    23    8   24 1
    24    8   25 1
    25    8   30 1
    26    9   10 1
    27    9   26 1
    28    9   27 1
    29   10   28 1
    30   10   29 1
    31   10   31 1
@<TRIPOS>MOLECULE
ZINC03813042
   19    19     0     0     0
SMALL
USER_CHARGES

@<TRIPOS>ATOM
      1 C1         -0.0184    1.5028    0.0103 C.3       1 <0>        -0.1669
      2 C2          0.0021   -0.0041    0.0020 C.2       1 <0>         0.5048
      3 O1          1.0605   -0.5961   -0.0113 O.2       1 <0>        -0.4597
      4 N1         -1.1558   -0.6938    0.0094 N.am      1 <0>        -0.6127
      5 C3         -1.1370   -2.0844    0.0017 C.2       1 <0>         0.2593
      6 N2         -0.1026   -2.9019   -0.0067 N.2       1 <0>        -0.3105
      7 N3         -0.2439   -4.1575   -0.0130 N.2       1 <0>        -0.1075
      8 C4         -1.4599   -4.6659   -0.0111 C.2       1 <0>        -0.5832
      9 S1         -2.4308   -3.1653    0.0083 S.3       1 <0>         0.2359
     10 S2         -1.9811   -6.3490   -0.0183 S.o2      1 <0>         2.7480
     11 O2         -1.9574   -6.7873    1.3333 O.2       1 <0>        -0.9356
     12 O3         -3.1545   -6.4075   -0.8177 O.2       1 <0>        -0.9350
     13 N4         -0.8199   -7.2178   -0.8179 N.pl3     1 <0>        -1.2313
     14 H1          1.0042    1.8801    0.0026 H         1 <0>         0.1076
     15 H2         -0.5455    1.8639   -0.8728 H         1 <0>         0.1002
     16 H3         -0.5286    1.8543    0.9071 H         1 <0>         0.1002
     17 H4         -2.0023   -0.2203    0.0200 H         1 <0>         0.4348
     18 H5         -0.6611   -8.1456   -0.5837 H         1 <0>         0.4284
     19 H6         -0.2986   -6.7988   -1.5204 H         1 <0>         0.4232
@<TRIPOS>BOND
     1    1    2 1
     2    1   14 1
     3    1   15 1
     4    1   16 1
     5    2    3 2
     6    2    4 am
     7    4    5 1
     8    4   17 1
     9    5    9 1
    10    5    6 2
    11    6    7 1
    12    7    8 2
    13    8    9 1
    14    8   10 1
    15   10   11 2
    16   10   12 2
    17   10   13 1
    18   13   18 1
    19   13   19 1
@<TRIPOS>MOLECULE
ZINC03813042
   18    18     0     0     0
SMALL
USER_CHARGES

@<TRIPOS>ATOM
      1 C1         -0.0184    1.5028    0.0103 C.3       1 <0>        -0.1624
      2 C2          0.0021   -0.0041    0.0020 C.2       1 <0>         0.5010
      3 O1          0.0203   -0.6161    1.0490 O.2       1 <0>        -0.4698
      4 N1          0.0001   -0.6716   -1.1688 N.am      1 <0>        -0.6150
      5 C3          0.0189   -2.0622   -1.1765 C.2       1 <0>         0.2229
      6 N2          0.0342   -2.8992   -0.1578 N.2       1 <0>        -0.3133
      7 N3          0.0506   -4.1518   -0.3231 N.2       1 <0>        -0.1306
      8 C4          0.0525   -4.6369   -1.5486 C.2       1 <0>        -0.4261
      9 S1          0.0209   -3.1183   -2.4906 S.3       1 <0>         0.1375
     10 S2          0.0731   -6.3097   -2.1017 S.o2      1 <0>         2.6009
     11 O2         -1.2748   -6.7592   -2.0864 O.2       1 <0>        -1.0365
     12 O3          0.8728   -6.3393   -3.2760 O.2       1 <0>        -1.0415
     13 N4          0.8799   -7.1939   -0.9573 N.2       1 <0>        -1.3126
     14 H1          1.0042    1.8801    0.0026 H         1 <0>         0.1013
     15 H2         -0.5455    1.8639   -0.8728 H         1 <0>         0.0851
     16 H3         -0.5286    1.8543    0.9071 H         1 <0>         0.1022
     17 H4         -0.0145   -0.1822   -2.0061 H         1 <0>         0.4269
     18 H5          0.9999   -8.1489   -1.0779 H         1 <0>         0.3298
@<TRIPOS>BOND
     1    1    2 1
     2    1   14 1
     3    1   15 1
     4    1   16 1
     5    2    3 2
     6    2    4 am
     7    4    5 1
     8    4   17 1
     9    5    9 1
    10    5    6 2
    11    6    7 1
    12    7    8 2
    13    8    9 1
    14    8   10 1
    15   10   11 2
    16   10   12 2
    17   10   13 1
    18   13   18 1
@<TRIPOS>MOLECULE
ZINC00119978
   35    37     0     0     0
SMALL
USER_CHARGES

@<TRIPOS>ATOM
      1 C1         -0.0167    1.3779    0.0096 C.ar      1 <0>        -0.0610
      2 C2          1.1696    2.0886    0.0021 C.ar      1 <0>        -0.1355
      3 C3          2.3802    1.4154   -0.0130 C.ar      1 <0>         0.0908
      4 C4          2.3990    0.0236   -0.0206 C.ar      1 <0>         0.0771
      5 C5          1.2071   -0.6822   -0.0130 C.ar      1 <0>        -0.1167
      6 C6          0.0021   -0.0041    0.0020 C.ar      1 <0>        -0.0830
      7 C7         -1.2936   -0.7736    0.0102 C.3       1 <0>         0.1458
      8 H1         -1.1201   -1.7884   -0.3479 H         1 <0>         0.0970
      9 C8         -1.8590   -0.8183    1.4356 C.3       1 <0>         0.0774
     10 H2         -1.1168   -1.2422    2.1121 H         1 <0>         0.0795
     11 C9         -3.1120   -1.6975    1.4281 C.3       1 <0>        -0.1008
     12 C10        -4.0118   -1.2895    0.2891 C.ar      1 <0>        -0.1920
     13 C11        -5.3448   -1.6839    0.3168 C.ar      1 <0>         0.1573
     14 C12        -6.1992   -1.3308   -0.7146 C.ar      1 <0>        -0.2027
     15 C13        -5.7231   -0.5806   -1.7796 C.ar      1 <0>         0.1581
     16 C14        -4.3960   -0.1855   -1.8071 C.ar      1 <0>        -0.1851
     17 C15        -3.5373   -0.5380   -0.7709 C.ar      1 <0>         0.1753
     18 O1         -2.2452   -0.1223   -0.8323 O.3       1 <0>        -0.2920
     19 O2         -6.5574   -0.2342   -2.7948 O.3       1 <0>        -0.4925
     20 O3         -5.8113   -2.4194    1.3600 O.3       1 <0>        -0.4918
     21 O4         -2.1991    0.5029    1.8606 O.3       1 <0>        -0.5471
     22 O5          3.5850   -0.6417   -0.0359 O.3       1 <0>        -0.4856
     23 O6          3.5476    2.1129   -0.0209 O.3       1 <0>        -0.4877
     24 H3         -0.9598    1.9038    0.0259 H         1 <0>         0.1392
     25 H4          1.1522    3.1684    0.0077 H         1 <0>         0.1364
     26 H5          1.2190   -1.7621   -0.0189 H         1 <0>         0.1353
     27 H6         -2.8221   -2.7410    1.3054 H         1 <0>         0.0902
     28 H7         -3.6445   -1.5781    2.3716 H         1 <0>         0.0880
     29 H8         -7.2339   -1.6393   -0.6898 H         1 <0>         0.1380
     30 H9         -4.0260    0.3985   -2.6368 H         1 <0>         0.1409
     31 H10        -7.0114    0.6089   -2.6604 H         1 <0>         0.3966
     32 H11        -6.1571   -1.8895    2.0913 H         1 <0>         0.3930
     33 H12        -2.5632    0.5468    2.7553 H         1 <0>         0.3808
     34 H13         3.9367   -0.8389    0.8430 H         1 <0>         0.3875
     35 H14         3.8938    2.3101    0.8602 H         1 <0>         0.3892
@<TRIPOS>BOND
     1    1    6 ar
     2    1    2 ar
     3    1   24 1
     4    2    3 ar
     5    2   25 1
     6    3    4 ar
     7    3   23 1
     8    4    5 ar
     9    4   22 1
    10    5    6 ar
    11    5   26 1
    12    6    7 1
    13    7    8 1
    14    7   18 1
    15    7    9 1
    16    9   10 1
    17    9   11 1
    18    9   21 1
    19   11   12 1
    20   11   27 1
    21   11   28 1
    22   12   17 ar
    23   12   13 ar
    24   13   14 ar
    25   13   20 1
    26   14   15 ar
    27   14   29 1
    28   15   16 ar
    29   15   19 1
    30   16   17 ar
    31   16   30 1
    32   17   18 1
    33   19   31 1
    34   20   32 1
    35   21   33 1
    36   22   34 1
    37   23   35 1
@<TRIPOS>MOLECULE
ZINC00119983
   35    37     0     0     0
SMALL
USER_CHARGES

@<TRIPOS>ATOM
      1 C1         -0.0167    1.3779    0.0096 C.ar      1 <0>        -0.0875
      2 C2          1.1696    2.0886    0.0021 C.ar      1 <0>        -0.1321
      3 C3          2.3802    1.4154   -0.0130 C.ar      1 <0>         0.0878
      4 C4          2.3990    0.0236   -0.0206 C.ar      1 <0>         0.0799
      5 C5          1.2071   -0.6822   -0.0130 C.ar      1 <0>        -0.0978
      6 C6          0.0021   -0.0041    0.0020 C.ar      1 <0>        -0.0724
      7 C7         -1.2936   -0.7736    0.0102 C.3       1 <0>         0.1449
      8 H1         -1.1302   -1.7631    0.4371 H         1 <0>         0.0922
      9 C8         -1.8224   -0.9103   -1.4233 C.3       1 <0>         0.0817
     10 H2         -2.0734    0.0744   -1.8178 H         1 <0>         0.0737
     11 C9         -3.0759   -1.7881   -1.3913 C.3       1 <0>        -0.1054
     12 C10        -4.0042   -1.3085   -0.3042 C.ar      1 <0>        -0.1944
     13 C11        -5.3364   -1.7051   -0.3406 C.ar      1 <0>         0.1607
     14 C12        -6.2168   -1.2864    0.6434 C.ar      1 <0>        -0.1995
     15 C13        -5.7673   -0.4690    1.6698 C.ar      1 <0>         0.1586
     16 C14        -4.4409   -0.0726    1.7062 C.ar      1 <0>        -0.1804
     17 C15        -3.5564   -0.4901    0.7171 C.ar      1 <0>         0.1616
     18 O1         -2.2659   -0.0703    0.7846 O.3       1 <0>        -0.2950
     19 O2         -6.6274   -0.0572    2.6380 O.3       1 <0>        -0.4915
     20 O3         -5.7767   -2.5064   -1.3460 O.3       1 <0>        -0.4913
     21 O4         -0.8272   -1.5201   -2.2478 O.3       1 <0>        -0.5487
     22 O5          3.5850   -0.6417   -0.0359 O.3       1 <0>        -0.4855
     23 O6          3.5476    2.1129   -0.0209 O.3       1 <0>        -0.4877
     24 H3         -0.9598    1.9038    0.0259 H         1 <0>         0.1338
     25 H4          1.1522    3.1684    0.0077 H         1 <0>         0.1365
     26 H5          1.2190   -1.7621   -0.0189 H         1 <0>         0.1360
     27 H6         -3.5841   -1.7300   -2.3539 H         1 <0>         0.0942
     28 H7         -2.7902   -2.8214   -1.1946 H         1 <0>         0.0882
     29 H8         -7.2509   -1.5961    0.6116 H         1 <0>         0.1400
     30 H9         -4.0917    0.5638    2.5059 H         1 <0>         0.1428
     31 H10        -6.6766   -0.6517    3.3991 H         1 <0>         0.3973
     32 H11        -5.7049   -3.4517   -1.1556 H         1 <0>         0.3955
     33 H12        -1.0970   -1.6366   -3.1690 H         1 <0>         0.3873
     34 H13         3.9367   -0.8389    0.8430 H         1 <0>         0.3877
     35 H14         3.8938    2.3101    0.8602 H         1 <0>         0.3889
@<TRIPOS>BOND
     1    1    6 ar
     2    1    2 ar
     3    1   24 1
     4    2    3 ar
     5    2   25 1
     6    3    4 ar
     7    3   23 1
     8    4    5 ar
     9    4   22 1
    10    5    6 ar
    11    5   26 1
    12    6    7 1
    13    7    8 1
    14    7   18 1
    15    7    9 1
    16    9   10 1
    17    9   11 1
    18    9   21 1
    19   11   12 1
    20   11   27 1
    21   11   28 1
    22   12   17 ar
    23   12   13 ar
    24   13   14 ar
    25   13   20 1
    26   14   15 ar
    27   14   29 1
    28   15   16 ar
    29   15   19 1
    30   16   17 ar
    31   16   30 1
    32   17   18 1
    33   19   31 1
    34   20   32 1
    35   21   33 1
    36   22   34 1
    37   23   35 1
@<TRIPOS>MOLECULE
ZINC00119985
   35    37     0     0     0
SMALL
USER_CHARGES

@<TRIPOS>ATOM
      1 C1         -0.0167    1.3779    0.0096 C.ar      1 <0>        -0.0867
      2 C2          1.1696    2.0886    0.0021 C.ar      1 <0>        -0.1323
      3 C3          2.3802    1.4154   -0.0130 C.ar      1 <0>         0.0885
      4 C4          2.3990    0.0236   -0.0206 C.ar      1 <0>         0.0807
      5 C5          1.2071   -0.6822   -0.0130 C.ar      1 <0>        -0.0990
      6 C6          0.0021   -0.0041    0.0020 C.ar      1 <0>        -0.0707
      7 C7         -1.2936   -0.7736    0.0102 C.3       1 <0>         0.1435
      8 H1         -1.1201   -1.7884   -0.3479 H         1 <0>         0.0926
      9 C8         -1.8590   -0.8183    1.4356 C.3       1 <0>         0.0823
     10 H2         -2.1191    0.1894    1.7595 H         1 <0>         0.0731
     11 C9         -3.1120   -1.6975    1.4281 C.3       1 <0>        -0.1021
     12 C10        -4.0118   -1.2895    0.2891 C.ar      1 <0>        -0.1942
     13 C11        -5.3448   -1.6839    0.3168 C.ar      1 <0>         0.1598
     14 C12        -6.1992   -1.3308   -0.7146 C.ar      1 <0>        -0.1989
     15 C13        -5.7231   -0.5806   -1.7796 C.ar      1 <0>         0.1590
     16 C14        -4.3960   -0.1855   -1.8071 C.ar      1 <0>        -0.1806
     17 C15        -3.5373   -0.5380   -0.7709 C.ar      1 <0>         0.1614
     18 O1         -2.2452   -0.1223   -0.8323 O.3       1 <0>        -0.2944
     19 O2         -6.5574   -0.2342   -2.7948 O.3       1 <0>        -0.4914
     20 O3         -5.8113   -2.4194    1.3600 O.3       1 <0>        -0.4904
     21 O4         -0.8856   -1.3731    2.3226 O.3       1 <0>        -0.5492
     22 O5          3.5850   -0.6417   -0.0359 O.3       1 <0>        -0.4860
     23 O6          3.5476    2.1129   -0.0209 O.3       1 <0>        -0.4876
     24 H3         -0.9598    1.9038    0.0259 H         1 <0>         0.1324
     25 H4          1.1522    3.1684    0.0077 H         1 <0>         0.1364
     26 H5          1.2190   -1.7621   -0.0189 H         1 <0>         0.1358
     27 H6         -2.8221   -2.7410    1.3054 H         1 <0>         0.0925
     28 H7         -3.6445   -1.5781    2.3716 H         1 <0>         0.0873
     29 H8         -7.2339   -1.6393   -0.6898 H         1 <0>         0.1400
     30 H9         -4.0260    0.3985   -2.6368 H         1 <0>         0.1432
     31 H10        -7.0114    0.6089   -2.6604 H         1 <0>         0.3973
     32 H11        -6.1571   -1.8895    2.0913 H         1 <0>         0.3941
     33 H12        -1.1790   -1.4304    3.2423 H         1 <0>         0.3861
     34 H13         3.9367   -0.8389    0.8430 H         1 <0>         0.3885
     35 H14         3.8938    2.3101    0.8602 H         1 <0>         0.3890
@<TRIPOS>BOND
     1    1    6 ar
     2    1    2 ar
     3    1   24 1
     4    2    3 ar
     5    2   25 1
     6    3    4 ar
     7    3   23 1
     8    4    5 ar
     9    4   22 1
    10    5    6 ar
    11    5   26 1
    12    6    7 1
    13    7    8 1
    14    7   18 1
    15    7    9 1
    16    9   10 1
    17    9   11 1
    18    9   21 1
    19   11   12 1
    20   11   27 1
    21   11   28 1
    22   12   17 ar
    23   12   13 ar
    24   13   14 ar
    25   13   20 1
    26   14   15 ar
    27   14   29 1
    28   15   16 ar
    29   15   19 1
    30   16   17 ar
    31   16   30 1
    32   17   18 1
    33   19   31 1
    34   20   32 1
    35   21   33 1
    36   22   34 1
    37   23   35 1
@<TRIPOS>MOLECULE
ZINC00119988
   35    37     0     0     0
SMALL
USER_CHARGES

@<TRIPOS>ATOM
      1 C1         -0.0167    1.3779    0.0096 C.ar      1 <0>        -0.0628
      2 C2          1.1696    2.0886    0.0021 C.ar      1 <0>        -0.1339
      3 C3          2.3802    1.4154   -0.0130 C.ar      1 <0>         0.0896
      4 C4          2.3990    0.0236   -0.0206 C.ar      1 <0>         0.0776
      5 C5          1.2071   -0.6822   -0.0130 C.ar      1 <0>        -0.1181
      6 C6          0.0021   -0.0041    0.0020 C.ar      1 <0>        -0.0813
      7 C7         -1.2936   -0.7736    0.0102 C.3       1 <0>         0.1464
      8 H1         -1.1302   -1.7631    0.4371 H         1 <0>         0.0966
      9 C8         -1.8224   -0.9103   -1.4233 C.3       1 <0>         0.0774
     10 H2         -1.0636   -1.3761   -2.0520 H         1 <0>         0.0797
     11 C9         -3.0759   -1.7881   -1.3913 C.3       1 <0>        -0.1047
     12 C10        -4.0042   -1.3085   -0.3042 C.ar      1 <0>        -0.1922
     13 C11        -5.3364   -1.7051   -0.3406 C.ar      1 <0>         0.1583
     14 C12        -6.2168   -1.2864    0.6434 C.ar      1 <0>        -0.2033
     15 C13        -5.7673   -0.4690    1.6698 C.ar      1 <0>         0.1577
     16 C14        -4.4409   -0.0726    1.7062 C.ar      1 <0>        -0.1847
     17 C15        -3.5564   -0.4901    0.7171 C.ar      1 <0>         0.1751
     18 O1         -2.2659   -0.0703    0.7846 O.3       1 <0>        -0.2923
     19 O2         -6.6274   -0.0572    2.6380 O.3       1 <0>        -0.4921
     20 O3         -5.7767   -2.5064   -1.3460 O.3       1 <0>        -0.4921
     21 O4         -2.1505    0.3807   -1.9409 O.3       1 <0>        -0.5467
     22 O5          3.5850   -0.6417   -0.0359 O.3       1 <0>        -0.4863
     23 O6          3.5476    2.1129   -0.0209 O.3       1 <0>        -0.4879
     24 H3         -0.9598    1.9038    0.0259 H         1 <0>         0.1388
     25 H4          1.1522    3.1684    0.0077 H         1 <0>         0.1366
     26 H5          1.2190   -1.7621   -0.0189 H         1 <0>         0.1349
     27 H6         -3.5841   -1.7300   -2.3539 H         1 <0>         0.0950
     28 H7         -2.7902   -2.8214   -1.1946 H         1 <0>         0.0859
     29 H8         -7.2509   -1.5961    0.6116 H         1 <0>         0.1380
     30 H9         -4.0917    0.5638    2.5059 H         1 <0>         0.1406
     31 H10        -6.6766   -0.6517    3.3991 H         1 <0>         0.3961
     32 H11        -5.7049   -3.4517   -1.1556 H         1 <0>         0.3938
     33 H12        -2.4917    0.3667   -2.8456 H         1 <0>         0.3831
     34 H13         3.9367   -0.8389    0.8430 H         1 <0>         0.3881
     35 H14         3.8938    2.3101    0.8602 H         1 <0>         0.3893
@<TRIPOS>BOND
     1    1    6 ar
     2    1    2 ar
     3    1   24 1
     4    2    3 ar
     5    2   25 1
     6    3    4 ar
     7    3   23 1
     8    4    5 ar
     9    4   22 1
    10    5    6 ar
    11    5   26 1
    12    6    7 1
    13    7    8 1
    14    7   18 1
    15    7    9 1
    16    9   10 1
    17    9   11 1
    18    9   21 1
    19   11   12 1
    20   11   27 1
    21   11   28 1
    22   12   17 ar
    23   12   13 ar
    24   13   14 ar
    25   13   20 1
    26   14   15 ar
    27   14   29 1
    28   15   16 ar
    29   15   19 1
    30   16   17 ar
    31   16   30 1
    32   17   18 1
    33   19   31 1
    34   20   32 1
    35   21   33 1
    36   22   34 1
    37   23   35 1
@<TRIPOS>MOLECULE
ZINC00119988
   35    37     0     0     0
SMALL
USER_CHARGES

@<TRIPOS>ATOM
      1 C1         -0.0167    1.3809    0.0096 C.ar      1 <0>        -0.2034
      2 C2          1.1766    2.0878    0.0020 C.ar      1 <0>         0.1587
      3 C3          2.3823    1.4068   -0.0152 C.ar      1 <0>        -0.1833
      4 C4          2.4025    0.0159   -0.0241 C.ar      1 <0>         0.1747
      5 C5          1.2122   -0.6887   -0.0130 C.ar      1 <0>        -0.1921
      6 C6          0.0021   -0.0041    0.0020 C.ar      1 <0>         0.1579
      7 O1         -1.1671   -0.6966    0.0088 O.3       1 <0>        -0.4928
      8 C7          1.1916   -2.1964   -0.0108 C.3       1 <0>        -0.1012
      9 C8          2.5519   -2.7315   -0.4648 C.3       1 <0>         0.0660
     10 H1          2.6125   -3.8007   -0.2614 H         1 <0>         0.0829
     11 C9          3.6454   -1.9935    0.3180 C.3       1 <0>         0.1091
     12 H2          3.4637   -2.0957    1.3879 H         1 <0>         0.0966
     13 O2          3.6065   -0.6132   -0.0469 O.3       1 <0>        -0.2931
     14 C10         5.0145   -2.5810   -0.0306 C.3       1 <0>        -0.0576
     15 H3          5.1878   -2.4642   -1.1004 H         1 <0>         0.1250
     16 C11         6.0934   -1.8145    0.7342 C.3       1 <0>        -0.1579
     17 C12         7.3999   -2.5792    0.6040 C.2       1 <0>         0.3268
     18 O3          8.4121   -2.0692    0.1868 O.2       1 <0>        -0.3922
     19 C13         7.3376   -4.0204    1.0348 C.2       1 <0>         0.3440
     20 O4          8.2788   -4.5790    1.5616 O.2       1 <0>        -0.3988
     21 C14         6.0607   -4.7093    0.7765 C.2       1 <0>        -0.2091
     22 C15         5.0182   -4.0387    0.3064 C.2       1 <0>        -0.0650
     23 O5          2.7189   -2.4973   -1.8645 O.3       1 <0>        -0.5485
     24 O6          1.1626    3.4467    0.0110 O.3       1 <0>        -0.4928
     25 H4         -0.9585    1.9092    0.0260 H         1 <0>         0.1381
     26 H5          3.3110    1.9580   -0.0220 H         1 <0>         0.1415
     27 H6         -1.5134   -0.8923   -0.8726 H         1 <0>         0.3943
     28 H7          0.9786   -2.5547    0.9963 H         1 <0>         0.0908
     29 H8          0.4173   -2.5494   -0.6920 H         1 <0>         0.0885
     30 H9          6.2071   -0.8171    0.3095 H         1 <0>         0.1147
     31 H10         5.8152   -1.7380    1.7853 H         1 <0>         0.1120
     32 H11         5.9735   -5.7677    0.9729 H         1 <0>         0.1507
     33 H12         4.1010   -4.5881    0.1539 H         1 <0>         0.1343
     34 H13         2.0487   -2.9221   -2.4171 H         1 <0>         0.3838
     35 H14         1.1675    3.8342    0.8969 H         1 <0>         0.3974
@<TRIPOS>BOND
     1    1    6 ar
     2    1    2 ar
     3    1   25 1
     4    2    3 ar
     5    2   24 1
     6    3    4 ar
     7    3   26 1
     8    4   13 1
     9    4    5 ar
    10    5    6 ar
    11    5    8 1
    12    6    7 1
    13    7   27 1
    14    8    9 1
    15    8   28 1
    16    8   29 1
    17    9   10 1
    18    9   11 1
    19    9   23 1
    20   11   12 1
    21   11   13 1
    22   11   14 1
    23   14   15 1
    24   14   22 1
    25   14   16 1
    26   16   17 1
    27   16   30 1
    28   16   31 1
    29   17   18 2
    30   17   19 1
    31   19   20 2
    32   19   21 1
    33   21   22 2
    34   21   32 1
    35   22   33 1
    36   23   34 1
    37   24   35 1
@<TRIPOS>MOLECULE
ZINC00119988
   35    37     0     0     0
SMALL
USER_CHARGES

@<TRIPOS>ATOM
      1 C1         -0.0115    1.3874    0.0191 C.ar      1 <0>        -0.2033
      2 C2          1.1827    2.0928    0.0180 C.ar      1 <0>         0.1585
      3 C3          2.3876    1.4102   -0.0001 C.ar      1 <0>        -0.1836
      4 C4          2.4060    0.0194   -0.0163 C.ar      1 <0>         0.1747
      5 C5          1.2147   -0.6837   -0.0116 C.ar      1 <0>        -0.1914
      6 C6          0.0055    0.0025    0.0043 C.ar      1 <0>         0.1581
      7 O1         -1.1647   -0.6886    0.0048 O.3       1 <0>        -0.4928
      8 C7          1.1921   -2.1913   -0.0174 C.3       1 <0>        -0.1014
      9 C8          2.5527   -2.7259   -0.4711 C.3       1 <0>         0.0670
     10 H1          2.6114   -3.7962   -0.2733 H         1 <0>         0.0832
     11 C9          3.6454   -1.9935    0.3180 C.3       1 <0>         0.1093
     12 H2          3.4611   -2.1011    1.3869 H         1 <0>         0.0965
     13 O2          3.6091   -0.6112   -0.0397 O.3       1 <0>        -0.2948
     14 C10         5.0145   -2.5810   -0.0306 C.3       1 <0>        -0.0588
     15 H3          5.1593   -2.5253   -1.1095 H         1 <0>         0.1255
     16 C11         5.0503   -4.0471    0.4005 C.3       1 <0>        -0.1613
     17 C12         6.4876   -4.5317    0.3122 C.2       1 <0>         0.3305
     18 O3          6.8066   -5.5054   -0.3275 O.2       1 <0>        -0.3919
     19 C13         7.4842   -3.7066    1.0817 C.2       1 <0>         0.3458
     20 O4          8.4561   -4.2003    1.6175 O.2       1 <0>        -0.4006
     21 C14         7.2047   -2.2609    1.1425 C.2       1 <0>        -0.2224
     22 C15         6.0768   -1.7729    0.6451 C.2       1 <0>        -0.0536
     23 O5          2.7232   -2.4845   -1.8692 O.3       1 <0>        -0.5492
     24 O6          1.1705    3.4515    0.0340 O.3       1 <0>        -0.4928
     25 H4         -0.9527    1.9168    0.0361 H         1 <0>         0.1381
     26 H5          3.3171    1.9602   -0.0019 H         1 <0>         0.1412
     27 H6         -1.5093   -0.8792   -0.8784 H         1 <0>         0.3945
     28 H7          0.9763   -2.5547    0.9873 H         1 <0>         0.0909
     29 H8          0.4189   -2.5398   -0.7022 H         1 <0>         0.0886
     30 H9          4.6940   -4.1377    1.4266 H         1 <0>         0.1150
     31 H10         4.4205   -4.6409   -0.2620 H         1 <0>         0.1107
     32 H11         7.9233   -1.5947    1.5966 H         1 <0>         0.1490
     33 H12         5.9137   -0.7089    0.7331 H         1 <0>         0.1393
     34 H13         2.0536   -2.9055   -2.4256 H         1 <0>         0.3843
     35 H14         1.1740    3.8344    0.9220 H         1 <0>         0.3974
@<TRIPOS>BOND
     1    1    6 ar
     2    1    2 ar
     3    1   25 1
     4    2    3 ar
     5    2   24 1
     6    3    4 ar
     7    3   26 1
     8    4   13 1
     9    4    5 ar
    10    5    6 ar
    11    5    8 1
    12    6    7 1
    13    7   27 1
    14    8    9 1
    15    8   28 1
    16    8   29 1
    17    9   10 1
    18    9   11 1
    19    9   23 1
    20   11   12 1
    21   11   13 1
    22   11   14 1
    23   14   15 1
    24   14   22 1
    25   14   16 1
    26   16   17 1
    27   16   30 1
    28   16   31 1
    29   17   18 2
    30   17   19 1
    31   19   20 2
    32   19   21 1
    33   21   22 2
    34   21   32 1
    35   22   33 1
    36   23   34 1
    37   24   35 1
@<TRIPOS>MOLECULE
ZINC00002101
   19    19     0     0     0
SMALL
USER_CHARGES

@<TRIPOS>ATOM
      1 C1         -0.0168    1.3849    0.0097 C.ar      1 <0>        -0.2192
      2 C2          1.1707    2.0901    0.0021 C.ar      1 <0>         0.0295
      3 C3          2.3774    1.4150   -0.0135 C.ar      1 <0>        -0.7336
      4 C4          2.3998    0.0323   -0.0211 C.ar      1 <0>         0.0295
      5 C5          1.2161   -0.6790   -0.0137 C.ar      1 <0>        -0.2192
      6 C6          0.0021   -0.0041    0.0020 C.ar      1 <0>         0.2713
      7 N1         -1.1970   -0.7204    0.0101 N.pl3     1 <0>        -0.8647
      8 S1          3.8900    2.3186   -0.0243 S.o2      1 <0>         2.7050
      9 O1          4.8717    1.4606   -0.5894 O.2       1 <0>        -0.9693
     10 O2          3.5945    3.5988   -0.5657 O.2       1 <0>        -0.9693
     11 N2          4.3264    2.5618    1.5546 N.pl3     1 <0>        -1.2522
     12 H1         -0.9589    1.9127    0.0260 H         1 <0>         0.1318
     13 H2          1.1567    3.1700    0.0080 H         1 <0>         0.1423
     14 H3          3.3440   -0.4918   -0.0333 H         1 <0>         0.1423
     15 H4          1.2342   -1.7588   -0.0200 H         1 <0>         0.1318
     16 H5         -2.0441   -0.2480    0.0210 H         1 <0>         0.4043
     17 H6         -1.1825   -1.6903    0.0047 H         1 <0>         0.4042
     18 H7          3.7678    2.2202    2.2703 H         1 <0>         0.4159
     19 H8          5.1405    3.0458    1.7638 H         1 <0>         0.4195
@<TRIPOS>BOND
     1    1    6 ar
     2    1    2 ar
     3    1   12 1
     4    2    3 ar
     5    2   13 1
     6    3    4 ar
     7    3    8 1
     8    4    5 ar
     9    4   14 1
    10    5    6 ar
    11    5   15 1
    12    6    7 1
    13    7   16 1
    14    7   17 1
    15    8    9 2
    16    8   10 2
    17    8   11 1
    18   11   18 1
    19   11   19 1
@<TRIPOS>MOLECULE
ZINC01530621
   36    37     0     0     0
SMALL
USER_CHARGES

@<TRIPOS>ATOM
      1 C1         -0.1492    1.5288   -2.3323 C.3       1 <0>        -0.1908
      2 C2         -0.1164   -0.0009   -2.3383 C.3       1 <0>        -0.0181
      3 N1          0.6897   -0.4778   -1.2066 N.4       1 <0>        -0.5107
      4 C3          0.6171   -1.9434   -1.1370 C.3       1 <0>         0.0811
      5 H1         -0.4294   -2.2430   -1.0818 H         1 <0>         0.1707
      6 C4          1.2315   -2.5278   -2.3982 C.3       1 <0>        -0.1422
      7 C5          1.0962   -4.0576   -2.4201 C.3       1 <0>        -0.5404
      8 H2          1.3613   -4.4411   -3.4054 H         1 <0>         0.1747
      9 S1          2.2539   -4.7069   -1.1650 S.o2      1 <0>         2.5047
     10 O1          3.5991   -4.5241   -1.5850 O.2       1 <0>        -0.8957
     11 O2          1.8041   -5.9618   -0.6729 O.2       1 <0>        -0.8922
     12 C6          2.0269   -3.5802    0.1606 C.2       1 <0>        -0.7063
     13 C7          1.3317   -2.4135    0.1206 C.2       1 <0>        -0.0916
     14 C8          1.3152   -1.6792    1.3120 C.2       1 <0>        -0.0530
     15 C9          1.9529   -2.1428    2.4103 C.2       1 <0>        -0.7342
     16 S2          2.6320   -3.6831    1.8188 S.3       1 <0>         0.4502
     17 S3          2.0784   -1.4167    4.0108 S.o2      1 <0>         2.7294
     18 O3          3.2503   -1.9529    4.6093 O.2       1 <0>        -0.9323
     19 O4          1.8813   -0.0198    3.8397 O.2       1 <0>        -0.9386
     20 N2          0.7966   -1.9699    4.9014 N.pl3     1 <0>        -1.2425
     21 C10        -0.3376   -4.4611   -2.0706 C.3       1 <0>        -0.1547
     22 H3         -0.5902    1.8790   -1.3990 H         1 <0>         0.0836
     23 H4          0.8664    1.9144   -2.4215 H         1 <0>         0.0841
     24 H5         -0.7473    1.8826   -3.1720 H         1 <0>         0.1120
     25 H6         -1.1320   -0.3865   -2.2491 H         1 <0>         0.1372
     26 H7          0.3246   -0.3511   -3.2716 H         1 <0>         0.1380
     27 H8          1.6496   -0.1943   -1.3342 H         1 <0>         0.4338
     28 H9          0.7251   -2.1113   -3.2689 H         1 <0>         0.1303
     29 H10         2.2877   -2.2615   -2.4382 H         1 <0>         0.1132
     30 H11         0.7901   -0.7364    1.3541 H         1 <0>         0.1546
     31 H12         0.1572   -2.5812    4.5032 H         1 <0>         0.4194
     32 H13         0.6850   -1.6827    5.8211 H         1 <0>         0.4322
     33 H14        -1.0243   -4.0299   -2.7990 H         1 <0>         0.0942
     34 H15        -0.4240   -5.5475   -2.0887 H         1 <0>         0.0985
     35 H16        -0.5861   -4.0934   -1.0750 H         1 <0>         0.0698
     36 H17         0.3332   -0.0823   -0.3495 H         1 <0>         0.4317
@<TRIPOS>BOND
     1    1    2 1
     2    1   22 1
     3    1   23 1
     4    1   24 1
     5    2    3 1
     6    2   25 1
     7    2   26 1
     8    3    4 1
     9    3   27 1
    10    3   36 1
    11    4    5 1
    12    4   13 1
    13    4    6 1
    14    6    7 1
    15    6   28 1
    16    6   29 1
    17    7    8 1
    18    7    9 1
    19    7   21 1
    20    9   10 2
    21    9   11 2
    22    9   12 1
    23   12   16 1
    24   12   13 2
    25   13   14 1
    26   14   15 2
    27   14   30 1
    28   15   16 1
    29   15   17 1
    30   17   18 2
    31   17   19 2
    32   17   20 1
    33   20   31 1
    34   20   32 1
    35   21   33 1
    36   21   34 1
    37   21   35 1
@<TRIPOS>MOLECULE
ZINC01530621
   35    36     0     0     0
SMALL
USER_CHARGES

@<TRIPOS>ATOM
      1 C1         -0.1492    1.5288   -2.3323 C.3       1 <0>        -0.1899
      2 C2         -0.1164   -0.0009   -2.3383 C.3       1 <0>        -0.0168
      3 N1          0.6897   -0.4778   -1.2066 N.4       1 <0>        -0.5101
      4 C3          0.6171   -1.9434   -1.1370 C.3       1 <0>         0.0836
      5 H1         -0.4294   -2.2430   -1.0818 H         1 <0>         0.1646
      6 C4          1.2315   -2.5278   -2.3982 C.3       1 <0>        -0.1369
      7 C5          1.0962   -4.0576   -2.4201 C.3       1 <0>        -0.5464
      8 H2          1.3613   -4.4411   -3.4054 H         1 <0>         0.1665
      9 S1          2.2539   -4.7069   -1.1650 S.o2      1 <0>         2.5192
     10 O1          3.5991   -4.5241   -1.5850 O.2       1 <0>        -0.9107
     11 O2          1.8041   -5.9618   -0.6729 O.2       1 <0>        -0.9035
     12 C6          2.0269   -3.5802    0.1606 C.2       1 <0>        -0.7471
     13 C7          1.3317   -2.4135    0.1206 C.2       1 <0>        -0.0802
     14 C8          1.3152   -1.6792    1.3120 C.2       1 <0>        -0.1090
     15 C9          1.9529   -2.1428    2.4103 C.2       1 <0>        -0.5881
     16 S2          2.6320   -3.6831    1.8188 S.3       1 <0>         0.3963
     17 S3          2.0784   -1.4167    4.0108 S.o2      1 <0>         2.5827
     18 O3          3.2503   -1.9529    4.6093 O.2       1 <0>        -1.0359
     19 O4          1.8813   -0.0198    3.8397 O.2       1 <0>        -1.0427
     20 N2          0.7966   -1.9699    4.9014 N.2       1 <0>        -1.3223
     21 C10        -0.3376   -4.4611   -2.0706 C.3       1 <0>        -0.1530
     22 H3         -0.5902    1.8790   -1.3990 H         1 <0>         0.0843
     23 H4          0.8664    1.9144   -2.4215 H         1 <0>         0.0823
     24 H5         -0.7473    1.8826   -3.1720 H         1 <0>         0.1074
     25 H6         -1.1320   -0.3865   -2.2491 H         1 <0>         0.1347
     26 H7          0.3246   -0.3511   -3.2716 H         1 <0>         0.1340
     27 H8          1.6496   -0.1943   -1.3342 H         1 <0>         0.4317
     28 H9          0.7251   -2.1113   -3.2689 H         1 <0>         0.1221
     29 H10         2.2877   -2.2615   -2.4382 H         1 <0>         0.1096
     30 H11         0.7901   -0.7364    1.3541 H         1 <0>         0.1443
     31 H12         0.6850   -1.6827    5.8211 H         1 <0>         0.3366
     32 H13        -1.0243   -4.0299   -2.7990 H         1 <0>         0.0883
     33 H14        -0.4240   -5.5475   -2.0887 H         1 <0>         0.0947
     34 H15        -0.5861   -4.0934   -1.0750 H         1 <0>         0.0739
     35 H16         0.3332   -0.0823   -0.3495 H         1 <0>         0.4358
@<TRIPOS>BOND
     1    1    2 1
     2    1   22 1
     3    1   23 1
     4    1   24 1
     5    2    3 1
     6    2   25 1
     7    2   26 1
     8    3    4 1
     9    3   27 1
    10    3   35 1
    11    4    5 1
    12    4   13 1
    13    4    6 1
    14    6    7 1
    15    6   28 1
    16    6   29 1
    17    7    8 1
    18    7    9 1
    19    7   21 1
    20    9   10 2
    21    9   11 2
    22    9   12 1
    23   12   16 1
    24   12   13 2
    25   13   14 1
    26   14   15 2
    27   14   30 1
    28   15   16 1
    29   15   17 1
    30   17   18 2
    31   17   19 2
    32   17   20 1
    33   20   31 1
    34   21   32 1
    35   21   33 1
    36   21   34 1
@<TRIPOS>MOLECULE
ZINC03953037
   45    46     0     0     0
SMALL
USER_CHARGES

@<TRIPOS>ATOM
      1 C1         -0.1443    1.5287   -2.3361 C.3       1 <0>        -0.1906
      2 C2         -0.1122   -0.0010   -2.3413 C.3       1 <0>        -0.0185
      3 N1          0.6897   -0.4778   -1.2066 N.4       1 <0>        -0.5081
      4 C3          0.6170   -1.9434   -1.1372 C.3       1 <0>         0.0658
      5 H1         -0.4299   -2.2419   -1.0821 H         1 <0>         0.1708
      6 C4          1.2290   -2.5266   -2.4008 C.3       1 <0>         0.0853
      7 N2          1.2178   -4.0017   -2.3725 N.pl3     1 <0>        -0.9751
      8 S1          2.1913   -4.6964   -1.1964 S.o2      1 <0>         2.6993
      9 O1          3.5356   -4.5934   -1.6450 O.2       1 <0>        -0.9052
     10 O2          1.5909   -5.9295   -0.8245 O.2       1 <0>        -0.9104
     11 C5          2.0056   -3.5925    0.1555 C.2       1 <0>        -0.7299
     12 C6          1.3290   -2.4121    0.1220 C.2       1 <0>        -0.0847
     13 C7          1.3364   -1.6821    1.3141 C.2       1 <0>        -0.0518
     14 C8          1.9728   -2.1632    2.4071 C.2       1 <0>        -0.7315
     15 S2          2.6159   -3.7161    1.8064 S.3       1 <0>         0.4568
     16 S3          2.1242   -1.4453    4.0091 S.o2      1 <0>         2.7294
     17 O3          3.2891   -2.0074    4.5975 O.2       1 <0>        -0.9316
     18 O4          1.9545   -0.0442    3.8439 O.2       1 <0>        -0.9372
     19 N3          0.8376   -1.9754    4.9067 N.pl3     1 <0>        -1.2424
     20 C9          0.4155   -4.8004   -3.3024 C.3       1 <0>         0.1263
     21 C10         1.1924   -4.9992   -4.6054 C.3       1 <0>        -0.1475
     22 C11         0.3545   -5.8334   -5.5765 C.3       1 <0>         0.0598
     23 O5          1.0801   -6.0191   -6.7935 O.3       1 <0>        -0.3912
     24 C12         0.3826   -6.7895   -7.7743 C.3       1 <0>         0.0300
     25 H2         -0.5884    1.8796   -1.4045 H         1 <0>         0.0836
     26 H3          0.8718    1.9137   -2.4219 H         1 <0>         0.0846
     27 H4         -0.7393    1.8825   -3.1781 H         1 <0>         0.1124
     28 H5         -1.1283   -0.3860   -2.2555 H         1 <0>         0.1382
     29 H6          0.3319   -0.3519   -3.2729 H         1 <0>         0.1384
     30 H7          1.6500   -0.1942   -1.3306 H         1 <0>         0.4345
     31 H8          0.6601   -2.1822   -3.2644 H         1 <0>         0.1336
     32 H9          2.2582   -2.1795   -2.4917 H         1 <0>         0.1084
     33 H10         0.8317   -0.7286    1.3630 H         1 <0>         0.1566
     34 H11         0.1832   -2.5721    4.5111 H         1 <0>         0.4194
     35 H12         0.7383   -1.6891    5.8282 H         1 <0>         0.4325
     36 H13         0.2008   -5.7712   -2.8556 H         1 <0>         0.1064
     37 H14        -0.5201   -4.2823   -3.5126 H         1 <0>         0.0967
     38 H15         1.4071   -4.0284   -5.0521 H         1 <0>         0.0821
     39 H16         2.1280   -5.5174   -4.3951 H         1 <0>         0.0798
     40 H17         0.1398   -6.8042   -5.1298 H         1 <0>         0.0563
     41 H18        -0.5811   -5.3152   -5.7868 H         1 <0>         0.0538
     42 H19         0.1684   -7.7802   -7.3732 H         1 <0>         0.0459
     43 H20        -0.5525   -6.2912   -8.0301 H         1 <0>         0.0441
     44 H21         0.9998   -6.8849   -8.6676 H         1 <0>         0.0916
     45 H22         0.3300   -0.0823   -0.3509 H         1 <0>         0.4332
@<TRIPOS>BOND
     1    1    2 1
     2    1   25 1
     3    1   26 1
     4    1   27 1
     5    2    3 1
     6    2   28 1
     7    2   29 1
     8    3    4 1
     9    3   30 1
    10    3   45 1
    11    4    5 1
    12    4   12 1
    13    4    6 1
    14    6    7 1
    15    6   31 1
    16    6   32 1
    17    7    8 1
    18    7   20 1
    19    8    9 2
    20    8   10 2
    21    8   11 1
    22   11   15 1
    23   11   12 2
    24   12   13 1
    25   13   14 2
    26   13   33 1
    27   14   15 1
    28   14   16 1
    29   16   17 2
    30   16   18 2
    31   16   19 1
    32   19   34 1
    33   19   35 1
    34   20   21 1
    35   20   36 1
    36   20   37 1
    37   21   22 1
    38   21   38 1
    39   21   39 1
    40   22   23 1
    41   22   40 1
    42   22   41 1
    43   23   24 1
    44   24   42 1
    45   24   43 1
    46   24   44 1
@<TRIPOS>MOLECULE
ZINC03953037
   44    45     0     0     0
SMALL
USER_CHARGES

@<TRIPOS>ATOM
      1 C1          2.0763    1.5400    1.0749 C.3       1 <0>        -0.1898
      2 C2          2.0886    0.0101    1.0747 C.3       1 <0>        -0.0171
      3 N1          0.7126   -0.4907    1.1921 N.4       1 <0>        -0.5075
      4 C3          0.7116   -1.9542    1.0652 C.3       1 <0>         0.0682
      5 H1          1.1917   -2.2265    0.1253 H         1 <0>         0.1647
      6 C4          1.5092   -2.5482    2.2152 C.3       1 <0>         0.0909
      7 N2          1.5133   -4.0226    2.1618 N.pl3     1 <0>        -0.9789
      8 S1          0.0190   -4.7457    2.4028 S.o2      1 <0>         2.7115
      9 O1         -0.2658   -4.6749    3.7932 O.2       1 <0>        -0.9213
     10 O2          0.0162   -5.9646    1.6724 O.2       1 <0>        -0.9224
     11 C5         -1.0762   -3.6422    1.5883 C.2       1 <0>        -0.7709
     12 C6         -0.7274   -2.4451    1.0428 C.2       1 <0>        -0.0734
     13 C7         -1.7749   -1.7197    0.4678 C.2       1 <0>        -0.1075
     14 C8         -3.0320   -2.2204    0.4627 C.2       1 <0>        -0.5845
     15 S2         -2.8090   -3.7869    1.2888 S.3       1 <0>         0.4019
     16 S3         -4.5062   -1.5121   -0.1927 S.o2      1 <0>         2.5818
     17 O3         -5.5893   -2.1053    0.5104 O.2       1 <0>        -1.0351
     18 O4         -4.3002   -0.1066   -0.2291 O.2       1 <0>        -1.0413
     19 N3         -4.6325   -2.0129   -1.7661 N.2       1 <0>        -1.3217
     20 C9          2.7319   -4.7977    1.9161 C.3       1 <0>         0.1279
     21 C10         3.4753   -5.0114    3.2362 C.3       1 <0>        -0.1467
     22 C11         4.7480   -5.8209    2.9796 C.3       1 <0>         0.0605
     23 O5          5.4423   -6.0204    4.2126 O.3       1 <0>        -0.3916
     24 C12         6.6522   -6.7697    4.0836 C.3       1 <0>         0.0305
     25 H2          1.6368    1.8998    2.0052 H         1 <0>         0.0828
     26 H3          3.0973    1.9116    0.9877 H         1 <0>         0.1079
     27 H4          1.4859    1.8987    0.2317 H         1 <0>         0.0843
     28 H5          2.5280   -0.3497    0.1444 H         1 <0>         0.1356
     29 H6          2.6789   -0.3486    1.9179 H         1 <0>         0.1344
     30 H7          0.3357   -0.2309    2.0913 H         1 <0>         0.4324
     31 H8          2.5361   -2.1866    2.1612 H         1 <0>         0.1259
     32 H9          1.0682   -2.2267    3.1587 H         1 <0>         0.1045
     33 H10        -1.5798   -0.7540    0.0254 H         1 <0>         0.1463
     34 H11        -5.3853   -1.7274   -2.3070 H         1 <0>         0.3370
     35 H12         2.4675   -5.7644    1.4875 H         1 <0>         0.1042
     36 H13         3.3735   -4.2555    1.2215 H         1 <0>         0.0930
     37 H14         3.7397   -4.0447    3.6649 H         1 <0>         0.0806
     38 H15         2.8337   -5.5536    3.9308 H         1 <0>         0.0792
     39 H16         4.4835   -6.7875    2.5510 H         1 <0>         0.0562
     40 H17         5.3896   -5.2787    2.2850 H         1 <0>         0.0533
     41 H18         6.4273   -7.7561    3.6779 H         1 <0>         0.0449
     42 H19         7.3333   -6.2472    3.4119 H         1 <0>         0.0428
     43 H20         7.1190   -6.8774    5.0627 H         1 <0>         0.0893
     44 H21         0.1450   -0.0893    0.4608 H         1 <0>         0.4372
@<TRIPOS>BOND
     1    1    2 1
     2    1   25 1
     3    1   26 1
     4    1   27 1
     5    2    3 1
     6    2   28 1
     7    2   29 1
     8    3    4 1
     9    3   30 1
    10    3   44 1
    11    4    5 1
    12    4   12 1
    13    4    6 1
    14    6    7 1
    15    6   31 1
    16    6   32 1
    17    7    8 1
    18    7   20 1
    19    8    9 2
    20    8   10 2
    21    8   11 1
    22   11   15 1
    23   11   12 2
    24   12   13 1
    25   13   14 2
    26   13   33 1
    27   14   15 1
    28   14   16 1
    29   16   17 2
    30   16   18 2
    31   16   19 1
    32   19   34 1
    33   20   21 1
    34   20   35 1
    35   20   36 1
    36   21   22 1
    37   21   37 1
    38   21   38 1
    39   22   23 1
    40   22   39 1
    41   22   40 1
    42   23   24 1
    43   24   41 1
    44   24   42 1
    45   24   43 1
@<TRIPOS>MOLECULE
ZINC01530804
   42    44     0     0     0
SMALL
USER_CHARGES

@<TRIPOS>ATOM
      1 C1         -0.1414    1.1782    1.1025 C.3       1 <0>        -0.1657
      2 C2         -0.0047   -0.3406    0.9788 C.3       1 <0>         0.2393
      3 O1          0.4336   -0.6809   -0.3520 O.3       1 <0>        -0.3486
      4 C3          1.8586   -0.8253   -0.2194 C.3       1 <0>         0.0180
      5 H1          2.3279    0.1582   -0.1959 H         1 <0>         0.0955
      6 C4          2.4671   -1.6561   -1.3282 C.3       1 <0>         0.0615
      7 O2          1.9135   -2.9701   -1.3154 O.3       1 <0>        -0.3068
      8 C5          2.1315   -3.6952   -0.1268 C.3       1 <0>         0.2582
      9 C6          1.5886   -2.9749    1.1170 C.3       1 <0>         0.0223
     10 H2          0.5124   -3.1112    1.2238 H         1 <0>         0.1391
     11 C7          1.9968   -1.5000    1.1552 C.3       1 <0>         0.0492
     12 H3          2.9929   -1.3657    1.5768 H         1 <0>         0.1317
     13 O3          0.9684   -0.8158    1.9209 O.3       1 <0>        -0.3662
     14 O4          2.3254   -3.6306    2.1835 O.3       1 <0>        -0.3622
     15 C8          3.5307   -4.1478    1.6005 C.3       1 <0>         0.2431
     16 O5          3.5253   -3.8561    0.1888 O.3       1 <0>        -0.3666
     17 C9          4.7443   -3.4871    2.2574 C.3       1 <0>        -0.1505
     18 C10         3.5958   -5.6617    1.8124 C.3       1 <0>        -0.1864
     19 C11         1.4685   -5.0698   -0.2356 C.3       1 <0>         0.0825
     20 O6          2.1389   -5.8445   -1.2317 O.3       1 <0>        -0.7265
     21 S1          1.5597   -7.2386   -1.4254 S.o2      1 <0>         2.6826
     22 O7          2.4548   -7.9350   -2.2815 O.2       1 <0>        -1.0652
     23 O8          1.2135   -7.7177   -0.1332 O.2       1 <0>        -1.0999
     24 N1          0.1411   -7.0674   -2.2625 N.2       1 <0>        -1.3687
     25 C12        -1.3558   -1.0027    1.2569 C.3       1 <0>        -0.1582
     26 H4          0.8207    1.6475    0.8968 H         1 <0>         0.0616
     27 H5         -0.8808    1.5361    0.3860 H         1 <0>         0.0773
     28 H6         -0.4614    1.4331    2.1128 H         1 <0>         0.0749
     29 H7          2.2585   -1.1852   -2.2889 H         1 <0>         0.1202
     30 H8          3.5458   -1.7168   -1.1842 H         1 <0>         0.0862
     31 H9          4.7535   -3.7210    3.3219 H         1 <0>         0.0808
     32 H10         5.6571   -3.8626    1.7950 H         1 <0>         0.0792
     33 H11         4.6869   -2.4069    2.1231 H         1 <0>         0.0625
     34 H12         2.5933   -6.0827    1.7363 H         1 <0>         0.0832
     35 H13         4.2360   -6.1079    1.0514 H         1 <0>         0.0832
     36 H14         4.0046   -5.8730    2.8005 H         1 <0>         0.0768
     37 H15         1.5314   -5.5806    0.7253 H         1 <0>         0.1099
     38 H16         0.4218   -4.9473   -0.5141 H         1 <0>         0.1013
     39 H17        -0.3863   -7.8495   -2.4881 H         1 <0>         0.3260
     40 H18        -2.0938   -0.6361    0.5434 H         1 <0>         0.0779
     41 H19        -1.2583   -2.0836    1.1559 H         1 <0>         0.0696
     42 H20        -1.6777   -0.7600    2.2696 H         1 <0>         0.0781
@<TRIPOS>BOND
     1    1    2 1
     2    1   26 1
     3    1   27 1
     4    1   28 1
     5    2   13 1
     6    2    3 1
     7    2   25 1
     8    3    4 1
     9    4    5 1
    10    4   11 1
    11    4    6 1
    12    6    7 1
    13    6   29 1
    14    6   30 1
    15    7    8 1
    16    8   16 1
    17    8    9 1
    18    8   19 1
    19    9   10 1
    20    9   11 1
    21    9   14 1
    22   11   12 1
    23   11   13 1
    24   14   15 1
    25   15   16 1
    26   15   17 1
    27   15   18 1
    28   17   31 1
    29   17   32 1
    30   17   33 1
    31   18   34 1
    32   18   35 1
    33   18   36 1
    34   19   20 1
    35   19   37 1
    36   19   38 1
    37   20   21 1
    38   21   22 2
    39   21   23 2
    40   21   24 1
    41   24   39 1
    42   25   40 1
    43   25   41 1
    44   25   42 1
@<TRIPOS>MOLECULE
ZINC01530804
   43    45     0     0     0
SMALL
USER_CHARGES

@<TRIPOS>ATOM
      1 C1         -0.1414    1.1782    1.1025 C.3       1 <0>        -0.1689
      2 C2         -0.0047   -0.3406    0.9788 C.3       1 <0>         0.2400
      3 O1          0.4336   -0.6809   -0.3520 O.3       1 <0>        -0.3516
      4 C3          1.8586   -0.8253   -0.2194 C.3       1 <0>         0.0156
      5 H1          2.3279    0.1582   -0.1959 H         1 <0>         0.1022
      6 C4          2.4671   -1.6561   -1.3282 C.3       1 <0>         0.0660
      7 O2          1.9135   -2.9701   -1.3154 O.3       1 <0>        -0.3195
      8 C5          2.1315   -3.6952   -0.1268 C.3       1 <0>         0.2579
      9 C6          1.5886   -2.9749    1.1170 C.3       1 <0>         0.0224
     10 H2          0.5124   -3.1112    1.2238 H         1 <0>         0.1406
     11 C7          1.9968   -1.5000    1.1552 C.3       1 <0>         0.0483
     12 H3          2.9929   -1.3657    1.5768 H         1 <0>         0.1355
     13 O3          0.9684   -0.8158    1.9209 O.3       1 <0>        -0.3615
     14 O4          2.3254   -3.6306    2.1835 O.3       1 <0>        -0.3573
     15 C8          3.5307   -4.1478    1.6005 C.3       1 <0>         0.2406
     16 O5          3.5253   -3.8561    0.1888 O.3       1 <0>        -0.3608
     17 C9          4.7443   -3.4871    2.2574 C.3       1 <0>        -0.1549
     18 C10         3.5958   -5.6617    1.8124 C.3       1 <0>        -0.1875
     19 C11         1.4685   -5.0698   -0.2356 C.3       1 <0>         0.0540
     20 O6          2.1389   -5.8445   -1.2317 O.3       1 <0>        -0.7190
     21 S1          1.5597   -7.2386   -1.4254 S.o2      1 <0>         2.7922
     22 O7          2.4548   -7.9350   -2.2815 O.2       1 <0>        -0.9521
     23 O8          1.2135   -7.7177   -0.1332 O.2       1 <0>        -0.9902
     24 N1          0.1411   -7.0674   -2.2625 N.pl3     1 <0>        -1.2682
     25 C12        -1.3558   -1.0027    1.2569 C.3       1 <0>        -0.1570
     26 H4          0.8207    1.6475    0.8968 H         1 <0>         0.0640
     27 H5         -0.8808    1.5361    0.3860 H         1 <0>         0.0795
     28 H6         -0.4614    1.4331    2.1128 H         1 <0>         0.0783
     29 H7          2.2585   -1.1852   -2.2889 H         1 <0>         0.1264
     30 H8          3.5458   -1.7168   -1.1842 H         1 <0>         0.0924
     31 H9          4.7535   -3.7210    3.3219 H         1 <0>         0.0862
     32 H10         5.6571   -3.8626    1.7950 H         1 <0>         0.0829
     33 H11         4.6869   -2.4069    2.1231 H         1 <0>         0.0666
     34 H12         2.5933   -6.0827    1.7363 H         1 <0>         0.0754
     35 H13         4.2360   -6.1079    1.0514 H         1 <0>         0.0857
     36 H14         4.0046   -5.8730    2.8005 H         1 <0>         0.0871
     37 H15         1.5314   -5.5806    0.7253 H         1 <0>         0.1339
     38 H16         0.4218   -4.9473   -0.5141 H         1 <0>         0.1071
     39 H17        -0.1624   -6.1849   -2.5271 H         1 <0>         0.4163
     40 H18        -2.0938   -0.6361    0.5434 H         1 <0>         0.0797
     41 H19        -1.2583   -2.0836    1.1559 H         1 <0>         0.0641
     42 H20        -1.6777   -0.7600    2.2696 H         1 <0>         0.0821
     43 H21        -0.3863   -7.8495   -2.4881 H         1 <0>         0.4258
@<TRIPOS>BOND
     1    1    2 1
     2    1   26 1
     3    1   27 1
     4    1   28 1
     5    2   13 1
     6    2    3 1
     7    2   25 1
     8    3    4 1
     9    4    5 1
    10    4   11 1
    11    4    6 1
    12    6    7 1
    13    6   29 1
    14    6   30 1
    15    7    8 1
    16    8   16 1
    17    8    9 1
    18    8   19 1
    19    9   10 1
    20    9   11 1
    21    9   14 1
    22   11   12 1
    23   11   13 1
    24   14   15 1
    25   15   16 1
    26   15   17 1
    27   15   18 1
    28   17   31 1
    29   17   32 1
    30   17   33 1
    31   18   34 1
    32   18   35 1
    33   18   36 1
    34   19   20 1
    35   19   37 1
    36   19   38 1
    37   20   21 1
    38   21   22 2
    39   21   23 2
    40   21   24 1
    41   24   39 1
    42   24   43 1
    43   25   40 1
    44   25   41 1
    45   25   42 1
@<TRIPOS>MOLECULE
ZINC04654875
   64    65     0     0     0
SMALL
USER_CHARGES
N-[3-[4-(3-aminopropylamino)butylamino]propyl]-2-(1-naphthyl)acetamide
@<TRIPOS>ATOM
      1 C1         -3.8495   -0.7218    3.5888 C.ar      1 <0>        -0.1196
      2 C2         -2.8010    0.1963    3.6085 C.ar      1 <0>        -0.1075
      3 C3         -2.3339    0.7514    2.4571 C.ar      1 <0>        -0.1176
      4 C4         -2.9126    0.3929    1.2275 C.ar      1 <0>        -0.0322
      5 C5         -3.9818   -0.5375    1.2079 C.ar      1 <0>        -0.0531
      6 C6         -4.4367   -1.0899    2.4176 C.ar      1 <0>        -0.0966
      7 C7         -4.5632   -0.8928   -0.0209 C.ar      1 <0>        -0.0933
      8 C8         -4.0966   -0.3369   -1.1725 C.ar      1 <0>        -0.1187
      9 C9         -3.0488    0.5813   -1.1527 C.ar      1 <0>        -0.0948
     10 C10        -2.4616    0.9495    0.0189 C.ar      1 <0>        -0.0734
     11 C11        -1.3296    1.9443    0.0189 C.3       1 <0>        -0.0991
     12 C12        -0.0144    1.2086    0.0087 C.2       1 <0>         0.5177
     13 O1          0.0021   -0.0041    0.0020 O.2       1 <0>        -0.5092
     14 N1          1.1435    1.8983    0.0013 N.am      1 <0>        -0.7442
     15 C13         2.4220    1.1832   -0.0147 C.3       1 <0>         0.1232
     16 C14         3.5713    2.1931   -0.0203 C.3       1 <0>        -0.1643
     17 C15         4.9065    1.4462   -0.0370 C.3       1 <0>        -0.0016
     18 C16         7.3106    1.7333   -0.0584 C.3       1 <0>        -0.0058
     19 C17         8.4325    2.7736   -0.0636 C.3       1 <0>        -0.1502
     20 C18         9.7872    2.0626   -0.0803 C.3       1 <0>        -0.1504
     21 C19        10.9091    3.1028   -0.0854 C.3       1 <0>        -0.0056
     22 C20        13.3132    3.3899   -0.1069 C.3       1 <0>        -0.0009
     23 C21        14.6485    2.6430   -0.1236 C.3       1 <0>        -0.1889
     24 C22        15.7977    3.6530   -0.1292 C.3       1 <0>         0.0020
     25 H1         -4.2010   -1.1478    4.5169 H         1 <0>         0.1267
     26 H2         -2.3523    0.4710    4.5517 H         1 <0>         0.1220
     27 H3         -1.5202    1.4610    2.4877 H         1 <0>         0.1157
     28 H4         -5.2478   -1.8030    2.4176 H         1 <0>         0.1315
     29 H5         -5.3758   -1.6035   -0.0515 H         1 <0>         0.1317
     30 H6         -4.5450   -0.6120   -2.1157 H         1 <0>         0.1278
     31 H7         -2.6975    1.0076   -2.0808 H         1 <0>         0.1206
     32 H8         -1.3916    2.5653    0.9126 H         1 <0>         0.1075
     33 H9         -1.4000    2.5749   -0.8673 H         1 <0>         0.1082
     34 H10         1.1304    2.8682    0.0067 H         1 <0>         0.4036
     35 H11         2.4967    0.5526    0.8712 H         1 <0>         0.0773
     36 H12         2.4797    0.5621   -0.9086 H         1 <0>         0.0773
     37 H13         3.4966    2.8237   -0.9062 H         1 <0>         0.0968
     38 H14         3.5136    2.8141    0.8737 H         1 <0>         0.0967
     39 H15         4.9812    0.8157    0.8489 H         1 <0>         0.1384
     40 H16         4.9642    0.8252   -0.9309 H         1 <0>         0.1385
     41 H17         7.4020    1.1047    0.8274 H         1 <0>         0.1363
     42 H18         7.3850    1.1143   -0.9525 H         1 <0>         0.1362
     43 H19         8.3411    3.4022   -0.9493 H         1 <0>         0.1007
     44 H20         8.3581    3.3926    0.8305 H         1 <0>         0.1006
     45 H21         9.8786    1.4340    0.8055 H         1 <0>         0.1013
     46 H22         9.8616    1.4435   -0.9744 H         1 <0>         0.1013
     47 H23        10.8177    3.7314   -0.9712 H         1 <0>         0.1392
     48 H24        10.8347    3.7219    0.8086 H         1 <0>         0.1392
     49 H25        13.2385    4.0205   -0.9928 H         1 <0>         0.1445
     50 H26        13.2555    4.0109    0.7871 H         1 <0>         0.1445
     51 H27        14.7232    2.0124    0.7623 H         1 <0>         0.1133
     52 H28        14.7062    2.0220   -1.0175 H         1 <0>         0.1129
     53 H29        15.7230    4.2836   -1.0151 H         1 <0>         0.1437
     54 H30        15.7400    4.2740    0.7648 H         1 <0>         0.1463
     55 H31        17.8551    3.5815   -0.1492 H         1 <0>         0.4555
     56 H32        17.1459    2.2960    0.6321 H         1 <0>         0.4428
     57 N2          6.0087    2.4266   -0.0423 N.4       1 <0>        -0.5198
     58 H33         5.9465    3.0107    0.7997 H         1 <0>         0.4357
     59 H34         5.9305    3.0196   -0.8769 H         1 <0>         0.4358
     60 N3         12.2111    2.4096   -0.1016 N.4       1 <0>        -0.5208
     61 H35        12.2733    1.8254   -0.9437 H         1 <0>         0.4386
     62 H36        12.2894    1.8165    0.7329 H         1 <0>         0.4387
     63 N4         17.0776    2.9237   -0.1673 N.4       1 <0>        -0.6482
     64 H37        17.1258    2.3717   -1.0317 H         1 <0>         0.4453
@<TRIPOS>BOND
     1    1    6 ar
     2    1    2 ar
     3    1   25 1
     4    2    3 ar
     5    2   26 1
     6    3    4 ar
     7    3   27 1
     8    4   10 ar
     9    4    5 ar
    10    5    6 ar
    11    5    7 ar
    12    6   28 1
    13    7    8 ar
    14    7   29 1
    15    8    9 ar
    16    8   30 1
    17    9   10 ar
    18    9   31 1
    19   10   11 1
    20   11   12 1
    21   11   32 1
    22   11   33 1
    23   12   13 2
    24   12   14 am
    25   14   15 1
    26   14   34 1
    27   15   16 1
    28   15   35 1
    29   15   36 1
    30   16   17 1
    31   16   37 1
    32   16   38 1
    33   17   39 1
    34   17   40 1
    35   17   57 1
    36   18   19 1
    37   18   41 1
    38   18   42 1
    39   18   57 1
    40   19   20 1
    41   19   43 1
    42   19   44 1
    43   20   21 1
    44   20   45 1
    45   20   46 1
    46   21   47 1
    47   21   48 1
    48   21   60 1
    49   22   23 1
    50   22   49 1
    51   22   50 1
    52   22   60 1
    53   23   24 1
    54   23   51 1
    55   23   52 1
    56   24   53 1
    57   24   54 1
    58   24   63 1
    59   55   63 1
    60   56   63 1
    61   57   58 1
    62   57   59 1
    63   60   61 1
    64   60   62 1
    65   63   64 1
@<TRIPOS>MOLECULE
ZINC06716957
   61    65     0     0     0
SMALL
USER_CHARGES
4-methyl-N-[3-(4-methylimidazol-1-yl)-5-(trifluoromethyl)phenyl]-3-[4-(3-pyridyl)pyrimidin-2-yl]amino-benzamide
@<TRIPOS>ATOM
      1 C1          4.8797   -3.9669    0.1547 C.3       1 <0>        -0.1225
      2 C2          3.5754   -4.7217    0.1669 C.ar      1 <0>        -0.0869
      3 C3          3.5795   -6.1039    0.1964 C.ar      1 <0>        -0.1014
      4 C4          2.3894   -6.8021    0.2020 C.ar      1 <0>        -0.1034
      5 C5          1.1753   -6.1126    0.1832 C.ar      1 <0>        -0.1270
      6 C6          1.1710   -4.7182    0.1589 C.ar      1 <0>        -0.0590
      7 C7          2.3724   -4.0259    0.1535 C.ar      1 <0>         0.1619
      8 N1          2.3736   -2.6277    0.1286 N.pl3     1 <0>        -0.6325
      9 C8          1.2893   -1.9432   -0.3959 C.ar      1 <0>         0.5614
     10 N2          0.3200   -2.6260   -0.9883 N.ar      1 <0>        -0.5534
     11 C9         -0.7320   -2.0090   -1.5021 C.ar      1 <0>         0.1977
     12 C10        -0.8164   -0.6303   -1.4172 C.ar      1 <0>        -0.2657
     13 C11         0.2206    0.0624   -0.7871 C.ar      1 <0>         0.2658
     14 N3          1.2507   -0.6239   -0.2975 N.ar      1 <0>        -0.5571
     15 C12         0.1772    1.5403   -0.6710 C.ar      1 <0>        -0.1169
     16 C13         1.2145    2.2342   -0.0406 C.ar      1 <0>        -0.0276
     17 C14         1.1266    3.6129    0.0420 C.ar      1 <0>        -0.1784
     18 C15         0.0258    4.2543   -0.4966 C.ar      1 <0>         0.1175
     19 N4         -0.9376    3.5726   -1.0856 N.ar      1 <0>        -0.4841
     20 C16        -0.8952    2.2604   -1.1934 C.ar      1 <0>         0.1340
     21 C17        -0.1012   -6.8583    0.1887 C.2       1 <0>         0.5673
     22 O1         -1.1570   -6.2560    0.1719 O.2       1 <0>        -0.5061
     23 N5         -0.0944   -8.2058    0.2122 N.am      1 <0>        -0.6669
     24 C18        -1.2963   -8.9130    0.1072 C.ar      1 <0>         0.1849
     25 C19        -1.4127  -10.1752    0.6766 C.ar      1 <0>        -0.1112
     26 C20        -2.6011  -10.8720    0.5773 C.ar      1 <0>        -0.1296
     27 C21        -3.6741  -10.3211   -0.0973 C.ar      1 <0>        -0.1084
     28 C22        -3.5624   -9.0626   -0.6729 C.ar      1 <0>         0.1652
     29 C23        -2.3721   -8.3576   -0.5706 C.ar      1 <0>        -0.1152
     30 N6         -4.6520   -8.5044   -1.3568 N.pl3     1 <0>        -0.4135
     31 C24        -4.6878   -7.2792   -1.9710 C.2       1 <0>        -0.0484
     32 C25        -5.9185   -7.1442   -2.5004 C.2       1 <0>         0.0096
     33 N7         -6.6190   -8.2532   -2.2203 N.2       1 <0>        -0.4758
     34 C26        -5.8695   -9.0779   -1.5408 C.2       1 <0>         0.1944
     35 C27        -6.4219   -5.9529   -3.2741 C.3       1 <0>        -0.0703
     36 C28        -2.7260  -12.2385    1.2004 C.3       1 <0>         0.5133
     37 F1         -2.3418  -13.2115    0.2714 F         1 <0>        -0.1709
     38 F2         -1.8981  -12.3154    2.3255 F         1 <0>        -0.1721
     39 F3         -4.0538  -12.4572    1.5826 F         1 <0>        -0.1717
     40 H1          5.1932   -3.7667    1.1793 H         1 <0>         0.0780
     41 H2          5.6404   -4.5642   -0.3479 H         1 <0>         0.0781
     42 H3          4.7488   -3.0240   -0.3761 H         1 <0>         0.0665
     43 H4          4.5175   -6.6391    0.2106 H         1 <0>         0.1366
     44 H5          2.3969   -7.8819    0.2212 H         1 <0>         0.1267
     45 H6          0.2351   -4.1794    0.1439 H         1 <0>         0.1656
     46 H7          3.1337   -2.1370    0.4786 H         1 <0>         0.4259
     47 H8         -1.5163   -2.5753   -1.9823 H         1 <0>         0.1768
     48 H9         -1.6642   -0.1022   -1.8280 H         1 <0>         0.1524
     49 H10         2.0625    1.7077    0.3717 H         1 <0>         0.1463
     50 H11         1.9093    4.1820    0.5216 H         1 <0>         0.1425
     51 H12        -0.0458    5.3301   -0.4343 H         1 <0>         0.1622
     52 H13        -1.7012    1.7376   -1.6869 H         1 <0>         0.1630
     53 H14         0.7441   -8.6851    0.3020 H         1 <0>         0.4178
     54 H15        -0.5744  -10.6101    1.2006 H         1 <0>         0.1488
     55 H16        -4.6008  -10.8701   -0.1765 H         1 <0>         0.1477
     56 H17        -2.2829   -7.3787   -1.0179 H         1 <0>         0.1618
     57 H18        -3.8832   -6.5605   -2.0210 H         1 <0>         0.1795
     58 H19        -6.1682  -10.0519   -1.1825 H         1 <0>         0.2113
     59 H20        -6.2142   -6.0943   -4.3347 H         1 <0>         0.0711
     60 H21        -7.4967   -5.8505   -3.1248 H         1 <0>         0.0731
     61 H22        -5.9187   -5.0522   -2.9223 H         1 <0>         0.0710
@<TRIPOS>BOND
     1    1    2 1
     2    1   40 1
     3    1   41 1
     4    1   42 1
     5    2    7 ar
     6    2    3 ar
     7    3    4 ar
     8    3   43 1
     9    4    5 ar
    10    4   44 1
    11    5    6 ar
    12    5   21 1
    13    6    7 ar
    14    6   45 1
    15    7    8 1
    16    8    9 1
    17    8   46 1
    18    9   14 ar
    19    9   10 ar
    20   10   11 ar
    21   11   12 ar
    22   11   47 1
    23   12   13 ar
    24   12   48 1
    25   13   14 ar
    26   13   15 1
    27   15   20 ar
    28   15   16 ar
    29   16   17 ar
    30   16   49 1
    31   17   18 ar
    32   17   50 1
    33   18   19 ar
    34   18   51 1
    35   19   20 ar
    36   20   52 1
    37   21   22 2
    38   21   23 am
    39   23   24 1
    40   23   53 1
    41   24   29 ar
    42   24   25 ar
    43   25   26 ar
    44   25   54 1
    45   26   27 ar
    46   26   36 1
    47   27   28 ar
    48   27   55 1
    49   28   29 ar
    50   28   30 1
    51   29   56 1
    52   30   34 1
    53   30   31 1
    54   31   32 2
    55   31   57 1
    56   32   33 1
    57   32   35 1
    58   33   34 2
    59   34   58 1
    60   35   59 1
    61   35   60 1
    62   35   61 1
    63   36   37 1
    64   36   38 1
    65   36   39 1
@<TRIPOS>MOLECULE
ZINC00020229
   47    48     0     0     0
SMALL
USER_CHARGES

@<TRIPOS>ATOM
      1 C1         -1.2761   -4.3639   -3.1085 C.3       1 <0>        -0.1860
      2 C2         -0.7301   -3.6161   -1.8905 C.3       1 <0>        -0.0234
      3 N1          0.2843   -2.6466   -2.3253 N.4       1 <0>        -0.3833
      4 C3          1.4464   -3.3632   -2.8927 C.3       1 <0>        -0.0112
      5 C4          2.6766   -2.5276   -2.4593 C.3       1 <0>        -0.1411
      6 C5          2.2619   -2.0751   -1.0345 C.3       1 <0>        -0.1419
      7 C6          0.7406   -1.8536   -1.1692 C.3       1 <0>         0.0089
      8 H1          0.5334   -0.7970   -1.3392 H         1 <0>         0.1471
      9 C7          0.0311   -2.3285    0.1004 C.3       1 <0>         0.1054
     10 N2          0.4414   -1.4922    1.2311 N.am      1 <0>        -0.7353
     11 C8          0.0201   -1.7888    2.4765 C.2       1 <0>         0.5739
     12 O1         -0.7005   -2.7505    2.6616 O.2       1 <0>        -0.5006
     13 C9          0.4333   -0.9466    3.6152 C.ar      1 <0>        -0.2025
     14 C10         1.2564    0.1627    3.4063 C.ar      1 <0>         0.0538
     15 C11         1.6384    0.9456    4.4739 C.ar      1 <0>        -0.7232
     16 C12         1.2099    0.6379    5.7550 C.ar      1 <0>         0.0546
     17 C13         0.3962   -0.4554    5.9756 C.ar      1 <0>        -0.2336
     18 C14        -0.0024   -1.2513    4.9118 C.ar      1 <0>         0.2462
     19 O2         -0.8061   -2.3229    5.1263 O.3       1 <0>        -0.2744
     20 C15        -1.2100   -2.5714    6.4743 C.3       1 <0>         0.0127
     21 S1          2.6771    2.3440    4.2087 S.o2      1 <0>         2.7060
     22 O3          3.3381    2.5983    5.4406 O.2       1 <0>        -0.9541
     23 O4          3.3846    2.1011    3.0005 O.2       1 <0>        -0.9646
     24 N3          1.6882    3.6417    3.9255 N.pl3     1 <0>        -1.2497
     25 H2         -1.7267   -3.6520   -3.8000 H         1 <0>         0.0803
     26 H3         -0.4617   -4.8893   -3.6074 H         1 <0>         0.0801
     27 H4         -2.0288   -5.0832   -2.7858 H         1 <0>         0.1066
     28 H5         -1.5444   -3.0907   -1.3916 H         1 <0>         0.1351
     29 H6         -0.2794   -4.3280   -1.1990 H         1 <0>         0.1332
     30 H7          1.5084   -4.3710   -2.4820 H         1 <0>         0.1334
     31 H8          1.3761   -3.3993   -3.9799 H         1 <0>         0.1378
     32 H9          3.5754   -3.1435   -2.4272 H         1 <0>         0.1196
     33 H10         2.8167   -1.6692   -3.1163 H         1 <0>         0.1013
     34 H11         2.4744   -2.8565   -0.3048 H         1 <0>         0.1036
     35 H12         2.7641   -1.1464   -0.7636 H         1 <0>         0.1180
     36 H13        -1.0477   -2.2516   -0.0358 H         1 <0>         0.0915
     37 H14         0.2990   -3.3661    0.2999 H         1 <0>         0.0952
     38 H15         1.0162   -0.7250    1.0834 H         1 <0>         0.4053
     39 H16         1.5932    0.4061    2.4094 H         1 <0>         0.1478
     40 H17         1.5144    1.2568    6.5860 H         1 <0>         0.1569
     41 H18         0.0663   -0.6888    6.9771 H         1 <0>         0.1535
     42 H19        -0.3283   -2.7381    7.0930 H         1 <0>         0.0668
     43 H20        -1.7619   -1.7109    6.8527 H         1 <0>         0.0666
     44 H21        -1.8481   -3.4546    6.5055 H         1 <0>         0.1133
     45 H22         0.7249    3.5276    3.9304 H         1 <0>         0.4171
     46 H23         2.0722    4.5159    3.7546 H         1 <0>         0.4246
     47 H24        -0.1083   -2.0336   -3.0240 H         1 <0>         0.4289
@<TRIPOS>BOND
     1    1    2 1
     2    1   25 1
     3    1   26 1
     4    1   27 1
     5    2    3 1
     6    2   28 1
     7    2   29 1
     8    3    7 1
     9    3    4 1
    10    3   47 1
    11    4    5 1
    12    4   30 1
    13    4   31 1
    14    5    6 1
    15    5   32 1
    16    5   33 1
    17    6    7 1
    18    6   34 1
    19    6   35 1
    20    7    8 1
    21    7    9 1
    22    9   10 1
    23    9   36 1
    24    9   37 1
    25   10   11 am
    26   10   38 1
    27   11   12 2
    28   11   13 1
    29   13   18 ar
    30   13   14 ar
    31   14   15 ar
    32   14   39 1
    33   15   16 ar
    34   15   21 1
    35   16   17 ar
    36   16   40 1
    37   17   18 ar
    38   17   41 1
    39   18   19 1
    40   19   20 1
    41   20   42 1
    42   20   43 1
    43   20   44 1
    44   21   22 2
    45   21   23 2
    46   21   24 1
    47   24   45 1
    48   24   46 1
@<TRIPOS>MOLECULE
ZINC00057008
   47    48     0     0     0
SMALL
USER_CHARGES

@<TRIPOS>ATOM
      1 C1         -0.0187    1.5258    0.0104 C.3       1 <0>        -0.1897
      2 C2          0.0021   -0.0041    0.0020 C.3       1 <0>        -0.0136
      3 N1          0.6897   -0.4778   -1.2066 N.4       1 <0>        -0.3974
      4 C3         -0.0977   -0.1111   -2.4030 C.3       1 <0>        -0.0106
      5 C4          0.0876   -1.3002   -3.3783 C.3       1 <0>        -0.1438
      6 C5          0.0948   -2.5070   -2.4033 C.3       1 <0>        -0.1316
      7 C6          0.8183   -1.9459   -1.1611 C.3       1 <0>         0.0107
      8 H1          0.3514   -2.3311   -0.2546 H         1 <0>         0.1483
      9 C7          2.2961   -2.3403   -1.1970 C.3       1 <0>         0.1010
     10 N2          3.0089   -1.6628   -0.1111 N.am      1 <0>        -0.7578
     11 C8          4.3318   -1.8612    0.0535 C.2       1 <0>         0.5719
     12 O1          4.9337   -2.6023   -0.6993 O.2       1 <0>        -0.4872
     13 C9          5.0496   -1.1789    1.1471 C.ar      1 <0>        -0.2038
     14 C10         4.3608   -0.3309    2.0180 C.ar      1 <0>         0.0500
     15 C11         5.0369    0.3029    3.0376 C.ar      1 <0>        -0.7236
     16 C12         6.3978    0.1034    3.2039 C.ar      1 <0>         0.0551
     17 C13         7.0907   -0.7318    2.3505 C.ar      1 <0>        -0.2312
     18 C14         6.4251   -1.3822    1.3219 C.ar      1 <0>         0.2480
     19 O2          7.1035   -2.2073    0.4857 O.3       1 <0>        -0.2733
     20 C15         8.5034   -2.3657    0.7254 C.3       1 <0>         0.0122
     21 S1          4.1669    1.3725    4.1347 S.o2      1 <0>         2.7072
     22 O3          5.1271    2.2718    4.6717 O.2       1 <0>        -0.9524
     23 O4          3.0123    1.8184    3.4366 O.2       1 <0>        -0.9690
     24 N3          3.6282    0.4460    5.3971 N.pl3     1 <0>        -1.2496
     25 H2          1.0039    1.9031    0.0027 H         1 <0>         0.0828
     26 H3         -0.5459    1.8868   -0.8726 H         1 <0>         0.0811
     27 H4         -0.5289    1.8773    0.9072 H         1 <0>         0.1105
     28 H5          0.5293   -0.3651    0.8851 H         1 <0>         0.1249
     29 H6         -1.0205   -0.3814    0.0098 H         1 <0>         0.1346
     30 H7         -1.1498    0.0064   -2.1435 H         1 <0>         0.1360
     31 H8          0.2896    0.8066   -2.8456 H         1 <0>         0.1357
     32 H9         -0.7473   -1.3669   -4.0759 H         1 <0>         0.1211
     33 H10         1.0351   -1.2237   -3.9118 H         1 <0>         0.0999
     34 H11        -0.9229   -2.8070   -2.1539 H         1 <0>         0.1077
     35 H12         0.6508   -3.3426   -2.8285 H         1 <0>         0.1183
     36 H13         2.3873   -3.4195   -1.0737 H         1 <0>         0.1172
     37 H14         2.7275   -2.0462   -2.1538 H         1 <0>         0.0984
     38 H15         2.5287   -1.0715    0.4895 H         1 <0>         0.3924
     39 H16         3.3000   -0.1722    1.8919 H         1 <0>         0.1417
     40 H17         6.9199    0.6046    4.0056 H         1 <0>         0.1577
     41 H18         8.1514   -0.8823    2.4865 H         1 <0>         0.1548
     42 H19         8.9974   -1.3974    0.6459 H         1 <0>         0.0674
     43 H20         8.6572   -2.7711    1.7254 H         1 <0>         0.0675
     44 H21         8.9232   -3.0494   -0.0124 H         1 <0>         0.1149
     45 H22         3.8201   -0.5046    5.4176 H         1 <0>         0.4178
     46 H23         3.1208    0.8539    6.1162 H         1 <0>         0.4251
     47 H24         1.6056   -0.0583   -1.2636 H         1 <0>         0.4224
@<TRIPOS>BOND
     1    1    2 1
     2    1   25 1
     3    1   26 1
     4    1   27 1
     5    2    3 1
     6    2   28 1
     7    2   29 1
     8    3    7 1
     9    3    4 1
    10    3   47 1
    11    4    5 1
    12    4   30 1
    13    4   31 1
    14    5    6 1
    15    5   32 1
    16    5   33 1
    17    6    7 1
    18    6   34 1
    19    6   35 1
    20    7    8 1
    21    7    9 1
    22    9   10 1
    23    9   36 1
    24    9   37 1
    25   10   11 am
    26   10   38 1
    27   11   12 2
    28   11   13 1
    29   13   18 ar
    30   13   14 ar
    31   14   15 ar
    32   14   39 1
    33   15   16 ar
    34   15   21 1
    35   16   17 ar
    36   16   40 1
    37   17   18 ar
    38   17   41 1
    39   18   19 1
    40   19   20 1
    41   20   42 1
    42   20   43 1
    43   20   44 1
    44   21   22 2
    45   21   23 2
    46   21   24 1
    47   24   45 1
    48   24   46 1
@<TRIPOS>MOLECULE
ZINC16969869
   14    14     0     0     0
SMALL
USER_CHARGES

@<TRIPOS>ATOM
      1 C1         -0.0222    1.7864    0.0119 C.2       1 <0>         0.3566
      2 N1          1.2813    2.0320    0.0007 N.2       1 <0>        -0.3577
      3 N2          2.1329    1.1018   -0.0124 N.2       1 <0>        -0.1157
      4 C2          1.7849   -0.1689   -0.0159 C.2       1 <0>        -0.5637
      5 S1          0.0021   -0.0041    0.0020 S.3       1 <0>         0.1000
      6 S2          2.7879   -1.6175   -0.0337 S.o2      1 <0>         2.7528
      7 O1          3.1517   -1.8762    1.3153 O.2       1 <0>        -0.9384
      8 O2          2.1073   -2.5728   -0.8358 O.2       1 <0>        -0.9428
      9 N3          4.1854   -1.2355   -0.8359 N.pl3     1 <0>        -1.2381
     10 N4         -1.0958    2.6643    0.0316 N.pl3     1 <0>        -0.7629
     11 H1          4.3135   -0.3408   -1.1879 H         1 <0>         0.4233
     12 H2          4.8758   -1.9066   -0.9538 H         1 <0>         0.4264
     13 H3         -2.0029    2.3210    0.0425 H         1 <0>         0.4307
     14 H4         -0.9394    3.6216    0.0345 H         1 <0>         0.4296
@<TRIPOS>BOND
     1    1    5 1
     2    1    2 2
     3    1   10 1
     4    2    3 1
     5    3    4 2
     6    4    5 1
     7    4    6 1
     8    6    7 2
     9    6    8 2
    10    6    9 1
    11    9   11 1
    12    9   12 1
    13   10   13 1
    14   10   14 1
@<TRIPOS>MOLECULE
ZINC16969869
   13    13     0     0     0
SMALL
USER_CHARGES

@<TRIPOS>ATOM
      1 C1         -0.0222    1.7864    0.0119 C.2       1 <0>         0.3260
      2 N1          1.2813    2.0320    0.0007 N.2       1 <0>        -0.3664
      3 N2          2.1329    1.1018   -0.0124 N.2       1 <0>        -0.1390
      4 C2          1.7849   -0.1689   -0.0159 C.2       1 <0>        -0.4090
      5 S1          0.0021   -0.0041    0.0020 S.3       1 <0>         0.0024
      6 S2          2.7879   -1.6175   -0.0337 S.o2      1 <0>         2.6062
      7 O1          3.1517   -1.8762    1.3153 O.2       1 <0>        -1.0408
      8 O2          2.1073   -2.5728   -0.8358 O.2       1 <0>        -1.0448
      9 N3          4.1854   -1.2355   -0.8359 N.2       1 <0>        -1.3165
     10 N4         -1.0958    2.6643    0.0316 N.pl3     1 <0>        -0.7864
     11 H1          4.8758   -1.9066   -0.9538 H         1 <0>         0.3281
     12 H2         -2.0029    2.3210    0.0425 H         1 <0>         0.4206
     13 H3         -0.9394    3.6216    0.0345 H         1 <0>         0.4195
@<TRIPOS>BOND
     1    1    5 1
     2    1    2 2
     3    1   10 1
     4    2    3 1
     5    3    4 2
     6    4    5 1
     7    4    6 1
     8    6    7 2
     9    6    8 2
    10    6    9 1
    11    9   11 1
    12   10   12 1
    13   10   13 1
@<TRIPOS>MOLECULE
ZINC06392199
   37    38     0     0     0
SMALL
USER_CHARGES

@<TRIPOS>ATOM
      1 C1         -0.0167    1.3781    0.0096 C.ar      1 <0>        -0.1239
      2 C2          1.1709    2.0855    0.0021 C.ar      1 <0>        -0.0191
      3 C3          2.3773    1.4107   -0.0130 C.ar      1 <0>        -0.6701
      4 C4          2.3960    0.0285   -0.0201 C.ar      1 <0>        -0.0181
      5 C5          1.2085   -0.6789   -0.0117 C.ar      1 <0>        -0.1211
      6 C6          0.0021   -0.0041    0.0020 C.ar      1 <0>        -0.0415
      7 C7         -1.2926   -0.7753    0.0107 C.3       1 <0>         0.1504
      8 N1         -1.7258   -1.0177   -1.3676 N.pl3     1 <0>        -1.1166
      9 S1         -2.8982   -2.1445   -1.6810 S.o2      1 <0>         2.6988
     10 O1         -3.1132   -2.1271   -3.0855 O.2       1 <0>        -0.9580
     11 O2         -2.5251   -3.3241   -0.9819 O.2       1 <0>        -0.9584
     12 C8         -4.3874   -1.5677   -0.9365 C.ar      1 <0>        -0.7357
     13 C9         -4.6847   -1.9132    0.3691 C.ar      1 <0>         0.0258
     14 C10        -5.8511   -1.4629    0.9557 C.ar      1 <0>        -0.2178
     15 C11        -6.7260   -0.6620    0.2327 C.ar      1 <0>         0.2700
     16 C12        -6.4242   -0.3168   -1.0786 C.ar      1 <0>        -0.2180
     17 C13        -5.2534   -0.7660   -1.6572 C.ar      1 <0>         0.0306
     18 N2         -7.9067   -0.2051    0.8227 N.pl3     1 <0>        -0.8653
     19 S2          3.8911    2.3124   -0.0238 S.o2      1 <0>         2.7009
     20 O3          4.8717    1.4529   -0.5884 O.2       1 <0>        -0.9608
     21 O4          3.5973    3.5927   -0.5658 O.2       1 <0>        -0.9616
     22 N3          4.3274    2.5556    1.5551 N.pl3     1 <0>        -1.2496
     23 H1         -0.9591    1.9053    0.0259 H         1 <0>         0.1383
     24 H2          1.1563    3.1654    0.0076 H         1 <0>         0.1462
     25 H3          3.3385   -0.4987   -0.0326 H         1 <0>         0.1471
     26 H4          1.2231   -1.7588   -0.0179 H         1 <0>         0.1407
     27 H5         -1.1443   -1.7285    0.5180 H         1 <0>         0.0962
     28 H6         -2.0551   -0.1993    0.5352 H         1 <0>         0.0818
     29 H7         -1.3259   -0.5183   -2.0967 H         1 <0>         0.4211
     30 H8         -4.0042   -2.5362    0.9305 H         1 <0>         0.1393
     31 H9         -6.0829   -1.7333    1.9753 H         1 <0>         0.1310
     32 H10        -7.1025    0.3054   -1.6436 H         1 <0>         0.1309
     33 H11        -5.0161   -0.4944   -2.6752 H         1 <0>         0.1396
     34 H12        -8.1165   -0.4471    1.7383 H         1 <0>         0.4040
     35 H13        -8.5169    0.3541    0.3169 H         1 <0>         0.4041
     36 H14         3.7682    2.2150    2.2708 H         1 <0>         0.4169
     37 H15         5.1421    3.0386    1.7642 H         1 <0>         0.4221
@<TRIPOS>BOND
     1    1    6 ar
     2    1    2 ar
     3    1   23 1
     4    2    3 ar
     5    2   24 1
     6    3    4 ar
     7    3   19 1
     8    4    5 ar
     9    4   25 1
    10    5    6 ar
    11    5   26 1
    12    6    7 1
    13    7    8 1
    14    7   27 1
    15    7   28 1
    16    8    9 1
    17    8   29 1
    18    9   10 2
    19    9   11 2
    20    9   12 1
    21   12   17 ar
    22   12   13 ar
    23   13   14 ar
    24   13   30 1
    25   14   15 ar
    26   14   31 1
    27   15   16 ar
    28   15   18 1
    29   16   17 ar
    30   16   32 1
    31   17   33 1
    32   18   34 1
    33   18   35 1
    34   19   20 2
    35   19   21 2
    36   19   22 1
    37   22   36 1
    38   22   37 1
@<TRIPOS>MOLECULE
ZINC01530783
   24    24     0     0     0
SMALL
USER_CHARGES

@<TRIPOS>ATOM
      1 C1         -0.0167    1.3778    0.0096 C.ar      1 <0>        -0.2151
      2 C2          1.1778    2.0868    0.0020 C.ar      1 <0>         0.3679
      3 C3          2.3873    1.4040   -0.0132 C.ar      1 <0>        -0.7704
      4 C4          2.3995    0.0228   -0.0207 C.ar      1 <0>         0.1443
      5 C5          1.2095   -0.6808   -0.0136 C.ar      1 <0>        -0.7462
      6 C6          0.0021   -0.0041    0.0020 C.ar      1 <0>         0.1376
      7 Cl1        -1.4897   -0.8918    0.0121 Cl        1 <0>        -0.0170
      8 S1          1.2298   -2.4427   -0.0244 S.o2      1 <0>         2.7025
      9 O1          0.3289   -2.8530   -1.0439 O.2       1 <0>        -0.9456
     10 O2          2.5961   -2.8332   -0.0128 O.2       1 <0>        -0.9565
     11 N1          0.5807   -2.9487    1.4126 N.pl3     1 <0>        -1.2467
     12 S2          3.9050    2.2991   -0.0235 S.o2      1 <0>         2.7027
     13 O3          3.8097    3.2719    1.0080 O.2       1 <0>        -0.9578
     14 O4          4.9461    1.3329   -0.0656 O.2       1 <0>        -0.9492
     15 N2          3.9732    3.1309   -1.4538 N.pl3     1 <0>        -1.2515
     16 N3          1.1627    3.4834    0.0092 N.pl3     1 <0>        -0.8462
     17 H1         -0.9587    1.9057    0.0259 H         1 <0>         0.1559
     18 H2          3.3399   -0.5082   -0.0326 H         1 <0>         0.1771
     19 H3          0.2785   -2.2970    2.0644 H         1 <0>         0.4160
     20 H4          0.5026   -3.8967    1.6024 H         1 <0>         0.4242
     21 H5          3.2464    3.0584   -2.0921 H         1 <0>         0.4178
     22 H6          4.7398    3.6907   -1.6532 H         1 <0>         0.4259
     23 H7          0.3174    3.9592    0.0195 H         1 <0>         0.4187
     24 H8          1.9974    3.9775    0.0039 H         1 <0>         0.4116
@<TRIPOS>BOND
     1    1    6 ar
     2    1    2 ar
     3    1   17 1
     4    2    3 ar
     5    2   16 1
     6    3    4 ar
     7    3   12 1
     8    4    5 ar
     9    4   18 1
    10    5    6 ar
    11    5    8 1
    12    6    7 1
    13    8    9 2
    14    8   10 2
    15    8   11 1
    16   11   19 1
    17   11   20 1
    18   12   13 2
    19   12   14 2
    20   12   15 1
    21   15   21 1
    22   15   22 1
    23   16   23 1
    24   16   24 1
@<TRIPOS>MOLECULE
ZINC01543408
   26    25     0     0     0
SMALL
USER_CHARGES

@<TRIPOS>ATOM
      1 C1         -0.0187    1.5258    0.0104 C.3       1 <0>        -0.1207
      2 C2          0.0021   -0.0041    0.0020 C.3       1 <0>        -0.1207
      3 C3         -1.4333   -0.5336    0.0129 C.3       1 <0>        -0.1546
      4 C4         -1.4126   -2.0635    0.0045 C.3       1 <0>        -0.0098
      5 N1         -2.7907   -2.5720    0.0149 N.4       1 <0>        -0.6391
      6 C5          1.4167    2.0553   -0.0004 C.3       1 <0>        -0.1546
      7 C6          1.3960    3.5852    0.0080 C.3       1 <0>        -0.0098
      8 N2          2.7741    4.0937   -0.0024 N.4       1 <0>        -0.6392
      9 H1         -0.5459    1.8868   -0.8726 H         1 <0>         0.0793
     10 H2         -0.5289    1.8773    0.9072 H         1 <0>         0.0793
     11 H3          0.5123   -0.3556   -0.8948 H         1 <0>         0.0793
     12 H4          0.5293   -0.3651    0.8851 H         1 <0>         0.0793
     13 H5         -1.9435   -0.1821    0.9097 H         1 <0>         0.0904
     14 H6         -1.9605   -0.1726   -0.8702 H         1 <0>         0.0904
     15 H7         -0.9024   -2.4150   -0.8923 H         1 <0>         0.1344
     16 H8         -0.8854   -2.4246    0.8875 H         1 <0>         0.1344
     17 H9         -3.2630   -2.2466    0.8450 H         1 <0>         0.4368
     18 H10        -3.2787   -2.2377   -0.8025 H         1 <0>         0.4368
     19 H11         1.9439    1.6943    0.8826 H         1 <0>         0.0904
     20 H12         1.9269    1.7038   -0.8972 H         1 <0>         0.0904
     21 H13         0.8688    3.9463   -0.8751 H         1 <0>         0.1345
     22 H14         0.8858    3.9367    0.9048 H         1 <0>         0.1344
     23 H15         3.2621    3.7594    0.8150 H         1 <0>         0.4368
     24 H16         3.2464    3.7683   -0.8326 H         1 <0>         0.4368
     25 H17        -2.7770   -3.5808    0.0093 H         1 <0>         0.4425
     26 H18         2.7604    5.1025    0.0031 H         1 <0>         0.4425
@<TRIPOS>BOND
     1    1    2 1
     2    1    6 1
     3    1    9 1
     4    1   10 1
     5    2    3 1
     6    2   11 1
     7    2   12 1
     8    3    4 1
     9    3   13 1
    10    3   14 1
    11    4    5 1
    12    4   15 1
    13    4   16 1
    14    5   17 1
    15    5   18 1
    16    5   25 1
    17    6    7 1
    18    6   19 1
    19    6   20 1
    20    7    8 1
    21    7   21 1
    22    7   22 1
    23    8   23 1
    24    8   24 1
    25    8   26 1
@<TRIPOS>MOLECULE
ZINC00002119
   32    33     0     0     0
SMALL
USER_CHARGES

@<TRIPOS>ATOM
      1 C1          0.6111    0.3202   -1.2036 C.ar      1 <0>        -0.1501
      2 C2          1.7964    1.0290   -1.2080 C.ar      1 <0>         0.0058
      3 C3          2.3772    1.4154   -0.0140 C.ar      1 <0>        -0.6839
      4 C4          1.7736    1.0942    1.1880 C.ar      1 <0>        -0.0009
      5 C5          0.5882    0.3856    1.1996 C.ar      1 <0>        -0.1471
      6 C6          0.0021   -0.0041    0.0020 C.ar      1 <0>         0.2244
      7 N1         -1.1970   -0.7204    0.0101 N.pl3     1 <0>        -0.9540
      8 C7         -2.4029   -0.1734    0.6497 C.3       1 <0>         0.1081
      9 C8         -2.8987   -1.1463    1.7177 C.3       1 <0>        -0.1594
     10 C9         -3.3460   -2.4615    1.0842 C.3       1 <0>        -0.1138
     11 C10        -2.1239   -3.2308    0.5694 C.3       1 <0>        -0.6072
     12 S1         -1.3077   -2.2170   -0.7099 S.o2      1 <0>         2.5846
     13 O1          0.0368   -2.6386   -0.8937 O.2       1 <0>        -0.9404
     14 O2         -2.1720   -2.0286   -1.8220 O.2       1 <0>        -0.9407
     15 S2          3.8901    2.3185   -0.0241 S.o2      1 <0>         2.7031
     16 O3          4.5091    2.0881    1.2340 O.2       1 <0>        -0.9615
     17 O4          4.5331    2.0199   -1.2556 O.2       1 <0>        -0.9605
     18 N2          3.4997    3.9272   -0.0719 N.pl3     1 <0>        -1.2498
     19 H1          0.1559    0.0223   -2.1366 H         1 <0>         0.1359
     20 H2          2.2704    1.2815   -2.1450 H         1 <0>         0.1513
     21 H3          2.2298    1.3975    2.1187 H         1 <0>         0.1499
     22 H4          0.1175    0.1348    2.1387 H         1 <0>         0.1403
     23 H5         -2.1659    0.7845    1.1127 H         1 <0>         0.0989
     24 H6         -3.1799   -0.0315   -0.1014 H         1 <0>         0.0898
     25 H7         -2.0932   -1.3441    2.4249 H         1 <0>         0.0813
     26 H8         -3.7395   -0.6992    2.2481 H         1 <0>         0.1000
     27 H9         -3.8664   -3.0640    1.8287 H         1 <0>         0.0938
     28 H10        -4.0195   -2.2528    0.2529 H         1 <0>         0.0860
     29 H11        -1.4328   -3.4153    1.3919 H         1 <0>         0.1384
     30 H12        -2.4423   -4.1793    0.1368 H         1 <0>         0.1389
     31 H13         2.5691    4.2001   -0.0884 H         1 <0>         0.4167
     32 H14         4.2017    4.5965   -0.0835 H         1 <0>         0.4218
@<TRIPOS>BOND
     1    1    6 ar
     2    1    2 ar
     3    1   19 1
     4    2    3 ar
     5    2   20 1
     6    3    4 ar
     7    3   15 1
     8    4    5 ar
     9    4   21 1
    10    5    6 ar
    11    5   22 1
    12    6    7 1
    13    7   12 1
    14    7    8 1
    15    8    9 1
    16    8   23 1
    17    8   24 1
    18    9   10 1
    19    9   25 1
    20    9   26 1
    21   10   11 1
    22   10   27 1
    23   10   28 1
    24   11   12 1
    25   11   29 1
    26   11   30 1
    27   12   13 2
    28   12   14 2
    29   15   16 2
    30   15   17 2
    31   15   18 1
    32   18   31 1
    33   18   32 1
@<TRIPOS>MOLECULE
ZINC00001099
   19    19     0     0     0
SMALL
USER_CHARGES

@<TRIPOS>ATOM
      1 C1         -0.0169    1.3930    0.0097 C.ar      1 <0>        -0.1090
      2 C2          1.1700    2.0954    0.0021 C.ar      1 <0>        -0.0380
      3 C3          2.3776    1.4198   -0.0135 C.ar      1 <0>        -0.6857
      4 C4          2.4041    0.0362   -0.0212 C.ar      1 <0>        -0.0380
      5 C5          1.2251   -0.6794   -0.0133 C.ar      1 <0>        -0.1090
      6 C6          0.0021   -0.0041    0.0020 C.ar      1 <0>        -0.0699
      7 C7         -1.2634   -0.7626    0.0105 C.2       1 <0>         0.5141
      8 O1         -2.3322   -0.1685    0.0243 O.co2     1 <0>        -0.6763
      9 O2         -1.2434   -1.9853    0.0038 O.co2     1 <0>        -0.6763
     10 S1          3.8889    2.3257   -0.0242 S.o2      1 <0>         2.7042
     11 O3          4.8718    1.4691   -0.5893 O.2       1 <0>        -0.9724
     12 O4          3.5915    3.6054   -0.5656 O.2       1 <0>        -0.9724
     13 N1          4.3249    2.5694    1.5547 N.pl3     1 <0>        -1.2522
     14 H1         -0.9586    1.9215    0.0260 H         1 <0>         0.1382
     15 H2          1.1569    3.1753    0.0081 H         1 <0>         0.1354
     16 H3          3.3502   -0.4844   -0.0337 H         1 <0>         0.1355
     17 H4          1.2472   -1.7591   -0.0197 H         1 <0>         0.1382
     18 H5          3.7668    2.2270    2.2703 H         1 <0>         0.4174
     19 H6          5.1384    3.0546    1.7638 H         1 <0>         0.4162
@<TRIPOS>BOND
     1    1    6 ar
     2    1    2 ar
     3    1   14 1
     4    2    3 ar
     5    2   15 1
     6    3    4 ar
     7    3   10 1
     8    4    5 ar
     9    4   16 1
    10    5    6 ar
    11    5   17 1
    12    6    7 1
    13    7    8 2
    14    7    9 1
    15   10   11 2
    16   10   12 2
    17   10   13 1
    18   13   18 1
    19   13   19 1
@<TRIPOS>MOLECULE
ZINC01676919
   27    27     0     0     0
SMALL
USER_CHARGES

@<TRIPOS>ATOM
      1 C1         -0.0168    1.3847    0.0097 C.ar      1 <0>        -0.1744
      2 C2          1.1708    2.0900    0.0021 C.ar      1 <0>         0.0093
      3 C3          2.3774    1.4150   -0.0135 C.ar      1 <0>        -0.7184
      4 C4          2.3998    0.0321   -0.0211 C.ar      1 <0>         0.1339
      5 C5          1.2163   -0.6791   -0.0132 C.ar      1 <0>        -0.7535
      6 C6          0.0021   -0.0041    0.0020 C.ar      1 <0>         0.3596
      7 N1         -1.1970   -0.7204    0.0101 N.pl3     1 <0>        -0.8440
      8 S1          1.2459   -2.4408   -0.0235 S.o2      1 <0>         2.7018
      9 O1          0.3466   -2.8562   -1.0424 O.2       1 <0>        -0.9552
     10 O2          2.6142   -2.8241   -0.0125 O.2       1 <0>        -0.9462
     11 N2          0.6002   -2.9498    1.4139 N.pl3     1 <0>        -1.2508
     12 S2          3.8900    2.3187   -0.0243 S.o2      1 <0>         2.6883
     13 O3          3.7897    3.2908    1.0072 O.2       1 <0>        -0.9394
     14 O4          4.9365    1.3583   -0.0668 O.2       1 <0>        -0.9483
     15 N3          3.9530    3.1509   -1.4545 N.pl3     1 <0>        -1.2412
     16 C7          1.1514    3.5968    0.0104 C.3       1 <0>         0.4751
     17 F1         -0.1734    4.0460    0.0254 F         1 <0>        -0.1673
     18 F2          1.8157    4.0655    1.1489 F         1 <0>        -0.1288
     19 F3          1.7939    4.0778   -1.1355 F         1 <0>        -0.1624
     20 H1         -0.9589    1.9125    0.0260 H         1 <0>         0.1607
     21 H2          3.3440   -0.4920   -0.0337 H         1 <0>         0.1789
     22 H3         -2.0441   -0.2480    0.0210 H         1 <0>         0.4200
     23 H4         -1.1825   -1.6903    0.0047 H         1 <0>         0.4126
     24 H5          0.2949   -2.2996    2.0658 H         1 <0>         0.4181
     25 H6          0.5273   -3.8982    1.6041 H         1 <0>         0.4268
     26 H7          4.4232    3.9980   -1.5025 H         1 <0>         0.4256
     27 H8          3.5197    2.7914   -2.2444 H         1 <0>         0.4192
@<TRIPOS>BOND
     1    1    6 ar
     2    1    2 ar
     3    1   20 1
     4    2    3 ar
     5    2   16 1
     6    3    4 ar
     7    3   12 1
     8    4    5 ar
     9    4   21 1
    10    5    6 ar
    11    5    8 1
    12    6    7 1
    13    7   22 1
    14    7   23 1
    15    8    9 2
    16    8   10 2
    17    8   11 1
    18   11   24 1
    19   11   25 1
    20   12   13 2
    21   12   14 2
    22   12   15 1
    23   15   26 1
    24   15   27 1
    25   16   17 1
    26   16   18 1
    27   16   19 1
@<TRIPOS>MOLECULE
ZINC00001644
   23    23     0     0     0
SMALL
USER_CHARGES

@<TRIPOS>ATOM
      1 C1         -0.0167    1.3781    0.0096 C.ar      1 <0>        -0.1137
      2 C2          1.1709    2.0855    0.0021 C.ar      1 <0>        -0.0132
      3 C3          2.3773    1.4107   -0.0130 C.ar      1 <0>        -0.6459
      4 C4          2.3960    0.0285   -0.0201 C.ar      1 <0>        -0.0133
      5 C5          1.2085   -0.6789   -0.0117 C.ar      1 <0>        -0.1136
      6 C6          0.0021   -0.0041    0.0020 C.ar      1 <0>        -0.1157
      7 C7         -1.2926   -0.7753    0.0107 C.3       1 <0>         0.0413
      8 N1         -1.7270   -1.0184   -1.3714 N.4       1 <0>        -0.6365
      9 S1          3.8911    2.3124   -0.0238 S.o2      1 <0>         2.6971
     10 O1          4.8717    1.4529   -0.5884 O.2       1 <0>        -0.9502
     11 O2          3.5973    3.5927   -0.5658 O.2       1 <0>        -0.9502
     12 N2          4.3274    2.5556    1.5551 N.pl3     1 <0>        -1.2462
     13 H1         -0.9591    1.9053    0.0259 H         1 <0>         0.1458
     14 H2          1.1563    3.1654    0.0076 H         1 <0>         0.1576
     15 H3          3.3385   -0.4987   -0.0326 H         1 <0>         0.1576
     16 H4          1.2231   -1.7588   -0.0179 H         1 <0>         0.1458
     17 H5         -1.1443   -1.7285    0.5180 H         1 <0>         0.1464
     18 H6         -2.0551   -0.1993    0.5352 H         1 <0>         0.1464
     19 H7         -1.8643   -0.1360   -1.8410 H         1 <0>         0.4368
     20 H8         -1.0212   -1.5515   -1.8569 H         1 <0>         0.4368
     21 H9          3.7682    2.2150    2.2708 H         1 <0>         0.4171
     22 H10         5.1421    3.0386    1.7642 H         1 <0>         0.4281
     23 H11        -2.5939   -1.5347   -1.3656 H         1 <0>         0.4418
@<TRIPOS>BOND
     1    1    6 ar
     2    1    2 ar
     3    1   13 1
     4    2    3 ar
     5    2   14 1
     6    3    4 ar
     7    3    9 1
     8    4    5 ar
     9    4   15 1
    10    5    6 ar
    11    5   16 1
    12    6    7 1
    13    7    8 1
    14    7   17 1
    15    7   18 1
    16    8   19 1
    17    8   20 1
    18    8   23 1
    19    9   10 2
    20    9   11 2
    21    9   12 1
    22   12   21 1
    23   12   22 1
@<TRIPOS>MOLECULE
ZINC00001554
   15    15     0     0     0
SMALL
USER_CHARGES

@<TRIPOS>ATOM
      1 C1         -0.0166    1.3729    0.0096 C.ar      1 <0>        -0.1527
      2 C2          1.1702    2.0889    0.0021 C.ar      1 <0>        -0.1151
      3 C3          2.3835    1.4309   -0.0134 C.ar      1 <0>        -0.1702
      4 C4          2.4229    0.0443   -0.0217 C.ar      1 <0>         0.1356
      5 C5          1.2241   -0.6847   -0.0137 C.ar      1 <0>        -0.1640
      6 C6          0.0021   -0.0041    0.0020 C.ar      1 <0>        -0.0724
      7 C7          1.2522   -2.1560   -0.0228 C.2       1 <0>         0.5187
      8 O1          0.2046   -2.7878   -0.0157 O.co2     1 <0>        -0.6925
      9 O2          2.3231   -2.7473   -0.0373 O.co2     1 <0>        -0.6721
     10 O3          3.6142   -0.6033   -0.0378 O.3       1 <0>        -0.4761
     11 H1         -0.9605    1.8974    0.0259 H         1 <0>         0.1154
     12 H2          1.1454    3.1686    0.0081 H         1 <0>         0.1153
     13 H3          3.3036    1.9965   -0.0195 H         1 <0>         0.1186
     14 H4         -0.9253   -0.5576    0.0082 H         1 <0>         0.1285
     15 H5          3.9689   -0.7962    0.8408 H         1 <0>         0.3830
@<TRIPOS>BOND
     1    1    6 ar
     2    1    2 ar
     3    1   11 1
     4    2    3 ar
     5    2   12 1
     6    3    4 ar
     7    3   13 1
     8    4    5 ar
     9    4   10 1
    10    5    6 ar
    11    5    7 1
    12    6   14 1
    13    7    8 2
    14    7    9 1
    15   10   15 1
@<TRIPOS>MOLECULE
ZINC00332752
   15    15     0     0     0
SMALL
USER_CHARGES

@<TRIPOS>ATOM
      1 C1         -0.0169    1.3948    0.0097 C.ar      1 <0>        -0.0719
      2 C2          1.1668    2.0970    0.0022 C.ar      1 <0>        -0.1621
      3 C3          2.3803    1.4181   -0.0135 C.ar      1 <0>         0.0845
      4 C4          2.4040    0.0278   -0.0217 C.ar      1 <0>        -0.1621
      5 C5          1.2254   -0.6827   -0.0142 C.ar      1 <0>        -0.0719
      6 C6          0.0021   -0.0041    0.0020 C.ar      1 <0>        -0.1403
      7 C7         -1.2616   -0.7598    0.0105 C.2       1 <0>         0.5192
      8 O1         -2.3302   -0.1645    0.0243 O.co2     1 <0>        -0.6869
      9 O2         -1.2429   -1.9830    0.0038 O.co2     1 <0>        -0.6870
     10 O3          3.5446    2.1144   -0.0213 O.3       1 <0>        -0.5035
     11 H1         -0.9589    1.9228    0.0260 H         1 <0>         0.1309
     12 H2          1.1531    3.1769    0.0081 H         1 <0>         0.1198
     13 H3          3.3488   -0.4952   -0.0342 H         1 <0>         0.1198
     14 H4          1.2447   -1.7625   -0.0213 H         1 <0>         0.1309
     15 H5          3.8909    2.3116    0.8597 H         1 <0>         0.3806
@<TRIPOS>BOND
     1    1    6 ar
     2    1    2 ar
     3    1   11 1
     4    2    3 ar
     5    2   12 1
     6    3    4 ar
     7    3   10 1
     8    4    5 ar
     9    4   13 1
    10    5    6 ar
    11    5   14 1
    12    6    7 1
    13    7    8 2
    14    7    9 1
    15   10   15 1
@<TRIPOS>MOLECULE
ZINC06409735
   18    19     0     0     0
SMALL
USER_CHARGES

@<TRIPOS>ATOM
      1 C1         -0.0168    1.3885    0.0097 C.ar      1 <0>        -0.1549
      2 C2          1.1578    2.0863    0.0022 C.ar      1 <0>        -0.0581
      3 C3          2.3620    1.3588   -0.0132 C.ar      1 <0>        -0.0756
      4 C4          3.6088    2.0077   -0.0210 C.ar      1 <0>        -0.0212
      5 C5          4.7541    1.2695   -0.0355 C.ar      1 <0>        -0.0651
      6 C6          4.7083   -0.1226   -0.0427 C.ar      1 <0>        -0.1203
      7 C7          3.5151   -0.7876   -0.0359 C.ar      1 <0>         0.1861
      8 C8          2.3089   -0.0569   -0.0203 C.ar      1 <0>         0.1141
      9 N1          1.1264   -0.6784   -0.0124 N.ar      1 <0>        -0.4522
     10 C9          0.0021   -0.0041    0.0020 C.ar      1 <0>         0.1370
     11 O1          3.4905   -2.1462   -0.0431 O.3       1 <0>        -0.4656
     12 I1          6.4969   -1.2133   -0.0651 I         1 <0>         0.0020
     13 Cl1         3.6893    3.7418   -0.0128 Cl        1 <0>        -0.0424
     14 H1         -0.9589    1.9163    0.0260 H         1 <0>         0.1481
     15 H2          1.1619    3.1663    0.0076 H         1 <0>         0.1494
     16 H3          5.7107    1.7709   -0.0419 H         1 <0>         0.1494
     17 H4         -0.9340   -0.5426    0.0081 H         1 <0>         0.1694
     18 H5          3.4911   -2.5443    0.8382 H         1 <0>         0.4001
@<TRIPOS>BOND
     1    1   10 ar
     2    1    2 ar
     3    1   14 1
     4    2    3 ar
     5    2   15 1
     6    3    8 ar
     7    3    4 ar
     8    4    5 ar
     9    4   13 1
    10    5    6 ar
    11    5   16 1
    12    6    7 ar
    13    6   12 1
    14    7    8 ar
    15    7   11 1
    16    8    9 ar
    17    9   10 ar
    18   10   17 1
    19   11   18 1
@<TRIPOS>MOLECULE
ZINC06409735
   17    18     0     0     0
SMALL
USER_CHARGES

@<TRIPOS>ATOM
      1 C1         -0.0168    1.3885    0.0097 C.ar      1 <0>        -0.1546
      2 C2          1.1578    2.0863    0.0022 C.ar      1 <0>        -0.1065
      3 C3          2.3620    1.3588   -0.0132 C.ar      1 <0>        -0.0210
      4 C4          3.6088    2.0077   -0.0210 C.ar      1 <0>        -0.1791
      5 C5          4.7541    1.2695   -0.0355 C.ar      1 <0>         0.0217
      6 C6          4.7083   -0.1226   -0.0427 C.ar      1 <0>        -0.2818
      7 C7          3.5151   -0.7876   -0.0359 C.ar      1 <0>         0.3314
      8 C8          2.3089   -0.0569   -0.0203 C.ar      1 <0>         0.0561
      9 N1          1.1264   -0.6784   -0.0124 N.ar      1 <0>        -0.4133
     10 C9          0.0021   -0.0041    0.0020 C.ar      1 <0>         0.0509
     11 O1          3.4905   -2.1462   -0.0431 O.3       1 <0>        -0.6286
     12 I1          6.4969   -1.2133   -0.0651 I         1 <0>        -0.0772
     13 Cl1         3.6893    3.7418   -0.0128 Cl        1 <0>        -0.1083
     14 H1         -0.9589    1.9163    0.0260 H         1 <0>         0.1233
     15 H2          1.1619    3.1663    0.0076 H         1 <0>         0.1292
     16 H3          5.7107    1.7709   -0.0419 H         1 <0>         0.1131
     17 H4         -0.9340   -0.5426    0.0081 H         1 <0>         0.1447
@<TRIPOS>BOND
     1    1   10 ar
     2    1    2 ar
     3    1   14 1
     4    2    3 ar
     5    2   15 1
     6    3    8 ar
     7    3    4 ar
     8    4    5 ar
     9    4   13 1
    10    5    6 ar
    11    5   16 1
    12    6    7 ar
    13    6   12 1
    14    7    8 ar
    15    7   11 1
    16    8    9 ar
    17    9   10 ar
    18   10   17 1
@<TRIPOS>MOLECULE
ZINC00391177
   21    22     0     0     0
SMALL
USER_CHARGES

@<TRIPOS>ATOM
      1 C1         -0.0173    1.4248    0.0099 C.3       1 <0>         0.0229
      2 O1          0.0021   -0.0041    0.0020 O.3       1 <0>        -0.3061
      3 C2          0.6051   -0.6064   -1.0545 C.ar      1 <0>         0.1879
      4 C3          1.1726    0.1715   -2.0621 C.ar      1 <0>        -0.2276
      5 C4          1.7820   -0.4190   -3.1308 C.ar      1 <0>        -0.0103
      6 C5          1.8380   -1.8150   -3.2156 C.ar      1 <0>        -0.2012
      7 C6          2.4860   -2.4761   -4.3503 C.2       1 <0>         0.0108
      8 C7          2.5080   -3.8341   -4.3748 C.2       1 <0>        -0.2569
      9 C8          1.9159   -4.5642   -3.3238 C.2       1 <0>         0.5094
     10 O2          1.9427   -5.7814   -3.3580 O.2       1 <0>        -0.4611
     11 O3          1.3239   -3.9521   -2.2862 O.3       1 <0>        -0.2700
     12 C9          1.2671   -2.6057   -2.2012 C.ar      1 <0>         0.1893
     13 C10         0.6563   -1.9891   -1.1195 C.ar      1 <0>        -0.1773
     14 H1          1.0053    1.8021    0.0021 H         1 <0>         0.0620
     15 H2         -0.5445    1.7859   -0.8732 H         1 <0>         0.0620
     16 H3         -0.5275    1.7763    0.9067 H         1 <0>         0.1075
     17 H4          1.1295    1.2486   -1.9968 H         1 <0>         0.1423
     18 H5          2.2195    0.1889   -3.9089 H         1 <0>         0.1443
     19 H6          2.9338   -1.8996   -5.1463 H         1 <0>         0.1541
     20 H7          2.9775   -4.3533   -5.1973 H         1 <0>         0.1648
     21 H8          0.2181   -2.5850   -0.3326 H         1 <0>         0.1531
@<TRIPOS>BOND
     1    1    2 1
     2    1   14 1
     3    1   15 1
     4    1   16 1
     5    2    3 1
     6    3   13 ar
     7    3    4 ar
     8    4    5 ar
     9    4   17 1
    10    5    6 ar
    11    5   18 1
    12    6   12 ar
    13    6    7 1
    14    7    8 2
    15    7   19 1
    16    8    9 1
    17    8   20 1
    18    9   10 2
    19    9   11 1
    20   11   12 1
    21   12   13 ar
    22   13   21 1
@<TRIPOS>MOLECULE
ZINC45245505
   23    24     0     0     0
SMALL
USER_CHARGES

@<TRIPOS>ATOM
      1 C1         -0.0167    1.3829    0.0096 C.ar      1 <0>        -0.0470
      2 C2          1.1601    2.1027    0.0023 C.ar      1 <0>        -0.1248
      3 C3          2.3778    1.4352   -0.0129 C.ar      1 <0>         0.1801
      4 C4          2.3928    0.0292   -0.0206 C.ar      1 <0>        -0.1527
      5 C5          3.6827   -0.6678   -0.0367 C.2       1 <0>        -0.0213
      6 C6          4.8150    0.0802   -0.0435 C.2       1 <0>        -0.2157
      7 C7          4.7255    1.4891   -0.0351 C.2       1 <0>         0.5027
      8 O1          5.7491    2.1487   -0.0419 O.2       1 <0>        -0.4328
      9 O2          3.5412    2.1201   -0.0208 O.3       1 <0>        -0.2681
     10 C8          1.1892   -0.6817   -0.0133 C.ar      1 <0>        -0.0265
     11 C9          0.0021   -0.0041    0.0020 C.ar      1 <0>        -0.1946
     12 C10        -1.2960   -0.7696    0.0108 C.3       1 <0>         0.0507
     13 N1         -1.7314   -1.0110   -1.3713 N.4       1 <0>        -0.6382
     14 H1         -0.9623    1.9046    0.0260 H         1 <0>         0.1493
     15 H2          1.1346    3.1824    0.0079 H         1 <0>         0.1577
     16 H3          3.7303   -1.7467   -0.0425 H         1 <0>         0.1612
     17 H4          5.7818   -0.4010   -0.0550 H         1 <0>         0.1746
     18 H5          1.1971   -1.7616   -0.0198 H         1 <0>         0.1483
     19 H6         -1.1518   -1.7235    0.5181 H         1 <0>         0.1428
     20 H7         -2.0559   -0.1904    0.5353 H         1 <0>         0.1441
     21 H8         -2.6005   -1.5235   -1.3654 H         1 <0>         0.4398
     22 H9         -1.8649   -0.1279   -1.8409 H         1 <0>         0.4357
     23 H10        -1.0280   -1.5472   -1.8568 H         1 <0>         0.4347
@<TRIPOS>BOND
     1    1   11 ar
     2    1    2 ar
     3    1   14 1
     4    2    3 ar
     5    2   15 1
     6    3    9 1
     7    3    4 ar
     8    4    5 1
     9    4   10 ar
    10    5    6 2
    11    5   16 1
    12    6    7 1
    13    6   17 1
    14    7    8 2
    15    7    9 1
    16   10   11 ar
    17   10   18 1
    18   11   12 1
    19   12   13 1
    20   12   19 1
    21   12   20 1
    22   13   21 1
    23   13   22 1
    24   13   23 1
@<TRIPOS>MOLECULE
ZINC39042869
   30    31     0     0     0
SMALL
USER_CHARGES

@<TRIPOS>ATOM
      1 C1         -0.0187    1.5258    0.0104 C.3       1 <0>        -0.1524
      2 C2          0.0021   -0.0041    0.0020 C.3       1 <0>         0.0604
      3 O1         -1.3386   -0.4987    0.0122 O.3       1 <0>        -0.3315
      4 C3         -1.4970   -1.8373    0.0065 C.2       1 <0>         0.5308
      5 O2         -0.5232   -2.5645   -0.0067 O.2       1 <0>        -0.5027
      6 C4         -2.8486   -2.4180    0.0163 C.2       1 <0>        -0.2612
      7 C5         -3.0437   -3.7934    0.0166 C.2       1 <0>         0.0925
      8 C6         -4.3765   -4.2782   -0.0063 C.ar      1 <0>        -0.1765
      9 C7         -4.6418   -5.6410    0.1937 C.ar      1 <0>        -0.0161
     10 C8         -5.9326   -6.0853    0.2106 C.ar      1 <0>        -0.1186
     11 C9         -6.9863   -5.2011    0.0237 C.ar      1 <0>        -0.0255
     12 C10        -6.7479   -3.8600   -0.1945 C.ar      1 <0>        -0.1388
     13 C11        -5.4433   -3.3860   -0.2229 C.ar      1 <0>         0.1659
     14 O3         -5.1945   -2.0792   -0.4788 O.3       1 <0>        -0.2707
     15 C12        -4.0501   -1.5633    0.0323 C.2       1 <0>         0.5242
     16 O4         -4.0129   -0.4345    0.4849 O.2       1 <0>        -0.4086
     17 C13        -6.2160   -7.5485    0.4335 C.3       1 <0>         0.1163
     18 O5         -6.3616   -7.7977    1.8331 O.3       1 <0>        -0.5681
     19 H1          1.0039    1.9031    0.0027 H         1 <0>         0.0814
     20 H2         -0.5459    1.8868   -0.8726 H         1 <0>         0.0675
     21 H3         -0.5289    1.8773    0.9072 H         1 <0>         0.0689
     22 H4          0.5123   -0.3556   -0.8948 H         1 <0>         0.0697
     23 H5          0.5293   -0.3651    0.8851 H         1 <0>         0.0703
     24 H6         -2.2051   -4.4737    0.0333 H         1 <0>         0.1689
     25 H7         -3.8275   -6.3366    0.3336 H         1 <0>         0.1462
     26 H8         -8.0023   -5.5666    0.0490 H         1 <0>         0.1461
     27 H9         -7.5742   -3.1803   -0.3422 H         1 <0>         0.1523
     28 H10        -7.1362   -7.8231   -0.0821 H         1 <0>         0.0619
     29 H11        -5.3896   -8.1423    0.0429 H         1 <0>         0.0611
     30 H12        -6.5461   -8.7215    2.0510 H         1 <0>         0.3863
@<TRIPOS>BOND
     1    1    2 1
     2    1   19 1
     3    1   20 1
     4    1   21 1
     5    2    3 1
     6    2   22 1
     7    2   23 1
     8    3    4 1
     9    4    5 2
    10    4    6 1
    11    6   15 1
    12    6    7 2
    13    7    8 1
    14    7   24 1
    15    8   13 ar
    16    8    9 ar
    17    9   10 ar
    18    9   25 1
    19   10   11 ar
    20   10   17 1
    21   11   12 ar
    22   11   26 1
    23   12   13 ar
    24   12   27 1
    25   13   14 1
    26   14   15 1
    27   15   16 2
    28   17   18 1
    29   17   28 1
    30   17   29 1
    31   18   30 1
@<TRIPOS>MOLECULE
ZINC00084532
   23    24     0     0     0
SMALL
USER_CHARGES
8-methoxy-2-oxo-chromene-3-carboxylic acid
@<TRIPOS>ATOM
      1 C1          3.5008   -2.1199   -0.0450 C.3       1 <0>         0.0262
      2 O1          3.5824   -0.6932   -0.0372 O.3       1 <0>        -0.3039
      3 C2          2.4081   -0.0078   -0.0214 C.ar      1 <0>         0.1137
      4 C3          1.2066   -0.6925   -0.0136 C.ar      1 <0>        -0.1764
      5 C4          0.0021   -0.0041    0.0020 C.ar      1 <0>        -0.1064
      6 C5         -0.0164    1.3608    0.0095 C.ar      1 <0>        -0.0969
      7 C6          1.1896    2.0787    0.0019 C.ar      1 <0>        -0.0979
      8 C7          2.4135    1.3874   -0.0135 C.ar      1 <0>         0.1129
      9 O2          3.5871    2.0559   -0.0206 O.3       1 <0>        -0.2686
     10 C8          3.6287    3.3985   -0.0134 C.2       1 <0>         0.5011
     11 O3          4.7014    3.9727   -0.0201 O.2       1 <0>        -0.4199
     12 C9          2.3828    4.1741    0.0031 C.2       1 <0>        -0.2024
     13 C10         1.1751    3.4964    0.0105 C.2       1 <0>        -0.0193
     14 C11         2.4164    5.6449    0.0111 C.2       1 <0>         0.4991
     15 O4          3.4825    6.2285    0.0041 O.co2     1 <0>        -0.5976
     16 H1          2.9582   -2.4479   -0.9316 H         1 <0>         0.0557
     17 H2          4.5060   -2.5412   -0.0575 H         1 <0>         0.1010
     18 H3          2.9759   -2.4587    0.8482 H         1 <0>         0.0557
     19 H4          1.2059   -1.7725   -0.0194 H         1 <0>         0.1382
     20 H5         -0.9283   -0.5525    0.0079 H         1 <0>         0.1326
     21 H6         -0.9589    1.8881    0.0169 H         1 <0>         0.1398
     22 H7          0.2404    4.0373    0.0229 H         1 <0>         0.1612
     23 O5          1.2647    6.3452    0.0262 O.co2     1 <0>        -0.7479
@<TRIPOS>BOND
     1    1    2 1
     2    1   16 1
     3    1   17 1
     4    1   18 1
     5    2    3 1
     6    3    8 ar
     7    3    4 ar
     8    4    5 ar
     9    4   19 1
    10    5    6 ar
    11    5   20 1
    12    6    7 ar
    13    6   21 1
    14    7   13 1
    15    7    8 ar
    16    8    9 1
    17    9   10 1
    18   10   11 2
    19   10   12 1
    20   12   13 2
    21   12   14 1
    22   13   22 1
    23   14   15 2
    24   14   23 1
@<TRIPOS>MOLECULE
ZINC00499358
   30    31     0     0     0
SMALL
USER_CHARGES

@<TRIPOS>ATOM
      1 C1         -0.0187    1.5258    0.0104 C.3       1 <0>        -0.1524
      2 C2          0.0021   -0.0041    0.0020 C.3       1 <0>         0.0607
      3 O1          0.6709   -0.4649   -1.1737 O.3       1 <0>        -0.3323
      4 C3          0.7759   -1.7992   -1.3348 C.2       1 <0>         0.5320
      5 O2          0.3120   -2.5507   -0.4995 O.2       1 <0>        -0.5062
      6 C4          1.4514   -2.3455   -2.5208 C.2       1 <0>        -0.2765
      7 C5          1.5702   -3.7177   -2.7175 C.2       1 <0>         0.1032
      8 C6          2.2613   -4.1687   -3.8673 C.ar      1 <0>        -0.2164
      9 C7          2.2402   -5.5274   -4.2224 C.ar      1 <0>         0.0086
     10 C8          2.8744   -5.9428   -5.3547 C.ar      1 <0>        -0.2323
     11 C9          3.5527   -5.0295   -6.1621 C.ar      1 <0>         0.2069
     12 C10         3.6015   -3.6875   -5.8181 C.ar      1 <0>        -0.1817
     13 C11         2.9688   -3.2484   -4.6666 C.ar      1 <0>         0.2049
     14 O3          3.0463   -1.9470   -4.2974 O.3       1 <0>        -0.2704
     15 C12         2.0242   -1.4614   -3.5512 C.2       1 <0>         0.5266
     16 O4          1.5964   -0.3352   -3.7225 O.2       1 <0>        -0.4100
     17 O5          4.1694   -5.4579   -7.2919 O.3       1 <0>        -0.3015
     18 C13         4.0822   -6.8528   -7.5897 C.3       1 <0>         0.0207
     19 H1          1.0039    1.9031    0.0027 H         1 <0>         0.0673
     20 H2         -0.5459    1.8868   -0.8726 H         1 <0>         0.0687
     21 H3         -0.5289    1.8773    0.9072 H         1 <0>         0.0809
     22 H4          0.5293   -0.3651    0.8851 H         1 <0>         0.0691
     23 H5         -1.0205   -0.3814    0.0098 H         1 <0>         0.0697
     24 H6          1.1474   -4.4185   -2.0129 H         1 <0>         0.1671
     25 H7          1.7227   -6.2416   -3.5991 H         1 <0>         0.1502
     26 H8          2.8521   -6.9871   -5.6290 H         1 <0>         0.1467
     27 H9          4.1309   -2.9864   -6.4461 H         1 <0>         0.1575
     28 H10         4.5282   -7.4263   -6.7771 H         1 <0>         0.0645
     29 H11         3.0355   -7.1355   -7.7021 H         1 <0>         0.0643
     30 H12         4.6163   -7.0605   -8.5169 H         1 <0>         0.1098
@<TRIPOS>BOND
     1    1    2 1
     2    1   19 1
     3    1   20 1
     4    1   21 1
     5    2    3 1
     6    2   22 1
     7    2   23 1
     8    3    4 1
     9    4    5 2
    10    4    6 1
    11    6   15 1
    12    6    7 2
    13    7    8 1
    14    7   24 1
    15    8   13 ar
    16    8    9 ar
    17    9   10 ar
    18    9   25 1
    19   10   11 ar
    20   10   26 1
    21   11   12 ar
    22   11   17 1
    23   12   13 ar
    24   12   27 1
    25   13   14 1
    26   14   15 1
    27   15   16 2
    28   17   18 1
    29   18   28 1
    30   18   29 1
    31   18   30 1
@<TRIPOS>MOLECULE
ZINC00103684
   23    24     0     0     0
SMALL
USER_CHARGES

@<TRIPOS>ATOM
      1 C1         -0.0173    1.4248    0.0099 C.3       1 <0>         0.0269
      2 O1          0.0021   -0.0041    0.0020 O.3       1 <0>        -0.3160
      3 C2         -1.2008   -0.6377    0.0101 C.ar      1 <0>         0.1026
      4 C3         -2.3772    0.1082    0.0195 C.ar      1 <0>        -0.1710
      5 C4         -3.6049   -0.5185    0.0401 C.ar      1 <0>        -0.0924
      6 C5         -3.6781   -1.9049    0.0452 C.ar      1 <0>         0.0944
      7 C6         -2.4941   -2.6655    0.0068 C.ar      1 <0>        -0.0827
      8 C7         -1.2505   -2.0162    0.0032 C.ar      1 <0>        -0.1014
      9 C8         -2.5647   -4.0803   -0.0533 C.2       1 <0>        -0.0407
     10 C9         -3.8085   -4.6648   -0.2685 C.2       1 <0>        -0.2094
     11 C10        -4.9588   -3.7600   -0.4521 C.2       1 <0>         0.5094
     12 O2         -5.9433   -4.1125   -1.0741 O.2       1 <0>        -0.4143
     13 O3         -4.8823   -2.5253    0.0951 O.3       1 <0>        -0.2899
     14 C11        -3.9697   -6.1237   -0.3118 C.2       1 <0>         0.5324
     15 O4         -2.9980   -6.8516   -0.1568 O.co2     1 <0>        -0.6776
     16 O5         -5.0756   -6.6118   -0.5029 O.co2     1 <0>        -0.6590
     17 H1          1.0053    1.8021    0.0021 H         1 <0>         0.0987
     18 H2         -0.5445    1.7859   -0.8732 H         1 <0>         0.0548
     19 H3         -0.5275    1.7763    0.9067 H         1 <0>         0.0551
     20 H4         -2.3270    1.1870    0.0110 H         1 <0>         0.1378
     21 H5         -4.5107    0.0695    0.0527 H         1 <0>         0.1412
     22 H6         -0.3371   -2.5925   -0.0009 H         1 <0>         0.1452
     23 H7         -1.6786   -4.6864    0.0643 H         1 <0>         0.1560
@<TRIPOS>BOND
     1    1    2 1
     2    1   17 1
     3    1   18 1
     4    1   19 1
     5    2    3 1
     6    3    8 ar
     7    3    4 ar
     8    4    5 ar
     9    4   20 1
    10    5    6 ar
    11    5   21 1
    12    6   13 1
    13    6    7 ar
    14    7    8 ar
    15    7    9 1
    16    8   22 1
    17    9   10 2
    18    9   23 1
    19   10   11 1
    20   10   14 1
    21   11   12 2
    22   11   13 1
    23   14   15 2
    24   14   16 1
@<TRIPOS>MOLECULE
ZINC01893420
   27    28     0     0     0
SMALL
USER_CHARGES
7-propoxychromen-2-one
@<TRIPOS>ATOM
      1 C1         -2.5282    5.5539    0.0442 C.3       1 <0>        -0.1512
      2 C2         -2.5802    4.0249    0.0361 C.3       1 <0>        -0.1251
      3 C3         -1.1559    3.4661    0.0264 C.3       1 <0>         0.0549
      4 O1         -1.2045    2.0380    0.0188 O.3       1 <0>        -0.3049
      5 C4         -0.0167    1.3809    0.0096 C.ar      1 <0>         0.1919
      6 C5          1.1738    2.1055    0.0022 C.ar      1 <0>        -0.2283
      7 C6          2.3758    1.4597   -0.0124 C.ar      1 <0>        -0.0098
      8 C7          2.4136    0.0606   -0.0207 C.ar      1 <0>        -0.2019
      9 C8          3.6889   -0.6590   -0.0367 C.2       1 <0>         0.0111
     10 C9          3.6594   -2.0171   -0.0437 C.2       1 <0>        -0.2573
     11 C10         2.4212   -2.6917   -0.0355 C.2       1 <0>         0.5094
     12 O2          2.4090   -3.9096   -0.0419 O.2       1 <0>        -0.4613
     13 O3          1.2557   -2.0261   -0.0204 O.3       1 <0>        -0.2700
     14 C11         1.2148   -0.6765   -0.0132 C.ar      1 <0>         0.1899
     15 C12         0.0021   -0.0041    0.0020 C.ar      1 <0>        -0.1780
     16 H1         -2.0065    5.9044   -0.8464 H         1 <0>         0.0587
     17 H2         -3.5429    5.9520    0.0512 H         1 <0>         0.0672
     18 H3         -1.9981    5.8948    0.9335 H         1 <0>         0.0587
     19 H4         -3.1103    3.6840   -0.8532 H         1 <0>         0.0760
     20 H5         -3.1019    3.6744    0.9267 H         1 <0>         0.0760
     21 H6         -0.6258    3.8069    0.9157 H         1 <0>         0.0684
     22 H7         -0.6342    3.8166   -0.8642 H         1 <0>         0.0685
     23 H8          1.1448    3.1851    0.0083 H         1 <0>         0.1414
     24 H9          3.2952    2.0265   -0.0186 H         1 <0>         0.1442
     25 H10         4.6273   -0.1245   -0.0425 H         1 <0>         0.1539
     26 H11         4.5819   -2.5786   -0.0559 H         1 <0>         0.1646
     27 H12        -0.9248   -0.5585    0.0076 H         1 <0>         0.1529
@<TRIPOS>BOND
     1    1    2 1
     2    1   16 1
     3    1   17 1
     4    1   18 1
     5    2    3 1
     6    2   19 1
     7    2   20 1
     8    3    4 1
     9    3   21 1
    10    3   22 1
    11    4    5 1
    12    5   15 ar
    13    5    6 ar
    14    6    7 ar
    15    6   23 1
    16    7    8 ar
    17    7   24 1
    18    8   14 ar
    19    8    9 1
    20    9   10 2
    21    9   25 1
    22   10   11 1
    23   10   26 1
    24   11   12 2
    25   11   13 1
    26   13   14 1
    27   14   15 ar
    28   15   27 1
@<TRIPOS>MOLECULE
ZINC02950199
   30    31     0     0     0
SMALL
USER_CHARGES
7-butoxychromen-2-one
@<TRIPOS>ATOM
      1 C1          1.3960    3.5852    0.0080 C.3       1 <0>        -0.1536
      2 C2          1.4167    2.0553   -0.0004 C.3       1 <0>        -0.1214
      3 C3         -0.0187    1.5258    0.0104 C.3       1 <0>        -0.1216
      4 C4          0.0021   -0.0041    0.0020 C.3       1 <0>         0.0552
      5 O1         -1.3386   -0.4987    0.0122 O.3       1 <0>        -0.3044
      6 C5         -1.4981   -1.8467    0.0064 C.ar      1 <0>         0.1920
      7 C6         -0.3776   -2.6752   -0.0144 C.ar      1 <0>        -0.2282
      8 C7         -0.5214   -4.0322   -0.0142 C.ar      1 <0>        -0.0098
      9 C8         -1.8026   -4.5959   -0.0054 C.ar      1 <0>        -0.2019
     10 C9         -1.9870   -6.0486   -0.0113 C.2       1 <0>         0.0111
     11 C10        -3.2556   -6.5345   -0.0018 C.2       1 <0>        -0.2573
     12 C11        -4.3479   -5.6429    0.0134 C.2       1 <0>         0.5094
     13 O2         -5.4801   -6.0918    0.0218 O.2       1 <0>        -0.4613
     14 O3         -4.1719   -4.3123    0.0192 O.3       1 <0>        -0.2700
     15 C12        -2.9379   -3.7645    0.0099 C.ar      1 <0>         0.1899
     16 C13        -2.7734   -2.3875    0.0157 C.ar      1 <0>        -0.1780
     17 H1          0.8858    3.9367    0.9048 H         1 <0>         0.0568
     18 H2          2.4186    3.9625    0.0002 H         1 <0>         0.0585
     19 H3          0.8688    3.9463   -0.8751 H         1 <0>         0.0568
     20 H4          1.9439    1.6943    0.8826 H         1 <0>         0.0657
     21 H5          1.9269    1.7038   -0.8972 H         1 <0>         0.0657
     22 H6         -0.5459    1.8868   -0.8726 H         1 <0>         0.0764
     23 H7         -0.5289    1.8773    0.9072 H         1 <0>         0.0764
     24 H8          0.5123   -0.3556   -0.8948 H         1 <0>         0.0685
     25 H9          0.5293   -0.3651    0.8851 H         1 <0>         0.0685
     26 H10         0.6109   -2.2404   -0.0260 H         1 <0>         0.1414
     27 H11         0.3506   -4.6693   -0.0263 H         1 <0>         0.1441
     28 H12        -1.1376   -6.7155   -0.0227 H         1 <0>         0.1539
     29 H13        -3.4270   -7.6008   -0.0062 H         1 <0>         0.1646
     30 H14        -3.6368   -1.7388    0.0271 H         1 <0>         0.1528
@<TRIPOS>BOND
     1    1    2 1
     2    1   17 1
     3    1   18 1
     4    1   19 1
     5    2    3 1
     6    2   20 1
     7    2   21 1
     8    3    4 1
     9    3   22 1
    10    3   23 1
    11    4    5 1
    12    4   24 1
    13    4   25 1
    14    5    6 1
    15    6   16 ar
    16    6    7 ar
    17    7    8 ar
    18    7   26 1
    19    8    9 ar
    20    8   27 1
    21    9   15 ar
    22    9   10 1
    23   10   11 2
    24   10   28 1
    25   11   12 1
    26   11   29 1
    27   12   13 2
    28   12   14 1
    29   14   15 1
    30   15   16 ar
    31   16   30 1
@<TRIPOS>MOLECULE
ZINC44198895
   21    22     0     0     0
SMALL
USER_CHARGES

@<TRIPOS>ATOM
      1 C1         -0.0167    1.3829    0.0096 C.ar      1 <0>        -0.0426
      2 C2          1.1601    2.1027    0.0023 C.ar      1 <0>        -0.1351
      3 C3          2.3778    1.4352   -0.0129 C.ar      1 <0>         0.1517
      4 C4          2.3928    0.0292   -0.0206 C.ar      1 <0>        -0.1633
      5 C5          3.6827   -0.6678   -0.0367 C.2       1 <0>         0.0013
      6 C6          4.8150    0.0802   -0.0435 C.2       1 <0>        -0.2450
      7 C7          4.7255    1.4891   -0.0351 C.2       1 <0>         0.5069
      8 O1          5.7491    2.1487   -0.0419 O.2       1 <0>        -0.4601
      9 O2          3.5412    2.1201   -0.0208 O.3       1 <0>        -0.2704
     10 C8          1.1892   -0.6817   -0.0133 C.ar      1 <0>        -0.0329
     11 C9          0.0021   -0.0041    0.0020 C.ar      1 <0>        -0.1161
     12 C10        -1.2960   -0.7696    0.0108 C.3       1 <0>         0.1172
     13 O3         -1.7196   -1.0044   -1.3337 O.3       1 <0>        -0.5682
     14 H1         -0.9623    1.9046    0.0260 H         1 <0>         0.1422
     15 H2          1.1346    3.1824    0.0079 H         1 <0>         0.1479
     16 H3          3.7303   -1.7467   -0.0425 H         1 <0>         0.1555
     17 H4          5.7818   -0.4010   -0.0550 H         1 <0>         0.1662
     18 H5          1.1971   -1.7616   -0.0198 H         1 <0>         0.1406
     19 H6         -1.1518   -1.7235    0.5181 H         1 <0>         0.0591
     20 H7         -2.0559   -0.1904    0.5353 H         1 <0>         0.0602
     21 H8         -2.5506   -1.4937   -1.4044 H         1 <0>         0.3849
@<TRIPOS>BOND
     1    1   11 ar
     2    1    2 ar
     3    1   14 1
     4    2    3 ar
     5    2   15 1
     6    3    9 1
     7    3    4 ar
     8    4    5 1
     9    4   10 ar
    10    5    6 2
    11    5   16 1
    12    6    7 1
    13    6   17 1
    14    7    8 2
    15    7    9 1
    16   10   11 ar
    17   10   18 1
    18   11   12 1
    19   12   13 1
    20   12   19 1
    21   12   20 1
    22   13   21 1
@<TRIPOS>MOLECULE
ZINC00388056
   20    20     0     0     0
SMALL
USER_CHARGES

@<TRIPOS>ATOM
      1 C1         -0.0184    1.5028    0.0103 C.3       1 <0>        -0.1275
      2 C2          0.0021   -0.0041    0.0020 C.ar      1 <0>        -0.0241
      3 C3          0.0057   -0.6887   -1.1989 C.ar      1 <0>        -0.1437
      4 C4          0.0245   -2.0709   -1.2065 C.ar      1 <0>        -0.0144
      5 C5          0.0400   -2.7685   -0.0132 C.ar      1 <0>        -0.6833
      6 C6          0.0373   -2.0839    1.1877 C.ar      1 <0>        -0.0144
      7 C7          0.0229   -0.7016    1.1953 C.ar      1 <0>        -0.1437
      8 S1          0.0628   -4.5303   -0.0229 S.o2      1 <0>         2.7023
      9 O1         -0.4759   -4.9503    1.2232 O.2       1 <0>        -0.9636
     10 O2         -0.4897   -4.9367   -1.2674 O.2       1 <0>        -0.9636
     11 N1          1.6509   -4.9994   -0.0343 N.pl3     1 <0>        -1.2501
     12 H1          1.0042    1.8801    0.0026 H         1 <0>         0.0812
     13 H2         -0.5455    1.8639   -0.8728 H         1 <0>         0.0745
     14 H3         -0.5286    1.8543    0.9071 H         1 <0>         0.0745
     15 H4         -0.0064   -0.1436   -2.1312 H         1 <0>         0.1350
     16 H5          0.0266   -2.6057   -2.1448 H         1 <0>         0.1438
     17 H6          0.0491   -2.6289    2.1200 H         1 <0>         0.1438
     18 H7          0.0245   -0.1667    2.1335 H         1 <0>         0.1350
     19 H8          2.3540   -4.3312   -0.0345 H         1 <0>         0.4166
     20 H9          1.8780   -5.9424   -0.0406 H         1 <0>         0.4215
@<TRIPOS>BOND
     1    1    2 1
     2    1   12 1
     3    1   13 1
     4    1   14 1
     5    2    7 ar
     6    2    3 ar
     7    3    4 ar
     8    3   15 1
     9    4    5 ar
    10    4   16 1
    11    5    6 ar
    12    5    8 1
    13    6    7 ar
    14    6   17 1
    15    7   18 1
    16    8    9 2
    17    8   10 2
    18    8   11 1
    19   11   19 1
    20   11   20 1
@<TRIPOS>MOLECULE
ZINC02023765
   22    23     0     0     0
SMALL
USER_CHARGES
6-methyl-2-oxo-chromene-3-carboxylic acid
@<TRIPOS>ATOM
      1 C1         -2.1226    8.2248    0.0654 C.3       1 <0>        -0.1095
      2 C2         -0.8764    7.3776    0.0488 C.ar      1 <0>        -0.1169
      3 C3          0.3709    7.9868    0.0402 C.ar      1 <0>        -0.0775
      4 C4          1.5226    7.2292    0.0255 C.ar      1 <0>        -0.1333
      5 C5          1.4416    5.8409    0.0193 C.ar      1 <0>         0.1361
      6 C6          0.1767    5.2257    0.0281 C.ar      1 <0>        -0.1320
      7 C7         -0.9822    6.0169    0.0430 C.ar      1 <0>        -0.0608
      8 C8          0.0747    3.8118    0.0161 C.2       1 <0>        -0.0135
      9 C9          1.2386    3.0611    0.0067 C.2       1 <0>        -0.2122
     10 C10         2.5298    3.7587   -0.0019 C.2       1 <0>         0.5032
     11 O1          3.5650    3.1195   -0.0152 O.2       1 <0>        -0.4214
     12 O2          2.5712    5.1014    0.0045 O.3       1 <0>        -0.2809
     13 C11         1.1815    1.5911   -0.0007 C.2       1 <0>         0.4996
     14 O3          2.2097    0.9430   -0.0140 O.co2     1 <0>        -0.5995
     15 H1         -2.4330    8.4346   -0.9583 H         1 <0>         0.0694
     16 H2         -2.9185    7.6903    0.5840 H         1 <0>         0.0671
     17 H3         -1.9178    9.1623    0.5823 H         1 <0>         0.0655
     18 H4          0.4398    9.0646    0.0453 H         1 <0>         0.1332
     19 H5          2.4878    7.7139    0.0192 H         1 <0>         0.1388
     20 H6         -1.9560    5.5499    0.0498 H         1 <0>         0.1367
     21 H7         -0.8916    3.3295    0.0178 H         1 <0>         0.1572
     22 O4         -0.0110    0.9628    0.0073 O.co2     1 <0>        -0.7492
@<TRIPOS>BOND
     1    1    2 1
     2    1   15 1
     3    1   16 1
     4    1   17 1
     5    2    7 ar
     6    2    3 ar
     7    3    4 ar
     8    3   18 1
     9    4    5 ar
    10    4   19 1
    11    5   12 1
    12    5    6 ar
    13    6    7 ar
    14    6    8 1
    15    7   20 1
    16    8    9 2
    17    8   21 1
    18    9   10 1
    19    9   13 1
    20   10   11 2
    21   10   12 1
    22   13   14 2
    23   13   22 1
@<TRIPOS>MOLECULE
ZINC00007673
   36    36     0     0     0
SMALL
USER_CHARGES
2-acetylamino-N-benzyl-3-methoxy-propanamide
@<TRIPOS>ATOM
      1 C1          2.4620    0.9199   -0.0165 C.3       1 <0>        -0.1732
      2 C2          1.1468    1.6555   -0.0000 C.2       1 <0>         0.5157
      3 O1          1.1304    2.8682    0.0067 O.2       1 <0>        -0.5493
      4 N1         -0.0111    0.9658    0.0074 N.am      1 <0>        -0.7083
      5 C3         -1.2896    1.6810    0.0173 C.3       1 <0>         0.1310
      6 H1         -1.1985    2.5963   -0.5676 H         1 <0>         0.1287
      7 C4         -1.6665    2.0319    1.4580 C.3       1 <0>         0.0518
      8 O2         -1.8997    0.8303    2.1955 O.3       1 <0>        -0.3837
      9 C5         -2.2603    1.0472    3.5611 C.3       1 <0>         0.0319
     10 C6         -2.3595    0.8057   -0.5829 C.2       1 <0>         0.5232
     11 O3         -2.0814   -0.3061   -0.9798 O.2       1 <0>        -0.5278
     12 N2         -3.6254    1.2583   -0.6785 N.am      1 <0>        -0.7204
     13 C7         -4.6655    0.4074   -1.2619 C.3       1 <0>         0.1634
     14 C8         -5.9806    1.1431   -1.2517 C.ar      1 <0>        -0.1131
     15 C9         -6.8282    1.0286   -0.1657 C.ar      1 <0>        -0.0996
     16 C10        -8.0323    1.7076   -0.1540 C.ar      1 <0>        -0.1216
     17 C11        -8.3936    2.4925   -1.2331 C.ar      1 <0>        -0.1101
     18 C12        -7.5486    2.6024   -2.3215 C.ar      1 <0>        -0.1213
     19 C13        -6.3420    1.9279   -2.3307 C.ar      1 <0>        -0.1002
     20 H2          2.5197    0.2988   -0.9104 H         1 <0>         0.0912
     21 H3          3.2807    1.6394   -0.0205 H         1 <0>         0.0948
     22 H4          2.5367    0.2893    0.8694 H         1 <0>         0.0907
     23 H5          0.0021   -0.0041    0.0020 H         1 <0>         0.4151
     24 H6         -0.8527    2.5901    1.9208 H         1 <0>         0.0698
     25 H7         -2.5710    2.6402    1.4591 H         1 <0>         0.0632
     26 H8         -3.1771    1.6351    3.6059 H         1 <0>         0.0426
     27 H9         -2.4202    0.0870    4.0516 H         1 <0>         0.0886
     28 H10        -1.4588    1.5850    4.0676 H         1 <0>         0.0432
     29 H11        -3.8478    2.1475   -0.3610 H         1 <0>         0.4023
     30 H12        -4.3970    0.1574   -2.2883 H         1 <0>         0.0786
     31 H13        -4.7565   -0.5078   -0.6770 H         1 <0>         0.0794
     32 H14        -6.5479    0.4118    0.6754 H         1 <0>         0.1243
     33 H15        -8.6923    1.6219    0.6965 H         1 <0>         0.1250
     34 H16        -9.3360    3.0200   -1.2255 H         1 <0>         0.1243
     35 H17        -7.8309    3.2156   -3.1645 H         1 <0>         0.1253
     36 H18        -5.6818    2.0139   -3.1811 H         1 <0>         0.1245
@<TRIPOS>BOND
     1    1    2 1
     2    1   20 1
     3    1   21 1
     4    1   22 1
     5    2    3 2
     6    2    4 am
     7    4    5 1
     8    4   23 1
     9    5    6 1
    10    5    7 1
    11    5   10 1
    12    7    8 1
    13    7   24 1
    14    7   25 1
    15    8    9 1
    16    9   26 1
    17    9   27 1
    18    9   28 1
    19   10   11 2
    20   10   12 am
    21   12   13 1
    22   12   29 1
    23   13   14 1
    24   13   30 1
    25   13   31 1
    26   14   19 ar
    27   14   15 ar
    28   15   16 ar
    29   15   32 1
    30   16   17 ar
    31   16   33 1
    32   17   18 ar
    33   17   34 1
    34   18   19 ar
    35   18   35 1
    36   19   36 1
