@<TRIPOS>MOLECULE
ZINC00897234
   28    29     0     0     0
SMALL
USER_CHARGES

@<TRIPOS>ATOM
      1 C1         -0.0166    1.3759    0.0096 C.ar      1 <0>        -0.1949
      2 C2          1.1783    2.0936    0.0021 C.ar      1 <0>         0.3458
      3 C3          2.3808    1.4000   -0.0226 C.ar      1 <0>        -0.7434
      4 C4          2.3964    0.0207   -0.0201 C.ar      1 <0>         0.1333
      5 C5          1.2072   -0.6851   -0.0088 C.ar      1 <0>        -0.7302
      6 C6          0.0021   -0.0041    0.0020 C.ar      1 <0>         0.1337
      7 Cl1        -1.4913   -0.8891    0.0060 Cl        1 <0>        -0.0137
      8 S1          1.2260   -2.4470   -0.0082 S.o2      1 <0>         2.7016
      9 O1          0.3250   -2.8631   -1.0253 O.2       1 <0>        -0.9417
     10 O2          2.5919   -2.8386    0.0064 O.2       1 <0>        -0.9529
     11 N1          0.5759   -2.9431    1.4318 N.pl3     1 <0>        -1.2432
     12 S2          3.9028    2.2971   -0.0763 S.o2      1 <0>         2.6801
     13 O3          4.3733    2.2366   -1.4158 O.2       1 <0>        -0.9287
     14 O4          4.6796    1.8636    1.0318 O.2       1 <0>        -0.9302
     15 N2          3.4725    3.8817    0.2181 N.pl3     1 <0>        -1.1055
     16 C7          2.2211    4.3393   -0.4192 C.3       1 <0>         0.3697
     17 H1          2.0212    5.3718   -0.1326 H         1 <0>         0.1559
     18 N3          1.1259    3.4846    0.0324 N.pl3     1 <0>        -0.7331
     19 C8          2.3558    4.2457   -1.9404 C.3       1 <0>         0.0047
     20 Cl2         0.8266    4.8050   -2.7146 Cl        1 <0>        -0.1025
     21 Cl3         3.7224    5.2867   -2.4879 Cl        1 <0>        -0.0892
     22 H2         -0.9601    1.9014    0.0260 H         1 <0>         0.1584
     23 H3          3.3379   -0.5083   -0.0273 H         1 <0>         0.1669
     24 H4          0.0997   -3.7866    1.4840 H         1 <0>         0.4253
     25 H5          0.6713   -2.3902    2.2231 H         1 <0>         0.4183
     26 H6          4.0112    4.4668    0.7734 H         1 <0>         0.4414
     27 H7          0.3211    3.9077    0.3703 H         1 <0>         0.4286
     28 H8          2.5501    3.2117   -2.2250 H         1 <0>         0.1453
@<TRIPOS>BOND
     1    1    6 ar
     2    1    2 ar
     3    1   22 1
     4    2   18 1
     5    2    3 ar
     6    3    4 ar
     7    3   12 1
     8    4    5 ar
     9    4   23 1
    10    5    6 ar
    11    5    8 1
    12    6    7 1
    13    8    9 2
    14    8   10 2
    15    8   11 1
    16   11   24 1
    17   11   25 1
    18   12   13 2
    19   12   14 2
    20   12   15 1
    21   15   16 1
    22   15   26 1
    23   16   17 1
    24   16   18 1
    25   16   19 1
    26   18   27 1
    27   19   20 1
    28   19   21 1
    29   19   28 1
@<TRIPOS>MOLECULE
ZINC00897234
   27    28     0     0     0
SMALL
USER_CHARGES

@<TRIPOS>ATOM
      1 C1         -0.0166    1.3759    0.0096 C.ar      1 <0>        -0.2182
      2 C2          1.1783    2.0936    0.0021 C.ar      1 <0>         0.3666
      3 C3          2.3810    1.3999   -0.0038 C.ar      1 <0>        -0.7297
      4 C4          2.3964    0.0208   -0.0214 C.ar      1 <0>         0.1173
      5 C5          1.2071   -0.6851   -0.0176 C.ar      1 <0>        -0.7492
      6 C6          0.0021   -0.0041    0.0020 C.ar      1 <0>         0.1156
      7 Cl1        -1.4912   -0.8892    0.0171 Cl        1 <0>        -0.0510
      8 S1          1.2257   -2.4469   -0.0375 S.o2      1 <0>         2.7044
      9 O1          0.3240   -2.8510   -1.0587 O.2       1 <0>        -0.9572
     10 O2          2.5915   -2.8387   -0.0283 O.2       1 <0>        -0.9676
     11 N1          0.5765   -2.9596    1.3971 N.pl3     1 <0>        -1.2491
     12 S2          3.9039    2.2965    0.0305 S.o2      1 <0>         2.5613
     13 O3          4.6586    1.8762   -1.0977 O.2       1 <0>        -0.9938
     14 O4          4.4006    2.2204    1.3597 O.2       1 <0>        -1.0319
     15 N2          3.4681    3.8842   -0.2385 N.2       1 <0>        -1.0605
     16 C7          2.2292    4.3347    0.4274 C.3       1 <0>         0.3386
     17 H1          2.3449    4.2538    1.5082 H         1 <0>         0.0643
     18 N3          1.1255    3.4848   -0.0123 N.pl3     1 <0>        -0.7365
     19 C8          1.9433    5.7895    0.0494 C.3       1 <0>         0.0974
     20 Cl2         3.3189    6.8290    0.5766 Cl        1 <0>        -0.1226
     21 Cl3         1.7435    5.9179   -1.7379 Cl        1 <0>        -0.1352
     22 H2         -0.9601    1.9014    0.0260 H         1 <0>         0.1407
     23 H3          3.3378   -0.5082   -0.0387 H         1 <0>         0.1498
     24 H4          0.2752   -2.3110    2.0524 H         1 <0>         0.4155
     25 H5          0.4976   -3.9085    1.5821 H         1 <0>         0.4179
     26 H6          0.3146    3.9114   -0.3308 H         1 <0>         0.3923
     27 H7          1.0287    6.1198    0.5419 H         1 <0>         0.1210
@<TRIPOS>BOND
     1    1    6 ar
     2    1    2 ar
     3    1   22 1
     4    2   18 1
     5    2    3 ar
     6    3    4 ar
     7    3   12 1
     8    4    5 ar
     9    4   23 1
    10    5    6 ar
    11    5    8 1
    12    6    7 1
    13    8    9 2
    14    8   10 2
    15    8   11 1
    16   11   24 1
    17   11   25 1
    18   12   13 2
    19   12   14 2
    20   12   15 1
    21   15   16 1
    22   16   17 1
    23   16   18 1
    24   16   19 1
    25   18   26 1
    26   19   20 1
    27   19   21 1
    28   19   27 1
@<TRIPOS>MOLECULE
ZINC00897236
   28    29     0     0     0
SMALL
USER_CHARGES

@<TRIPOS>ATOM
      1 C1         -0.0880    1.4298    0.0212 C.ar      1 <0>        -0.1953
      2 C2          1.1239    2.1185    0.0097 C.ar      1 <0>         0.3454
      3 C3          2.3095    1.3960    0.0037 C.ar      1 <0>        -0.7433
      4 C4          2.2916    0.0168   -0.0104 C.ar      1 <0>         0.1334
      5 C5          1.0857   -0.6601   -0.0027 C.ar      1 <0>        -0.7301
      6 C6         -0.1025    0.0498    0.0172 C.ar      1 <0>         0.1339
      7 Cl1        -1.6167   -0.7991    0.0372 Cl        1 <0>        -0.0139
      8 S1          1.0618   -2.4219   -0.0180 S.o2      1 <0>         2.7020
      9 O1          0.1489   -2.8068   -1.0366 O.2       1 <0>        -0.9422
     10 O2          2.4179   -2.8465   -0.0101 O.2       1 <0>        -0.9529
     11 N1          0.4031   -2.9152    1.4190 N.pl3     1 <0>        -1.2432
     12 S2          3.8536    2.2557    0.0330 S.o2      1 <0>         2.6800
     13 O3          4.5960    1.8145   -1.0954 O.2       1 <0>        -0.9299
     14 O4          4.3507    2.1711    1.3615 O.2       1 <0>        -0.9283
     15 N2          3.4557    3.8528   -0.2394 N.pl3     1 <0>        -1.1055
     16 C7          2.2292    4.3347    0.4274 C.3       1 <0>         0.3692
     17 H1          2.0485    5.3742    0.1535 H         1 <0>         0.1558
     18 N3          1.1045    3.5105   -0.0082 N.pl3     1 <0>        -0.7334
     19 C8          2.3930    4.2248    1.9447 C.3       1 <0>         0.0063
     20 Cl2         3.8576    5.1418    2.4591 Cl        1 <0>        -0.0877
     21 Cl3         0.9376    4.9117    2.7575 Cl        1 <0>        -0.1033
     22 H2         -1.0184    1.9779    0.0378 H         1 <0>         0.1583
     23 H3          3.2200   -0.5347   -0.0279 H         1 <0>         0.1669
     24 H4         -0.0932   -3.7473    1.4648 H         1 <0>         0.4254
     25 H5          0.5135   -2.3719    2.2150 H         1 <0>         0.4185
     26 H6          3.9969    4.4295   -0.8011 H         1 <0>         0.4415
     27 H7          0.3036    3.9557   -0.3264 H         1 <0>         0.4288
     28 H8          2.5040    3.1769    2.2231 H         1 <0>         0.1438
@<TRIPOS>BOND
     1    1    6 ar
     2    1    2 ar
     3    1   22 1
     4    2   18 1
     5    2    3 ar
     6    3    4 ar
     7    3   12 1
     8    4    5 ar
     9    4   23 1
    10    5    6 ar
    11    5    8 1
    12    6    7 1
    13    8    9 2
    14    8   10 2
    15    8   11 1
    16   11   24 1
    17   11   25 1
    18   12   13 2
    19   12   14 2
    20   12   15 1
    21   15   16 1
    22   15   26 1
    23   16   17 1
    24   16   18 1
    25   16   19 1
    26   18   27 1
    27   19   20 1
    28   19   21 1
    29   19   28 1
@<TRIPOS>MOLECULE
ZINC00897236
   27    28     0     0     0
SMALL
USER_CHARGES

@<TRIPOS>ATOM
      1 C1         -0.0166    1.3759    0.0096 C.ar      1 <0>        -0.2165
      2 C2          1.1783    2.0936    0.0021 C.ar      1 <0>         0.3657
      3 C3          2.3808    1.4000   -0.0226 C.ar      1 <0>        -0.7331
      4 C4          2.3964    0.0207   -0.0201 C.ar      1 <0>         0.1186
      5 C5          1.2072   -0.6851   -0.0088 C.ar      1 <0>        -0.7489
      6 C6          0.0021   -0.0041    0.0020 C.ar      1 <0>         0.1160
      7 Cl1        -1.4913   -0.8891    0.0060 Cl        1 <0>        -0.0495
      8 S1          1.2260   -2.4470   -0.0082 S.o2      1 <0>         2.7044
      9 O1          0.3250   -2.8631   -1.0253 O.2       1 <0>        -0.9569
     10 O2          2.5919   -2.8386    0.0064 O.2       1 <0>        -0.9674
     11 N1          0.5759   -2.9431    1.4318 N.pl3     1 <0>        -1.2487
     12 S2          3.9028    2.2971   -0.0763 S.o2      1 <0>         2.5709
     13 O3          4.3733    2.2366   -1.4158 O.2       1 <0>        -1.0262
     14 O4          4.6796    1.8636    1.0318 O.2       1 <0>        -0.9934
     15 N2          3.4725    3.8817    0.2181 N.2       1 <0>        -1.0786
     16 C7          2.2211    4.3393   -0.4192 C.3       1 <0>         0.3464
     17 H1          2.3161    4.2700   -1.5028 H         1 <0>         0.0596
     18 N3          1.1259    3.4846    0.0324 N.pl3     1 <0>        -0.7380
     19 C8          1.9426    5.7898   -0.0201 C.3       1 <0>         0.0996
     20 Cl2         3.3080    6.8351   -0.5623 Cl        1 <0>        -0.1137
     21 Cl3         0.4145    6.3448   -0.7998 Cl        1 <0>        -0.1689
     22 H2         -0.9601    1.9014    0.0260 H         1 <0>         0.1419
     23 H3          3.3379   -0.5083   -0.0273 H         1 <0>         0.1509
     24 H4          0.2741   -2.2870    2.0793 H         1 <0>         0.4157
     25 H5          0.4969   -3.8898    1.6277 H         1 <0>         0.4181
     26 H6          0.3211    3.9077    0.3703 H         1 <0>         0.3938
     27 H7          1.8425    5.8558    1.0633 H         1 <0>         0.1384
@<TRIPOS>BOND
     1    1    6 ar
     2    1    2 ar
     3    1   22 1
     4    2   18 1
     5    2    3 ar
     6    3    4 ar
     7    3   12 1
     8    4    5 ar
     9    4   23 1
    10    5    6 ar
    11    5    8 1
    12    6    7 1
    13    8    9 2
    14    8   10 2
    15    8   11 1
    16   11   24 1
    17   11   25 1
    18   12   13 2
    19   12   14 2
    20   12   15 1
    21   15   16 1
    22   16   17 1
    23   16   18 1
    24   16   19 1
    25   18   26 1
    26   19   20 1
    27   19   21 1
    28   19   27 1
@<TRIPOS>MOLECULE
ZINC00020253
   33    35     0     0     0
SMALL
USER_CHARGES

@<TRIPOS>ATOM
      1 C1         -0.0166    1.3752    0.0096 C.ar      1 <0>        -0.1128
      2 C2          1.1683    2.0900    0.0021 C.ar      1 <0>        -0.0853
      3 C3          2.3827    1.4248   -0.0135 C.ar      1 <0>        -0.0801
      4 C4          2.4125    0.0494   -0.0211 C.ar      1 <0>        -0.0699
      5 C5          1.2226   -0.6819   -0.0132 C.ar      1 <0>        -0.1506
      6 C6          0.0021   -0.0041    0.0020 C.ar      1 <0>        -0.0457
      7 C7          1.5619   -2.1178   -0.0242 C.2       1 <0>         0.5711
      8 O1          0.7510   -3.0233   -0.0214 O.2       1 <0>        -0.5059
      9 N1          2.8961   -2.2814   -0.0383 N.am      1 <0>        -0.7333
     10 C8          3.5334   -0.9597   -0.0376 C.3       1 <0>         0.4302
     11 C9          4.3679   -0.7865   -1.2804 C.ar      1 <0>        -0.1501
     12 C10         4.0419   -1.4766   -2.4333 C.ar      1 <0>        -0.0234
     13 C11         4.8071   -1.3185   -3.5732 C.ar      1 <0>        -0.1256
     14 C12         5.8993   -0.4690   -3.5607 C.ar      1 <0>         0.0634
     15 C13         6.2246    0.2215   -2.4071 C.ar      1 <0>        -0.6749
     16 C14         5.4554    0.0665   -1.2690 C.ar      1 <0>         0.0181
     17 S1          7.6152    1.3034   -2.3902 S.o2      1 <0>         2.6988
     18 O2          7.5000    2.1308   -3.5397 O.2       1 <0>        -0.9422
     19 O3          7.7008    1.8343   -1.0749 O.2       1 <0>        -0.9520
     20 N2          8.9647    0.3697   -2.6124 N.pl3     1 <0>        -1.2428
     21 Cl1         6.8613   -0.2704   -4.9921 Cl        1 <0>        -0.0261
     22 O4          4.3479   -0.8079    1.1267 O.3       1 <0>        -0.5328
     23 H1         -0.9606    1.8997    0.0259 H         1 <0>         0.1398
     24 H2          1.1458    3.1698    0.0081 H         1 <0>         0.1405
     25 H3          3.3058    1.9854   -0.0200 H         1 <0>         0.1355
     26 H4         -0.9249   -0.5581    0.0082 H         1 <0>         0.1386
     27 H5          3.3608   -3.1327   -0.0474 H         1 <0>         0.4250
     28 H6          3.1894   -2.1396   -2.4430 H         1 <0>         0.1437
     29 H7          4.5528   -1.8582   -4.4735 H         1 <0>         0.1513
     30 H8          5.7069    0.6087   -0.3694 H         1 <0>         0.1653
     31 H9          9.7436    0.7408   -3.0557 H         1 <0>         0.4253
     32 H10         8.9763   -0.5484   -2.2994 H         1 <0>         0.4177
     33 H11         5.0869   -1.4298    1.1735 H         1 <0>         0.3890
@<TRIPOS>BOND
     1    1    6 ar
     2    1    2 ar
     3    1   23 1
     4    2    3 ar
     5    2   24 1
     6    3    4 ar
     7    3   25 1
     8    4   10 1
     9    4    5 ar
    10    5    6 ar
    11    5    7 1
    12    6   26 1
    13    7    8 2
    14    7    9 am
    15    9   10 1
    16    9   27 1
    17   10   11 1
    18   10   22 1
    19   11   16 ar
    20   11   12 ar
    21   12   13 ar
    22   12   28 1
    23   13   14 ar
    24   13   29 1
    25   14   15 ar
    26   14   21 1
    27   15   16 ar
    28   15   17 1
    29   16   30 1
    30   17   18 2
    31   17   19 2
    32   17   20 1
    33   20   31 1
    34   20   32 1
    35   22   33 1
@<TRIPOS>MOLECULE
ZINC00057255
   33    35     0     0     0
SMALL
USER_CHARGES

@<TRIPOS>ATOM
      1 C1         -0.0166    1.3752    0.0096 C.ar      1 <0>        -0.1124
      2 C2          1.1683    2.0900    0.0021 C.ar      1 <0>        -0.0872
      3 C3          2.3827    1.4248   -0.0135 C.ar      1 <0>        -0.0799
      4 C4          2.4125    0.0494   -0.0211 C.ar      1 <0>        -0.0709
      5 C5          1.2226   -0.6819   -0.0132 C.ar      1 <0>        -0.1485
      6 C6          0.0021   -0.0041    0.0020 C.ar      1 <0>        -0.0451
      7 C7          1.5619   -2.1178   -0.0242 C.2       1 <0>         0.5701
      8 O1          0.7510   -3.0233   -0.0214 O.2       1 <0>        -0.5012
      9 N1          2.8961   -2.2814   -0.0383 N.am      1 <0>        -0.7354
     10 C8          3.5334   -0.9597   -0.0376 C.3       1 <0>         0.4314
     11 C9          4.3923   -0.7996    1.1903 C.ar      1 <0>        -0.1506
     12 C10         5.4128    0.1332    1.2029 C.ar      1 <0>        -0.0205
     13 C11         6.2011    0.2801    2.3284 C.ar      1 <0>        -0.1261
     14 C12         5.9687   -0.5063    3.4430 C.ar      1 <0>         0.0632
     15 C13         4.9474   -1.4391    3.4299 C.ar      1 <0>        -0.6746
     16 C14         4.1561   -1.5815    2.3053 C.ar      1 <0>         0.0154
     17 S1          4.6507   -2.4410    4.8487 S.o2      1 <0>         2.6964
     18 O2          4.6097   -1.5625    5.9648 O.2       1 <0>        -0.9417
     19 O3          3.5710   -3.3036    4.5181 O.2       1 <0>        -0.9518
     20 N2          5.9812   -3.4053    5.0540 N.pl3     1 <0>        -1.2423
     21 Cl1         6.9590   -0.3227    4.8570 Cl        1 <0>        -0.0262
     22 O4          4.3247   -0.7954   -1.2161 O.3       1 <0>        -0.5339
     23 H1         -0.9606    1.8997    0.0259 H         1 <0>         0.1399
     24 H2          1.1458    3.1698    0.0081 H         1 <0>         0.1395
     25 H3          3.3058    1.9854   -0.0200 H         1 <0>         0.1335
     26 H4         -0.9249   -0.5581    0.0082 H         1 <0>         0.1396
     27 H5          3.3608   -3.1327   -0.0474 H         1 <0>         0.4257
     28 H6          5.5941    0.7469    0.3329 H         1 <0>         0.1533
     29 H7          6.9986    1.0083    2.3379 H         1 <0>         0.1528
     30 H8          3.3561   -2.3069    2.2964 H         1 <0>         0.1557
     31 H9          6.2370   -3.6960    5.9434 H         1 <0>         0.4254
     32 H10         6.5049   -3.6794    4.2849 H         1 <0>         0.4175
     33 H11         5.0625   -1.4167   -1.2841 H         1 <0>         0.3885
@<TRIPOS>BOND
     1    1    6 ar
     2    1    2 ar
     3    1   23 1
     4    2    3 ar
     5    2   24 1
     6    3    4 ar
     7    3   25 1
     8    4   10 1
     9    4    5 ar
    10    5    6 ar
    11    5    7 1
    12    6   26 1
    13    7    8 2
    14    7    9 am
    15    9   10 1
    16    9   27 1
    17   10   11 1
    18   10   22 1
    19   11   16 ar
    20   11   12 ar
    21   12   13 ar
    22   12   28 1
    23   13   14 ar
    24   13   29 1
    25   14   15 ar
    26   14   21 1
    27   15   16 ar
    28   15   17 1
    29   16   30 1
    30   17   18 2
    31   17   19 2
    32   17   20 1
    33   20   31 1
    34   20   32 1
    35   22   33 1
@<TRIPOS>MOLECULE
ZINC03633221
   18    17     0     0     0
SMALL
USER_CHARGES

@<TRIPOS>ATOM
      1 C1         -0.0187    1.5258    0.0104 C.3       1 <0>        -0.1585
      2 C2          0.0021   -0.0041    0.0020 C.3       1 <0>         0.1003
      3 N1          0.6878   -0.4765   -1.2033 N.pl3     1 <0>        -0.5609
      4 C3          2.1353   -0.7012   -1.1821 C.3       1 <0>         0.1003
      5 C4          2.4212   -2.1448   -0.7635 C.3       1 <0>        -0.1585
      6 C5         -0.0130   -0.7045   -2.3317 C.2       1 <0>         0.4678
      7 S1         -1.6789   -0.4459   -2.3562 S.2       1 <0>        -0.7328
      8 S2          0.7761   -1.2482   -3.7189 S.3       1 <0>        -0.7328
      9 H1          1.0039    1.9031    0.0027 H         1 <0>         0.0448
     10 H2         -0.5459    1.8868   -0.8726 H         1 <0>         0.0672
     11 H3         -0.5289    1.8773    0.9072 H         1 <0>         0.0599
     12 H4          0.5293   -0.3651    0.8851 H         1 <0>         0.0636
     13 H5         -1.0205   -0.3814    0.0098 H         1 <0>         0.1022
     14 H6          2.5453   -0.5232   -2.1762 H         1 <0>         0.1022
     15 H7          2.5986   -0.0180   -0.4703 H         1 <0>         0.0636
     16 H8          1.9579   -2.8280   -1.4752 H         1 <0>         0.0672
     17 H9          3.4982   -2.3119   -0.7477 H         1 <0>         0.0599
     18 H10         2.0113   -2.3228    0.2307 H         1 <0>         0.0448
@<TRIPOS>BOND
     1    1    2 1
     2    1    9 1
     3    1   10 1
     4    1   11 1
     5    2    3 1
     6    2   12 1
     7    2   13 1
     8    3    4 1
     9    3    6 1
    10    4    5 1
    11    4   14 1
    12    4   15 1
    13    5   16 1
    14    5   17 1
    15    5   18 1
    16    6    7 2
    17    6    8 1
@<TRIPOS>MOLECULE
ZINC13471981
   42    42     0     0     0
SMALL
USER_CHARGES

@<TRIPOS>ATOM
      1 C1         -0.1460    1.0997   -0.0644 C.3       1 <0>        -0.1539
      2 C2         -0.2307   -0.4247   -0.1640 C.3       1 <0>        -0.1250
      3 C3          0.2414   -0.8722   -1.5488 C.3       1 <0>        -0.1056
      4 C4          0.1568   -2.3966   -1.6485 C.3       1 <0>        -0.1038
      5 C5         -1.3069   -2.8331   -1.5592 C.3       1 <0>        -0.1122
      6 C6         -2.0823   -2.2638   -2.7491 C.3       1 <0>        -0.1309
      7 C7         -3.5082   -2.8186   -2.7411 C.3       1 <0>        -0.1524
      8 C8          0.7359   -2.8469   -2.9649 C.2       1 <0>         0.5244
      9 O1          0.7678   -2.0829   -3.9064 O.2       1 <0>        -0.5049
     10 N1          1.2183   -4.0985   -3.0960 N.am      1 <0>        -0.6776
     11 C9          1.6561   -4.5525   -4.3457 C.ar      1 <0>         0.2186
     12 C10         2.3541   -3.6998   -5.1904 C.ar      1 <0>        -0.1292
     13 C11         2.7852   -4.1507   -6.4226 C.ar      1 <0>         0.0068
     14 C12         2.5222   -5.4501   -6.8163 C.ar      1 <0>        -0.6833
     15 C13         1.8274   -6.3025   -5.9782 C.ar      1 <0>         0.0107
     16 C14         1.3981   -5.8593   -4.7413 C.ar      1 <0>        -0.0877
     17 Cl1         0.5320   -6.9320   -3.6862 Cl        1 <0>        -0.0479
     18 S1          3.0732   -6.0204   -8.3897 S.o2      1 <0>         2.7053
     19 O2          2.2280   -7.1054   -8.7472 O.2       1 <0>        -0.9586
     20 O3          3.2230   -4.8693   -9.2093 O.2       1 <0>        -0.9574
     21 N2          4.5896   -6.6515   -8.1783 N.pl3     1 <0>        -1.2490
     22 H1          0.8856    1.4171   -0.2166 H         1 <0>         0.0544
     23 H2         -0.7810    1.5496   -0.8276 H         1 <0>         0.0554
     24 H3         -0.4824    1.4186    0.9222 H         1 <0>         0.0557
     25 H4          0.4043   -0.8745    0.5993 H         1 <0>         0.0622
     26 H5         -1.2623   -0.7420   -0.0117 H         1 <0>         0.0666
     27 H6         -0.3935   -0.4224   -2.3121 H         1 <0>         0.0800
     28 H7          1.2730   -0.5549   -1.7011 H         1 <0>         0.0670
     29 H8          0.7204   -2.8460   -0.8309 H         1 <0>         0.0966
     30 H9         -1.3632   -3.9215   -1.5761 H         1 <0>         0.0678
     31 H10        -1.7411   -2.4611   -0.6312 H         1 <0>         0.0843
     32 H11        -2.1149   -1.1768   -2.6749 H         1 <0>         0.0695
     33 H12        -1.5863   -2.5500   -3.6765 H         1 <0>         0.0629
     34 H13        -4.0606   -2.4130   -3.5887 H         1 <0>         0.0557
     35 H14        -3.4755   -3.9055   -2.8152 H         1 <0>         0.0527
     36 H15        -4.0042   -2.5323   -1.8137 H         1 <0>         0.0551
     37 H16         1.2621   -4.6847   -2.3244 H         1 <0>         0.4175
     38 H17         2.5595   -2.6846   -4.8842 H         1 <0>         0.1566
     39 H18         3.3282   -3.4876   -7.0797 H         1 <0>         0.1551
     40 H19         1.6233   -7.3165   -6.2887 H         1 <0>         0.1585
     41 H20         4.9968   -6.6507   -7.2979 H         1 <0>         0.4172
     42 H21         5.0706   -7.0218   -8.9348 H         1 <0>         0.4228
@<TRIPOS>BOND
     1    1    2 1
     2    1   22 1
     3    1   23 1
     4    1   24 1
     5    2    3 1
     6    2   25 1
     7    2   26 1
     8    3    4 1
     9    3   27 1
    10    3   28 1
    11    4    5 1
    12    4    8 1
    13    4   29 1
    14    5    6 1
    15    5   30 1
    16    5   31 1
    17    6    7 1
    18    6   32 1
    19    6   33 1
    20    7   34 1
    21    7   35 1
    22    7   36 1
    23    8    9 2
    24    8   10 am
    25   10   11 1
    26   10   37 1
    27   11   16 ar
    28   11   12 ar
    29   12   13 ar
    30   12   38 1
    31   13   14 ar
    32   13   39 1
    33   14   15 ar
    34   14   18 1
    35   15   16 ar
    36   15   40 1
    37   16   17 1
    38   18   19 2
    39   18   20 2
    40   18   21 1
    41   21   41 1
    42   21   42 1
@<TRIPOS>MOLECULE
ZINC01590053
   27    26     0     0     0
SMALL
USER_CHARGES
2-ethylhexanamide
@<TRIPOS>ATOM
      1 C1          1.3532    4.6519    5.4037 C.3       1 <0>        -0.1537
      2 C2          0.3468    5.0066    4.3073 C.3       1 <0>        -0.1259
      3 C3          0.2953    3.8764    3.2773 C.3       1 <0>        -0.1205
      4 C4         -0.7111    4.2311    2.1808 C.3       1 <0>        -0.1073
      5 C5         -0.7626    3.1009    1.1508 C.3       1 <0>        -0.1083
      6 H1          0.2414    2.9075    0.7732 H         1 <0>         0.0895
      7 C6         -1.3122    1.8345    1.8104 C.3       1 <0>        -0.1122
      8 C7         -2.6827    2.1317    2.4221 C.3       1 <0>        -0.1613
      9 C8         -1.6601    3.5026    0.0088 C.2       1 <0>         0.5208
     10 O1         -2.5763    4.2740    0.1999 O.2       1 <0>        -0.5389
     11 N1         -1.4447    3.0045   -1.2249 N.am      1 <0>        -0.8585
     12 H2          1.3899    5.4571    6.1375 H         1 <0>         0.0538
     13 H3          1.0463    3.7277    5.8935 H         1 <0>         0.0535
     14 H4          2.3404    4.5182    4.9614 H         1 <0>         0.0531
     15 H5          0.6537    5.9308    3.8176 H         1 <0>         0.0610
     16 H6         -0.6403    5.1403    4.7497 H         1 <0>         0.0620
     17 H7         -0.0116    2.9523    3.7670 H         1 <0>         0.0659
     18 H8          1.2825    3.7427    2.8349 H         1 <0>         0.0613
     19 H9         -0.4042    5.1553    1.6911 H         1 <0>         0.0640
     20 H10        -1.6983    4.3648    2.6232 H         1 <0>         0.0796
     21 H11        -0.6283    1.5064    2.5932 H         1 <0>         0.0778
     22 H12        -1.4112    1.0486    1.0616 H         1 <0>         0.0644
     23 H13        -3.1238    1.2062    2.7923 H         1 <0>         0.0549
     24 H14        -3.3331    2.5659    1.6628 H         1 <0>         0.0614
     25 H15        -2.5676    2.8347    3.2471 H         1 <0>         0.0614
     26 H16        -0.6686    2.4480   -1.3945 H         1 <0>         0.4012
     27 H17        -2.0658    3.2027   -1.9431 H         1 <0>         0.4008
@<TRIPOS>BOND
     1    1    2 1
     2    1   12 1
     3    1   13 1
     4    1   14 1
     5    2    3 1
     6    2   15 1
     7    2   16 1
     8    3    4 1
     9    3   17 1
    10    3   18 1
    11    4    5 1
    12    4   19 1
    13    4   20 1
    14    5    6 1
    15    5    7 1
    16    5    9 1
    17    7    8 1
    18    7   21 1
    19    7   22 1
    20    8   23 1
    21    8   24 1
    22    8   25 1
    23    9   10 2
    24    9   11 am
    25   11   26 1
    26   11   27 1
@<TRIPOS>MOLECULE
ZINC02038048
   27    26     0     0     0
SMALL
USER_CHARGES
2-ethylhexanamide
@<TRIPOS>ATOM
      1 C1          0.1610   -2.2624   -2.0844 C.3       1 <0>        -0.1532
      2 C2          0.2867   -0.7552   -1.8526 C.3       1 <0>        -0.1226
      3 C3         -0.2287   -0.4095   -0.4542 C.3       1 <0>        -0.1269
      4 C4         -0.1030    1.0976   -0.2224 C.3       1 <0>        -0.1026
      5 C5         -0.7349    1.4612    1.1227 C.3       1 <0>        -0.1105
      6 H1         -1.7547    1.0783    1.1604 H         1 <0>         0.0979
      7 C6         -0.7551    2.9827    1.2820 C.3       1 <0>        -0.1163
      8 C7         -1.6909    3.5926    0.2364 C.3       1 <0>        -0.1542
      9 C8          0.0727    0.8500    2.2387 C.2       1 <0>         0.5191
     10 O1          1.0567    0.1887    1.9833 O.2       1 <0>        -0.5368
     11 N1         -0.2986    1.0383    3.5205 N.am      1 <0>        -0.8580
     12 H2          0.5282   -2.5086   -3.0807 H         1 <0>         0.0527
     13 H3          0.7502   -2.7951   -1.3380 H         1 <0>         0.0538
     14 H4         -0.8850   -2.5570   -1.9995 H         1 <0>         0.0519
     15 H5         -0.3025   -0.2225   -2.5990 H         1 <0>         0.0578
     16 H6          1.3327   -0.4606   -1.9374 H         1 <0>         0.0608
     17 H7          0.3605   -0.9423    0.2922 H         1 <0>         0.0787
     18 H8         -1.2747   -0.7042   -0.3693 H         1 <0>         0.0542
     19 H9          0.9504    1.3777   -0.2166 H         1 <0>         0.0703
     20 H10        -0.6167    1.6321   -1.0215 H         1 <0>         0.0712
     21 H11        -1.1097    3.2389    2.2804 H         1 <0>         0.0656
     22 H12         0.2517    3.3761    1.1420 H         1 <0>         0.0692
     23 H13        -1.7768    4.6656    0.4075 H         1 <0>         0.0586
     24 H14        -1.2871    3.4148   -0.7603 H         1 <0>         0.0605
     25 H15        -2.6754    3.1318    0.3171 H         1 <0>         0.0571
     26 H16        -1.0856    1.5672    3.7248 H         1 <0>         0.4007
     27 H17         0.2212    0.6449    4.2388 H         1 <0>         0.4010
@<TRIPOS>BOND
     1    1    2 1
     2    1   12 1
     3    1   13 1
     4    1   14 1
     5    2    3 1
     6    2   15 1
     7    2   16 1
     8    3    4 1
     9    3   17 1
    10    3   18 1
    11    4    5 1
    12    4   19 1
    13    4   20 1
    14    5    6 1
    15    5    7 1
    16    5    9 1
    17    7    8 1
    18    7   21 1
    19    7   22 1
    20    8   23 1
    21    8   24 1
    22    8   25 1
    23    9   10 2
    24    9   11 am
    25   11   26 1
    26   11   27 1
@<TRIPOS>MOLECULE
ZINC00464036
   42    42     0     0     0
SMALL
USER_CHARGES

@<TRIPOS>ATOM
      1 C1         -0.2247    1.4384    0.0273 C.3       1 <0>        -0.1543
      2 C2         -0.0343   -0.0794   -0.0018 C.3       1 <0>        -0.1159
      3 C3          0.8488   -0.5052    1.1728 C.3       1 <0>        -0.1085
      4 C4          0.1159   -0.2311    2.4876 C.3       1 <0>        -0.1059
      5 C5          1.0571   -0.5036    3.6626 C.3       1 <0>        -0.1591
      6 C6          1.1530   -1.9772    1.0648 C.2       1 <0>         0.5177
      7 O1          0.8167   -2.7327    1.9520 O.2       1 <0>        -0.5311
      8 N1          1.7988   -2.4542   -0.0178 N.am      1 <0>        -0.7346
      9 C7          2.0945   -3.8852   -0.1228 C.3       1 <0>         0.1246
     10 C8          2.8274   -4.1594   -1.4375 C.3       1 <0>        -0.1021
     11 C9          3.1316   -5.6314   -1.5456 C.ar      1 <0>        -0.0220
     12 C10         4.3181   -6.1308   -1.0419 C.ar      1 <0>        -0.1348
     13 C11         4.5972   -7.4810   -1.1410 C.ar      1 <0>        -0.0148
     14 C12         3.6895   -8.3320   -1.7434 C.ar      1 <0>        -0.6772
     15 C13         2.5026   -7.8328   -2.2463 C.ar      1 <0>        -0.0148
     16 C14         2.2217   -6.4832   -2.1434 C.ar      1 <0>        -0.1348
     17 S1          4.0457  -10.0529   -1.8707 S.o2      1 <0>         2.7015
     18 O2          3.2807  -10.5463   -2.9618 O.2       1 <0>        -0.9626
     19 O3          5.4598  -10.1804   -1.8124 O.2       1 <0>        -0.9626
     20 N2          3.4485  -10.7787   -0.5073 N.pl3     1 <0>        -1.2498
     21 H1          0.7498    1.9266    0.0407 H         1 <0>         0.0572
     22 H2         -0.7762    1.7525   -0.8589 H         1 <0>         0.0588
     23 H3         -0.7832    1.7175    0.9207 H         1 <0>         0.0605
     24 H4         -1.0050   -0.5689    0.0773 H         1 <0>         0.0692
     25 H5          0.4429   -0.3678   -0.9384 H         1 <0>         0.0650
     26 H6          1.7801    0.0608    1.1511 H         1 <0>         0.0980
     27 H7         -0.2061    0.8100    2.5138 H         1 <0>         0.0711
     28 H8         -0.7549   -0.8826    2.5608 H         1 <0>         0.0700
     29 H9          1.3063   -1.5644    3.6900 H         1 <0>         0.0700
     30 H10         1.9691    0.0808    3.5408 H         1 <0>         0.0476
     31 H11         0.5665   -0.2215    4.5941 H         1 <0>         0.0539
     32 H12         2.0678   -1.8500   -0.7274 H         1 <0>         0.4013
     33 H13         2.7236   -4.1886    0.7140 H         1 <0>         0.0713
     34 H14         1.1632   -4.4512   -0.1011 H         1 <0>         0.0714
     35 H15         2.1983   -3.8560   -2.2744 H         1 <0>         0.0875
     36 H16         3.7587   -3.5934   -1.4592 H         1 <0>         0.0875
     37 H17         5.0273   -5.4659   -0.5712 H         1 <0>         0.1358
     38 H18         5.5245   -7.8711   -0.7480 H         1 <0>         0.1451
     39 H19         1.7936   -8.4976   -2.7172 H         1 <0>         0.1451
     40 H20         1.2927   -6.0937   -2.5329 H         1 <0>         0.1358
     41 H21         3.0020  -10.2464    0.1696 H         1 <0>         0.4171
     42 H22         3.5451  -11.7362   -0.3857 H         1 <0>         0.4219
@<TRIPOS>BOND
     1    1    2 1
     2    1   21 1
     3    1   22 1
     4    1   23 1
     5    2    3 1
     6    2   24 1
     7    2   25 1
     8    3    4 1
     9    3    6 1
    10    3   26 1
    11    4    5 1
    12    4   27 1
    13    4   28 1
    14    5   29 1
    15    5   30 1
    16    5   31 1
    17    6    7 2
    18    6    8 am
    19    8    9 1
    20    8   32 1
    21    9   10 1
    22    9   33 1
    23    9   34 1
    24   10   11 1
    25   10   35 1
    26   10   36 1
    27   11   16 ar
    28   11   12 ar
    29   12   13 ar
    30   12   37 1
    31   13   14 ar
    32   13   38 1
    33   14   15 ar
    34   14   17 1
    35   15   16 ar
    36   15   39 1
    37   16   40 1
    38   17   18 2
    39   17   19 2
    40   17   20 1
    41   20   41 1
    42   20   42 1
@<TRIPOS>MOLECULE
ZINC00475326
   36    36     0     0     0
SMALL
USER_CHARGES

@<TRIPOS>ATOM
      1 C1          0.4119    0.9009    0.1897 C.3       1 <0>        -0.1543
      2 C2          0.0243   -0.5368    0.5415 C.3       1 <0>        -0.1114
      3 C3          0.2609   -0.7781    2.0338 C.3       1 <0>        -0.1032
      4 C4         -0.6837    0.1068    2.8495 C.3       1 <0>        -0.1138
      5 C5         -2.1331   -0.2732    2.5402 C.3       1 <0>        -0.1644
      6 C6         -0.0035   -2.2262    2.3565 C.2       1 <0>         0.5205
      7 O1         -0.8673   -2.8328    1.7590 O.2       1 <0>        -0.5054
      8 N1          0.7200   -2.8473    3.3091 N.am      1 <0>        -0.6793
      9 C7          0.3794   -4.1430    3.7129 C.ar      1 <0>         0.2058
     10 C8         -0.1009   -5.0575    2.7847 C.ar      1 <0>        -0.1450
     11 C9         -0.4362   -6.3356    3.1864 C.ar      1 <0>         0.0018
     12 C10        -0.2943   -6.7051    4.5114 C.ar      1 <0>        -0.6934
     13 C11         0.1833   -5.7967    5.4382 C.ar      1 <0>         0.0021
     14 C12         0.5262   -4.5189    5.0417 C.ar      1 <0>        -0.1679
     15 S1         -0.7232   -8.3366    5.0199 S.o2      1 <0>         2.7033
     16 O2         -1.0149   -8.2657    6.4088 O.2       1 <0>        -0.9640
     17 O3         -1.6591   -8.8256    4.0690 O.2       1 <0>        -0.9629
     18 N2          0.6364   -9.2699    4.8689 N.pl3     1 <0>        -1.2503
     19 H1          1.4650    1.0603    0.4211 H         1 <0>         0.0553
     20 H2          0.2433    1.0728   -0.8733 H         1 <0>         0.0603
     21 H3         -0.1967    1.5938    0.7708 H         1 <0>         0.0597
     22 H4         -1.0288   -0.6962    0.3102 H         1 <0>         0.0803
     23 H5          0.6329   -1.2297   -0.0395 H         1 <0>         0.0651
     24 H6          1.2935   -0.5332    2.2822 H         1 <0>         0.0930
     25 H7         -0.4893   -0.0372    3.9123 H         1 <0>         0.0657
     26 H8         -0.5185    1.1521    2.5883 H         1 <0>         0.0829
     27 H9         -2.7973    0.2184    3.2510 H         1 <0>         0.0565
     28 H10        -2.3841    0.0450    1.5283 H         1 <0>         0.0610
     29 H11        -2.2504   -1.3539    2.6208 H         1 <0>         0.0644
     30 H12         1.4768   -2.3961    3.7147 H         1 <0>         0.4158
     31 H13        -0.2123   -4.7694    1.7498 H         1 <0>         0.1508
     32 H14        -0.8101   -7.0472    2.4651 H         1 <0>         0.1472
     33 H15         0.2927   -6.0882    6.4724 H         1 <0>         0.1479
     34 H16         0.9040   -3.8115    5.7650 H         1 <0>         0.1382
     35 H17         1.4621   -8.8755    4.5472 H         1 <0>         0.4165
     36 H18         0.6070  -10.2110    5.1022 H         1 <0>         0.4213
@<TRIPOS>BOND
     1    1    2 1
     2    1   19 1
     3    1   20 1
     4    1   21 1
     5    2    3 1
     6    2   22 1
     7    2   23 1
     8    3    4 1
     9    3    6 1
    10    3   24 1
    11    4    5 1
    12    4   25 1
    13    4   26 1
    14    5   27 1
    15    5   28 1
    16    5   29 1
    17    6    7 2
    18    6    8 am
    19    8    9 1
    20    8   30 1
    21    9   14 ar
    22    9   10 ar
    23   10   11 ar
    24   10   31 1
    25   11   12 ar
    26   11   32 1
    27   12   13 ar
    28   12   15 1
    29   13   14 ar
    30   13   33 1
    31   14   34 1
    32   15   16 2
    33   15   17 2
    34   15   18 1
    35   18   35 1
    36   18   36 1
@<TRIPOS>MOLECULE
ZINC05579280
   29    30     0     0     0
SMALL
USER_CHARGES

@<TRIPOS>ATOM
      1 C1         -0.0184    1.5028    0.0103 C.3       1 <0>        -0.1184
      2 C2          0.0021   -0.0041    0.0020 C.ar      1 <0>        -0.0447
      3 C3          0.0057   -0.6887   -1.1989 C.ar      1 <0>        -0.1460
      4 C4          0.0245   -2.0709   -1.2065 C.ar      1 <0>        -0.0162
      5 C5          0.0400   -2.7685   -0.0132 C.ar      1 <0>        -0.6355
      6 C6          0.0373   -2.0839    1.1877 C.ar      1 <0>        -0.0163
      7 C7          0.0229   -0.7016    1.1953 C.ar      1 <0>        -0.1461
      8 S1          0.0628   -4.5303   -0.0229 S.o2      1 <0>         2.6405
      9 O1         -0.4759   -4.9503    1.2232 O.2       1 <0>        -0.9938
     10 O2         -0.4897   -4.9367   -1.2674 O.2       1 <0>        -0.9931
     11 N1          1.6509   -4.9994   -0.0343 N.2       1 <0>        -0.9957
     12 C8          1.9756   -6.3478   -0.0434 C.2       1 <0>         0.4329
     13 N2          1.1884   -7.4154   -0.0507 N.2       1 <0>        -0.4186
     14 N3          1.6565   -8.5865   -0.0586 N.2       1 <0>        -0.1071
     15 C9          2.9523   -8.8248   -0.0601 C.2       1 <0>        -0.6361
     16 S2          3.5779   -7.1471   -0.0566 S.3       1 <0>         0.0073
     17 S3          3.8217  -10.3573   -0.0703 S.o2      1 <0>         2.7670
     18 O3          3.8960  -10.7730   -1.4272 O.2       1 <0>        -0.9611
     19 O4          4.9782  -10.1736    0.7346 O.2       1 <0>        -0.9626
     20 N4          2.8712  -11.4646    0.7125 N.pl3     1 <0>        -1.2447
     21 H1          1.0042    1.8801    0.0026 H         1 <0>         0.0751
     22 H2         -0.5455    1.8639   -0.8728 H         1 <0>         0.0689
     23 H3         -0.5286    1.8543    0.9071 H         1 <0>         0.0689
     24 H4         -0.0064   -0.1436   -2.1312 H         1 <0>         0.1289
     25 H5          0.0266   -2.6057   -2.1448 H         1 <0>         0.1389
     26 H6          0.0491   -2.6289    2.1200 H         1 <0>         0.1388
     27 H7          0.0245   -0.1667    2.1335 H         1 <0>         0.1288
     28 H8          2.0098  -11.1979    1.0698 H         1 <0>         0.4226
     29 H9          3.1760  -12.3799    0.8138 H         1 <0>         0.4176
@<TRIPOS>BOND
     1    1    2 1
     2    1   21 1
     3    1   22 1
     4    1   23 1
     5    2    7 ar
     6    2    3 ar
     7    3    4 ar
     8    3   24 1
     9    4    5 ar
    10    4   25 1
    11    5    6 ar
    12    5    8 1
    13    6    7 ar
    14    6   26 1
    15    7   27 1
    16    8    9 2
    17    8   10 2
    18    8   11 1
    19   11   12 1
    20   12   16 1
    21   12   13 2
    22   13   14 1
    23   14   15 2
    24   15   16 1
    25   15   17 1
    26   17   18 2
    27   17   19 2
    28   17   20 1
    29   20   28 1
    30   20   29 1
@<TRIPOS>MOLECULE
ZINC05579280
   28    29     0     0     0
SMALL
USER_CHARGES

@<TRIPOS>ATOM
      1 C1         -0.0184    1.5028    0.0103 C.3       1 <0>        -0.1141
      2 C2          0.0021   -0.0041    0.0020 C.ar      1 <0>        -0.0546
      3 C3          0.0057   -0.6887   -1.1989 C.ar      1 <0>        -0.1481
      4 C4          0.0245   -2.0709   -1.2065 C.ar      1 <0>        -0.0176
      5 C5          0.0400   -2.7685   -0.0132 C.ar      1 <0>        -0.6261
      6 C6          0.0373   -2.0839    1.1877 C.ar      1 <0>        -0.0174
      7 C7          0.0229   -0.7016    1.1953 C.ar      1 <0>        -0.1478
      8 S1          0.0628   -4.5303   -0.0229 S.o2      1 <0>         2.6321
      9 O1         -0.4759   -4.9503    1.2232 O.2       1 <0>        -1.0028
     10 O2         -0.4897   -4.9367   -1.2674 O.2       1 <0>        -1.0037
     11 N1          1.6509   -4.9994   -0.0343 N.2       1 <0>        -1.0173
     12 C8          1.9756   -6.3478   -0.0434 C.2       1 <0>         0.4169
     13 N2          1.1884   -7.4154   -0.0507 N.2       1 <0>        -0.4378
     14 N3          1.6565   -8.5865   -0.0586 N.2       1 <0>        -0.1265
     15 C9          2.9523   -8.8248   -0.0601 C.2       1 <0>        -0.4870
     16 S2          3.5779   -7.1471   -0.0566 S.3       1 <0>        -0.0726
     17 S3          3.8217  -10.3573   -0.0703 S.o2      1 <0>         2.6349
     18 O3          3.8960  -10.7730   -1.4272 O.2       1 <0>        -1.0625
     19 O4          4.9782  -10.1736    0.7346 O.2       1 <0>        -1.0635
     20 N4          2.8712  -11.4646    0.7125 N.2       1 <0>        -1.3323
     21 H1          1.0042    1.8801    0.0026 H         1 <0>         0.0719
     22 H2         -0.5455    1.8639   -0.8728 H         1 <0>         0.0660
     23 H3         -0.5286    1.8543    0.9071 H         1 <0>         0.0660
     24 H4         -0.0064   -0.1436   -2.1312 H         1 <0>         0.1253
     25 H5          0.0266   -2.6057   -2.1448 H         1 <0>         0.1382
     26 H6          0.0491   -2.6289    2.1200 H         1 <0>         0.1386
     27 H7          0.0245   -0.1667    2.1335 H         1 <0>         0.1255
     28 H8          3.1760  -12.3799    0.8138 H         1 <0>         0.3162
@<TRIPOS>BOND
     1    1    2 1
     2    1   21 1
     3    1   22 1
     4    1   23 1
     5    2    7 ar
     6    2    3 ar
     7    3    4 ar
     8    3   24 1
     9    4    5 ar
    10    4   25 1
    11    5    6 ar
    12    5    8 1
    13    6    7 ar
    14    6   26 1
    15    7   27 1
    16    8    9 2
    17    8   10 2
    18    8   11 1
    19   11   12 1
    20   12   16 1
    21   12   13 2
    22   13   14 1
    23   14   15 2
    24   15   16 1
    25   15   17 1
    26   17   18 2
    27   17   19 2
    28   17   20 1
    29   20   28 1
@<TRIPOS>MOLECULE
ZINC13471980
   42    42     0     0     0
SMALL
USER_CHARGES

@<TRIPOS>ATOM
      1 C1         -0.1487    1.0987   -0.0460 C.3       1 <0>        -0.1539
      2 C2         -0.2358   -0.4251   -0.1528 C.3       1 <0>        -0.1250
      3 C3          0.2356   -0.8669   -1.5397 C.3       1 <0>        -0.1057
      4 C4          0.1484   -2.3907   -1.6465 C.3       1 <0>        -0.1035
      5 C5         -1.3160   -2.8252   -1.5593 C.3       1 <0>        -0.1125
      6 C6         -2.0910   -2.2466   -2.7448 C.3       1 <0>        -0.1312
      7 C7         -3.5180   -2.7986   -2.7395 C.3       1 <0>        -0.1527
      8 C8          0.7268   -2.8358   -2.9650 C.2       1 <0>         0.5240
      9 O1          0.7577   -2.0683   -3.9036 O.2       1 <0>        -0.5055
     10 N1          1.2098   -4.0866   -3.1011 N.am      1 <0>        -0.6775
     11 C9          1.6473   -4.5359   -4.3533 C.ar      1 <0>         0.1768
     12 C10         2.3424   -3.6793   -5.1958 C.ar      1 <0>        -0.1148
     13 C11         2.7732   -4.1253   -6.4303 C.ar      1 <0>        -0.0063
     14 C12         2.5127   -5.4237   -6.8284 C.ar      1 <0>        -0.6679
     15 C13         1.8203   -6.2807   -5.9931 C.ar      1 <0>        -0.0328
     16 C14         1.3914   -5.8428   -4.7532 C.ar      1 <0>         0.0546
     17 F1          0.7198   -6.6818   -3.9344 F         1 <0>        -0.1284
     18 S1          3.0640   -5.9871   -8.4043 S.o2      1 <0>         2.7060
     19 O2          2.2210   -7.0726   -8.7652 O.2       1 <0>        -0.9585
     20 O3          3.2108   -4.8327   -9.2198 O.2       1 <0>        -0.9565
     21 N2          4.5819   -6.6155   -8.1960 N.pl3     1 <0>        -1.2488
     22 H1          0.8834    1.4151   -0.1968 H         1 <0>         0.0544
     23 H2         -0.7829    1.5531   -0.8072 H         1 <0>         0.0554
     24 H3         -0.4845    1.4135    0.9420 H         1 <0>         0.0558
     25 H4          0.3984   -0.8795    0.6084 H         1 <0>         0.0622
     26 H5         -1.2680   -0.7414   -0.0020 H         1 <0>         0.0666
     27 H6         -0.3986   -0.4125   -2.3008 H         1 <0>         0.0800
     28 H7          1.2677   -0.5506   -1.6905 H         1 <0>         0.0671
     29 H8          0.7113   -2.8449   -0.8310 H         1 <0>         0.0968
     30 H9         -1.3742   -3.9133   -1.5834 H         1 <0>         0.0676
     31 H10        -1.7489   -2.4587   -0.6285 H         1 <0>         0.0846
     32 H11        -2.1215   -1.1601   -2.6636 H         1 <0>         0.0699
     33 H12        -1.5962   -2.5277   -3.6744 H         1 <0>         0.0626
     34 H13        -3.4875   -3.8852   -2.8208 H         1 <0>         0.0526
     35 H14        -4.0128   -2.5175   -1.8099 H         1 <0>         0.0555
     36 H15        -4.0701   -2.3864   -3.5841 H         1 <0>         0.0559
     37 H16         1.2544   -4.6757   -2.3318 H         1 <0>         0.4183
     38 H17         2.5460   -2.6647   -4.8866 H         1 <0>         0.1573
     39 H18         3.3140   -3.4586   -7.0857 H         1 <0>         0.1559
     40 H19         1.6182   -7.2941   -6.3071 H         1 <0>         0.1611
     41 H20         4.9897   -6.6170   -7.3159 H         1 <0>         0.4173
     42 H21         5.0633   -6.9821   -8.9542 H         1 <0>         0.4229
@<TRIPOS>BOND
     1    1    2 1
     2    1   22 1
     3    1   23 1
     4    1   24 1
     5    2    3 1
     6    2   25 1
     7    2   26 1
     8    3    4 1
     9    3   27 1
    10    3   28 1
    11    4    5 1
    12    4    8 1
    13    4   29 1
    14    5    6 1
    15    5   30 1
    16    5   31 1
    17    6    7 1
    18    6   32 1
    19    6   33 1
    20    7   34 1
    21    7   35 1
    22    7   36 1
    23    8    9 2
    24    8   10 am
    25   10   11 1
    26   10   37 1
    27   11   16 ar
    28   11   12 ar
    29   12   13 ar
    30   12   38 1
    31   13   14 ar
    32   13   39 1
    33   14   15 ar
    34   14   18 1
    35   15   16 ar
    36   15   40 1
    37   16   17 1
    38   18   19 2
    39   18   20 2
    40   18   21 1
    41   21   41 1
    42   21   42 1
@<TRIPOS>MOLECULE
ZINC05383556
   36    36     0     0     0
SMALL
USER_CHARGES

@<TRIPOS>ATOM
      1 C1         -0.0187    1.5258    0.0104 C.3       1 <0>        -0.1299
      2 C2          0.0021   -0.0041    0.0020 C.3       1 <0>        -0.0854
      3 C3          0.7421   -0.5109    1.2415 C.3       1 <0>        -0.1416
      4 C4         -1.4333   -0.5336    0.0129 C.3       1 <0>        -0.1416
      5 C5          0.7074   -0.4901   -1.2379 C.2       1 <0>         0.5237
      6 O1          1.1500    0.3085   -2.0362 O.2       1 <0>        -0.5325
      7 N1          0.8465   -1.8122   -1.4596 N.am      1 <0>        -0.7276
      8 C6          1.5322   -2.2846   -2.6649 C.3       1 <0>         0.1514
      9 C7          1.5527   -3.7915   -2.6732 C.ar      1 <0>        -0.0494
     10 C8          2.6015   -4.4717   -2.0833 C.ar      1 <0>        -0.1219
     11 C9          2.6203   -5.8539   -2.0909 C.ar      1 <0>        -0.0181
     12 C10         1.5899   -6.5559   -2.6880 C.ar      1 <0>        -0.6693
     13 C11         0.5406   -5.8756   -3.2771 C.ar      1 <0>        -0.0181
     14 C12         0.5197   -4.4935   -3.2657 C.ar      1 <0>        -0.1219
     15 S1          1.6144   -8.3177   -2.6987 S.o2      1 <0>         2.7010
     16 O2          0.8109   -8.7283   -3.7964 O.2       1 <0>        -0.9606
     17 O3          2.9746   -8.7058   -2.5629 O.2       1 <0>        -0.9606
     18 N2          0.8379   -8.8265   -1.3274 N.pl3     1 <0>        -1.2494
     19 H1          1.0039    1.9031    0.0027 H         1 <0>         0.0630
     20 H2         -0.5459    1.8868   -0.8726 H         1 <0>         0.0630
     21 H3         -0.5289    1.8773    0.9072 H         1 <0>         0.0640
     22 H4          0.2319   -0.1594    2.1383 H         1 <0>         0.0713
     23 H5          0.7568   -1.6008    1.2356 H         1 <0>         0.0585
     24 H6          1.7647   -0.1336    1.2338 H         1 <0>         0.0623
     25 H7         -1.9605   -0.1726   -0.8702 H         1 <0>         0.0623
     26 H8         -1.4185   -1.6235    0.0069 H         1 <0>         0.0584
     27 H9         -1.9435   -0.1821    0.9097 H         1 <0>         0.0713
     28 H10         0.4926   -2.4509   -0.8211 H         1 <0>         0.4020
     29 H11         1.0050   -1.9236   -3.5480 H         1 <0>         0.0835
     30 H12         2.5548   -1.9074   -2.6726 H         1 <0>         0.0836
     31 H13         3.4066   -3.9233   -1.6168 H         1 <0>         0.1378
     32 H14         3.4401   -6.3854   -1.6307 H         1 <0>         0.1470
     33 H15        -0.2643   -6.4240   -3.7439 H         1 <0>         0.1470
     34 H16        -0.3020   -3.9620   -3.7227 H         1 <0>         0.1378
     35 H17         0.4764   -8.1761   -0.7051 H         1 <0>         0.4166
     36 H18         0.7446   -9.7749   -1.1464 H         1 <0>         0.4224
@<TRIPOS>BOND
     1    1    2 1
     2    1   19 1
     3    1   20 1
     4    1   21 1
     5    2    3 1
     6    2    4 1
     7    2    5 1
     8    3   22 1
     9    3   23 1
    10    3   24 1
    11    4   25 1
    12    4   26 1
    13    4   27 1
    14    5    6 2
    15    5    7 am
    16    7    8 1
    17    7   28 1
    18    8    9 1
    19    8   29 1
    20    8   30 1
    21    9   14 ar
    22    9   10 ar
    23   10   11 ar
    24   10   31 1
    25   11   12 ar
    26   11   32 1
    27   12   13 ar
    28   12   15 1
    29   13   14 ar
    30   13   33 1
    31   14   34 1
    32   15   16 2
    33   15   17 2
    34   15   18 1
    35   18   35 1
    36   18   36 1
@<TRIPOS>MOLECULE
ZINC04603290
   42    42     0     0     0
SMALL
USER_CHARGES

@<TRIPOS>ATOM
      1 C1         -1.0408    0.5135   -0.9319 C.3       1 <0>        -0.1540
      2 C2         -0.5062   -0.9105   -0.7671 C.3       1 <0>        -0.1256
      3 C3          0.6737   -1.1255   -1.7171 C.3       1 <0>        -0.1203
      4 C4          1.2083   -2.5495   -1.5523 C.3       1 <0>        -0.1071
      5 C5          2.3881   -2.7645   -2.5024 C.3       1 <0>        -0.1027
      6 H1          2.0810   -2.5308   -3.5218 H         1 <0>         0.0928
      7 C6          3.5441   -1.8485   -2.0954 C.3       1 <0>        -0.1135
      8 C7          4.0103   -2.2120   -0.6842 C.3       1 <0>        -0.1641
      9 C8          2.8363   -4.2014   -2.4297 C.2       1 <0>         0.5207
     10 O1          2.7660   -4.8063   -1.3807 O.2       1 <0>        -0.5051
     11 N1          3.3152   -4.8145   -3.5303 N.am      1 <0>        -0.6793
     12 C9          3.8678   -6.0963   -3.4326 C.ar      1 <0>         0.2059
     13 C10         3.3273   -7.0216   -2.5493 C.ar      1 <0>        -0.1449
     14 C11         3.8751   -8.2860   -2.4552 C.ar      1 <0>         0.0017
     15 C12         4.9606   -8.6309   -3.2393 C.ar      1 <0>        -0.6934
     16 C13         5.5015   -7.7116   -4.1194 C.ar      1 <0>         0.0020
     17 C14         4.9545   -6.4476   -4.2227 C.ar      1 <0>        -0.1679
     18 S1          5.6566  -10.2449   -3.1162 S.o2      1 <0>         2.7030
     19 O2          7.0031  -10.1414   -3.5583 O.2       1 <0>        -0.9639
     20 O3          5.3132  -10.7381   -1.8285 O.2       1 <0>        -0.9628
     21 N2          4.8700  -11.2023   -4.2149 N.pl3     1 <0>        -1.2502
     22 H2         -0.2511    1.2275   -0.6978 H         1 <0>         0.0539
     23 H3         -1.3708    0.6610   -1.9602 H         1 <0>         0.0534
     24 H4         -1.8814    0.6667   -0.2550 H         1 <0>         0.0545
     25 H5         -0.1761   -1.0579    0.2613 H         1 <0>         0.0625
     26 H6         -1.2959   -1.6244   -1.0011 H         1 <0>         0.0613
     27 H7          0.3436   -0.9780   -2.7455 H         1 <0>         0.0624
     28 H8          1.4634   -0.4115   -1.4831 H         1 <0>         0.0671
     29 H9          1.5383   -2.6969   -0.5240 H         1 <0>         0.0809
     30 H10         0.4186   -3.2634   -1.7864 H         1 <0>         0.0654
     31 H11         4.3707   -1.9740   -2.7948 H         1 <0>         0.0655
     32 H12         3.2089   -0.8114   -2.1115 H         1 <0>         0.0827
     33 H13         4.1662   -3.2888   -0.6192 H         1 <0>         0.0644
     34 H14         4.9452   -1.6957   -0.4662 H         1 <0>         0.0562
     35 H15         3.2517   -1.9104    0.0380 H         1 <0>         0.0611
     36 H16         3.2768   -4.3671   -4.3901 H         1 <0>         0.4157
     37 H17         2.4797   -6.7527   -1.9364 H         1 <0>         0.1509
     38 H18         3.4554   -9.0059   -1.7683 H         1 <0>         0.1472
     39 H19         6.3496   -7.9839   -4.7302 H         1 <0>         0.1479
     40 H20         5.3741   -5.7318   -4.9140 H         1 <0>         0.1382
     41 H21         4.1689  -10.8275   -4.7706 H         1 <0>         0.4165
     42 H22         5.1105  -12.1379   -4.3027 H         1 <0>         0.4213
@<TRIPOS>BOND
     1    1    2 1
     2    1   22 1
     3    1   23 1
     4    1   24 1
     5    2    3 1
     6    2   25 1
     7    2   26 1
     8    3    4 1
     9    3   27 1
    10    3   28 1
    11    4    5 1
    12    4   29 1
    13    4   30 1
    14    5    6 1
    15    5    7 1
    16    5    9 1
    17    7    8 1
    18    7   31 1
    19    7   32 1
    20    8   33 1
    21    8   34 1
    22    8   35 1
    23    9   10 2
    24    9   11 am
    25   11   12 1
    26   11   36 1
    27   12   17 ar
    28   12   13 ar
    29   13   14 ar
    30   13   37 1
    31   14   15 ar
    32   14   38 1
    33   15   16 ar
    34   15   18 1
    35   16   17 ar
    36   16   39 1
    37   17   40 1
    38   18   19 2
    39   18   20 2
    40   18   21 1
    41   21   41 1
    42   21   42 1
@<TRIPOS>MOLECULE
ZINC04603291
   42    42     0     0     0
SMALL
USER_CHARGES

@<TRIPOS>ATOM
      1 C1          1.5681   -1.6726    2.3567 C.3       1 <0>        -0.1536
      2 C2          0.7797   -1.4264    1.0687 C.3       1 <0>        -0.1220
      3 C3          1.4979   -2.0959   -0.1047 C.3       1 <0>        -0.1278
      4 C4          0.7096   -1.8497   -1.3926 C.3       1 <0>        -0.1028
      5 C5          1.4904   -2.4093   -2.5834 C.3       1 <0>        -0.1062
      6 H1          2.4989   -1.9957   -2.5833 H         1 <0>         0.1028
      7 C6          0.7818   -2.0253   -3.8839 C.3       1 <0>        -0.1169
      8 C7          0.8376   -0.5072   -4.0660 C.3       1 <0>        -0.1540
      9 C8          1.5632   -3.9107   -2.4755 C.2       1 <0>         0.5181
     10 O1          1.0419   -4.4773   -1.5383 O.2       1 <0>        -0.5021
     11 N1          2.2077   -4.6238   -3.4203 N.am      1 <0>        -0.6796
     12 C9          2.1833   -6.0222   -3.3795 C.ar      1 <0>         0.2107
     13 C10         1.0493   -6.6856   -2.9293 C.ar      1 <0>        -0.1444
     14 C11         1.0285   -8.0660   -2.8901 C.ar      1 <0>         0.0036
     15 C12         2.1351   -8.7875   -3.2986 C.ar      1 <0>        -0.6945
     16 C13         3.2660   -8.1300   -3.7470 C.ar      1 <0>         0.0040
     17 C14         3.2909   -6.7499   -3.7944 C.ar      1 <0>        -0.1695
     18 S1          2.1044  -10.5485   -3.2472 S.o2      1 <0>         2.7031
     19 O2          3.4572  -10.9761   -3.1666 O.2       1 <0>        -0.9638
     20 O3          1.1322  -10.9095   -2.2757 O.2       1 <0>        -0.9628
     21 N2          1.5292  -11.0711   -4.7094 N.pl3     1 <0>        -1.2503
     22 H2          1.6406   -2.7448    2.5390 H         1 <0>         0.0539
     23 H3          2.5689   -1.2527    2.2559 H         1 <0>         0.0520
     24 H4          1.0565   -1.1956    3.1927 H         1 <0>         0.0535
     25 H5         -0.2211   -1.8463    1.1695 H         1 <0>         0.0612
     26 H6          0.7073   -0.3542    0.8864 H         1 <0>         0.0584
     27 H7          2.4987   -1.6760   -0.2054 H         1 <0>         0.0553
     28 H8          1.5704   -3.1680    0.0776 H         1 <0>         0.0781
     29 H9         -0.2583   -2.3467   -1.3268 H         1 <0>         0.0722
     30 H10         0.5595   -0.7785   -1.5276 H         1 <0>         0.0753
     31 H11         1.2773   -2.5106   -4.7247 H         1 <0>         0.0660
     32 H12        -0.2585   -2.3479   -3.8398 H         1 <0>         0.0713
     33 H13         1.8743   -0.1736   -4.0196 H         1 <0>         0.0582
     34 H14         0.4135   -0.2416   -5.0343 H         1 <0>         0.0604
     35 H15         0.2649   -0.0249   -3.2739 H         1 <0>         0.0617
     36 H16         2.6884   -4.1676   -4.1286 H         1 <0>         0.4153
     37 H17         0.1848   -6.1226   -2.6097 H         1 <0>         0.1442
     38 H18         0.1470   -8.5824   -2.5398 H         1 <0>         0.1472
     39 H19         4.1288   -8.6964   -4.0651 H         1 <0>         0.1480
     40 H20         4.1726   -6.2370   -4.1495 H         1 <0>         0.1382
     41 H21         1.2857  -10.4274   -5.3930 H         1 <0>         0.4165
     42 H22         1.4357  -12.0210   -4.8824 H         1 <0>         0.4213
@<TRIPOS>BOND
     1    1    2 1
     2    1   22 1
     3    1   23 1
     4    1   24 1
     5    2    3 1
     6    2   25 1
     7    2   26 1
     8    3    4 1
     9    3   27 1
    10    3   28 1
    11    4    5 1
    12    4   29 1
    13    4   30 1
    14    5    6 1
    15    5    7 1
    16    5    9 1
    17    7    8 1
    18    7   31 1
    19    7   32 1
    20    8   33 1
    21    8   34 1
    22    8   35 1
    23    9   10 2
    24    9   11 am
    25   11   12 1
    26   11   36 1
    27   12   17 ar
    28   12   13 ar
    29   13   14 ar
    30   13   37 1
    31   14   15 ar
    32   14   38 1
    33   15   16 ar
    34   15   18 1
    35   16   17 ar
    36   16   39 1
    37   17   40 1
    38   18   19 2
    39   18   20 2
    40   18   21 1
    41   21   41 1
    42   21   42 1
@<TRIPOS>MOLECULE
ZINC05496165
   36    36     0     0     0
SMALL
USER_CHARGES

@<TRIPOS>ATOM
      1 C1         -0.0251    1.5225    0.0047 C.3       1 <0>        -0.1562
      2 C2          0.0030   -0.0072    0.0036 C.3       1 <0>        -0.0519
      3 C3          0.7467   -0.5045    1.2449 C.3       1 <0>        -0.1554
      4 C4         -1.4298   -0.5437    0.0185 C.3       1 <0>        -0.1437
      5 C5          0.7203   -0.5033   -1.2535 C.3       1 <0>        -0.1315
      6 C6          2.1316    0.0251   -1.2681 C.2       1 <0>         0.5151
      7 O1          2.5250    0.7291   -0.3623 O.2       1 <0>        -0.4997
      8 N1          2.9565   -0.2847   -2.2879 N.am      1 <0>        -0.6803
      9 C7          4.2337    0.2833   -2.3518 C.ar      1 <0>         0.2070
     10 C8          4.9475    0.5238   -1.1851 C.ar      1 <0>        -0.1450
     11 C9          6.2079    1.0846   -1.2516 C.ar      1 <0>         0.0019
     12 C10         6.7592    1.4064   -2.4783 C.ar      1 <0>        -0.6937
     13 C11         6.0509    1.1686   -3.6418 C.ar      1 <0>         0.0024
     14 C12         4.7926    0.6023   -3.5825 C.ar      1 <0>        -0.1688
     15 S1          8.3675    2.1217   -2.5588 S.o2      1 <0>         2.7031
     16 O2          8.4346    2.8330   -3.7871 O.2       1 <0>        -0.9641
     17 O3          8.5976    2.7462   -1.3033 O.2       1 <0>        -0.9630
     18 N2          9.4523    0.8758   -2.6735 N.pl3     1 <0>        -1.2503
     19 H1          0.9957    1.9047   -0.0059 H         1 <0>         0.0809
     20 H2         -0.5549    1.8768   -0.8796 H         1 <0>         0.0474
     21 H3         -0.5361    1.8759    0.9003 H         1 <0>         0.0548
     22 H4          0.2357   -0.1511    2.1405 H         1 <0>         0.0550
     23 H5          0.7667   -1.5943    1.2441 H         1 <0>         0.0476
     24 H6          1.7675   -0.1223    1.2342 H         1 <0>         0.0803
     25 H7         -1.9596   -0.1894   -0.8657 H         1 <0>         0.0558
     26 H8         -1.4097   -1.6335    0.0178 H         1 <0>         0.0558
     27 H9         -1.9407   -0.1903    0.9141 H         1 <0>         0.0609
     28 H10         0.7403   -1.5931   -1.2542 H         1 <0>         0.0993
     29 H11         0.1905   -0.1490   -2.1377 H         1 <0>         0.0994
     30 H12         2.6649   -0.9014   -2.9775 H         1 <0>         0.4158
     31 H13         4.5173    0.2730   -0.2268 H         1 <0>         0.1506
     32 H14         6.7634    1.2723   -0.3446 H         1 <0>         0.1470
     33 H15         6.4841    1.4214   -4.5983 H         1 <0>         0.1477
     34 H16         4.2419    0.4120   -4.4919 H         1 <0>         0.1380
     35 H17         9.1377   -0.0417   -2.6849 H         1 <0>         0.4165
     36 H18        10.4024    1.0634   -2.7293 H         1 <0>         0.4213
@<TRIPOS>BOND
     1    1    2 1
     2    1   19 1
     3    1   20 1
     4    1   21 1
     5    2    3 1
     6    2    4 1
     7    2    5 1
     8    3   22 1
     9    3   23 1
    10    3   24 1
    11    4   25 1
    12    4   26 1
    13    4   27 1
    14    5    6 1
    15    5   28 1
    16    5   29 1
    17    6    7 2
    18    6    8 am
    19    8    9 1
    20    8   30 1
    21    9   14 ar
    22    9   10 ar
    23   10   11 ar
    24   10   31 1
    25   11   12 ar
    26   11   32 1
    27   12   13 ar
    28   12   15 1
    29   13   14 ar
    30   13   33 1
    31   14   34 1
    32   15   16 2
    33   15   17 2
    34   15   18 1
    35   18   35 1
    36   18   36 1
@<TRIPOS>MOLECULE
ZINC00030895
   36    36     0     0     0
SMALL
USER_CHARGES

@<TRIPOS>ATOM
      1 C1         -0.0126    1.5258    0.0142 C.3       1 <0>        -0.1542
      2 C2          0.0115   -0.0040    0.0079 C.3       1 <0>        -0.1257
      3 C3          0.7202   -0.4976   -1.2550 C.3       1 <0>        -0.1031
      4 C4          0.7443   -2.0274   -1.2613 C.3       1 <0>        -0.1089
      5 H1          1.1995   -2.3875   -0.3386 H         1 <0>         0.1038
      6 C5         -0.6863   -2.5596   -1.3657 C.3       1 <0>        -0.1486
      7 C6          1.5480   -2.5123   -2.4403 C.2       1 <0>         0.5187
      8 O1          2.0518   -1.7130   -3.2007 O.2       1 <0>        -0.5095
      9 N1          1.7068   -3.8342   -2.6498 N.am      1 <0>        -0.6780
     10 C7          2.3697   -4.2862   -3.7962 C.ar      1 <0>         0.2063
     11 C8          1.9597   -5.4566   -4.4212 C.ar      1 <0>        -0.1681
     12 C9          2.6162   -5.9001   -5.5525 C.ar      1 <0>         0.0024
     13 C10         3.6807   -5.1801   -6.0629 C.ar      1 <0>        -0.6937
     14 C11         4.0917   -4.0145   -5.4426 C.ar      1 <0>         0.0021
     15 C12         3.4355   -3.5624   -4.3146 C.ar      1 <0>        -0.1453
     16 S1          4.5155   -5.7493   -7.5064 S.o2      1 <0>         2.7038
     17 O2          5.8214   -5.1904   -7.4673 O.2       1 <0>        -0.9633
     18 O3          4.2883   -7.1500   -7.5811 O.2       1 <0>        -0.9642
     19 N2          3.7512   -5.0755   -8.8118 N.pl3     1 <0>        -1.2503
     20 H2          1.0091    1.9054   -0.0010 H         1 <0>         0.0551
     21 H3         -0.5466    1.8844   -0.8658 H         1 <0>         0.0550
     22 H4         -0.5175    1.8775    0.9140 H         1 <0>         0.0557
     23 H5          0.5455   -0.3626    0.8879 H         1 <0>         0.0626
     24 H6         -1.0102   -0.3835    0.0231 H         1 <0>         0.0654
     25 H7          0.1862   -0.1390   -2.1350 H         1 <0>         0.0711
     26 H8          1.7419   -0.1181   -1.2702 H         1 <0>         0.0728
     27 H9         -1.2676   -2.2089   -0.5130 H         1 <0>         0.0767
     28 H10        -1.1415   -2.1996   -2.2884 H         1 <0>         0.0634
     29 H11        -0.6692   -3.6495   -1.3702 H         1 <0>         0.0598
     30 H12         1.3615   -4.4722   -2.0059 H         1 <0>         0.4163
     31 H13         1.1286   -6.0195   -4.0228 H         1 <0>         0.1383
     32 H14         2.2980   -6.8104   -6.0388 H         1 <0>         0.1482
     33 H15         4.9237   -3.4546   -5.8435 H         1 <0>         0.1473
     34 H16         3.7537   -2.6493   -3.8336 H         1 <0>         0.1503
     35 H17         2.9907   -4.4883   -8.6787 H         1 <0>         0.4169
     36 H18         4.0640   -5.2681   -9.7096 H         1 <0>         0.4213
@<TRIPOS>BOND
     1    1    2 1
     2    1   20 1
     3    1   21 1
     4    1   22 1
     5    2    3 1
     6    2   23 1
     7    2   24 1
     8    3    4 1
     9    3   25 1
    10    3   26 1
    11    4    5 1
    12    4    6 1
    13    4    7 1
    14    6   27 1
    15    6   28 1
    16    6   29 1
    17    7    8 2
    18    7    9 am
    19    9   10 1
    20    9   30 1
    21   10   15 ar
    22   10   11 ar
    23   11   12 ar
    24   11   31 1
    25   12   13 ar
    26   12   32 1
    27   13   14 ar
    28   13   16 1
    29   14   15 ar
    30   14   33 1
    31   15   34 1
    32   16   17 2
    33   16   18 2
    34   16   19 1
    35   19   35 1
    36   19   36 1
@<TRIPOS>MOLECULE
ZINC00030896
   36    36     0     0     0
SMALL
USER_CHARGES

@<TRIPOS>ATOM
      1 C1         -0.0121    1.5252    0.0150 C.3       1 <0>        -0.1542
      2 C2          0.0124   -0.0046    0.0081 C.3       1 <0>        -0.1257
      3 C3          0.7208   -0.4976   -1.2552 C.3       1 <0>        -0.1032
      4 C4          0.7453   -2.0274   -1.2621 C.3       1 <0>        -0.1087
      5 H1         -0.2709   -2.4076   -1.1572 H         1 <0>         0.1038
      6 C5          1.6003   -2.5291   -0.0967 C.3       1 <0>        -0.1499
      7 C6          1.3322   -2.5146   -2.5619 C.2       1 <0>         0.5187
      8 O1          1.6952   -1.7167   -3.4001 O.2       1 <0>        -0.5094
      9 N1          1.4538   -3.8368   -2.7927 N.am      1 <0>        -0.6781
     10 C7          1.9081   -4.2911   -4.0357 C.ar      1 <0>         0.2061
     11 C8          1.3972   -5.4633   -4.5774 C.ar      1 <0>        -0.1683
     12 C9          1.8477   -5.9091   -5.8045 C.ar      1 <0>         0.0024
     13 C10         2.8067   -5.1896   -6.4936 C.ar      1 <0>        -0.6937
     14 C11         3.3178   -4.0222   -5.9568 C.ar      1 <0>         0.0021
     15 C12         2.8669   -3.5678   -4.7330 C.ar      1 <0>        -0.1451
     16 S1          3.3788   -5.7617   -8.0588 S.o2      1 <0>         2.7038
     17 O2          4.6710   -5.2017   -8.2483 O.2       1 <0>        -0.9633
     18 O3          3.1437   -7.1628   -8.0898 O.2       1 <0>        -0.9642
     19 N2          2.3987   -5.0916   -9.2132 N.pl3     1 <0>        -1.2503
     20 H2          1.0095    1.9050   -0.0004 H         1 <0>         0.0552
     21 H3         -0.5465    1.8840   -0.8647 H         1 <0>         0.0549
     22 H4         -0.5168    1.8764    0.9150 H         1 <0>         0.0557
     23 H5          0.5467   -0.3634    0.8878 H         1 <0>         0.0655
     24 H6         -1.0092   -0.3844    0.0235 H         1 <0>         0.0624
     25 H7          0.1865   -0.1388   -2.1349 H         1 <0>         0.0726
     26 H8          1.7424   -0.1178   -1.2706 H         1 <0>         0.0715
     27 H9          1.6178   -3.6189   -0.1016 H         1 <0>         0.0595
     28 H10         2.6165   -2.1489   -0.2016 H         1 <0>         0.0643
     29 H11         1.1758   -2.1767    0.8434 H         1 <0>         0.0772
     30 H12         1.2263   -4.4735   -2.0972 H         1 <0>         0.4162
     31 H13         0.6485   -6.0260   -4.0395 H         1 <0>         0.1383
     32 H14         1.4510   -6.8208   -6.2261 H         1 <0>         0.1482
     33 H15         4.0669   -3.4626   -6.4973 H         1 <0>         0.1473
     34 H16         3.2627   -2.6533   -4.3166 H         1 <0>         0.1503
     35 H17         1.6722   -4.5047   -8.9514 H         1 <0>         0.4169
     36 H18         2.5511   -5.2861  -10.1513 H         1 <0>         0.4213
@<TRIPOS>BOND
     1    1    2 1
     2    1   20 1
     3    1   21 1
     4    1   22 1
     5    2    3 1
     6    2   23 1
     7    2   24 1
     8    3    4 1
     9    3   25 1
    10    3   26 1
    11    4    5 1
    12    4    6 1
    13    4    7 1
    14    6   27 1
    15    6   28 1
    16    6   29 1
    17    7    8 2
    18    7    9 am
    19    9   10 1
    20    9   30 1
    21   10   15 ar
    22   10   11 ar
    23   11   12 ar
    24   11   31 1
    25   12   13 ar
    26   12   32 1
    27   13   14 ar
    28   13   16 1
    29   14   15 ar
    30   14   33 1
    31   15   34 1
    32   16   17 2
    33   16   18 2
    34   16   19 1
    35   19   35 1
    36   19   36 1
@<TRIPOS>MOLECULE
ZINC05593240
   33    33     0     0     0
SMALL
USER_CHARGES

@<TRIPOS>ATOM
      1 C1         -0.0090    1.5264    0.0049 C.3       1 <0>        -0.1553
      2 C2          0.0045   -0.0035    0.0010 C.3       1 <0>        -0.1073
      3 C3          0.7479   -0.5102    1.2386 C.3       1 <0>        -0.1091
      4 H1          1.7432   -0.0668    1.2714 H         1 <0>         0.1038
      5 C4         -0.0280   -0.1155    2.4968 C.3       1 <0>        -0.1487
      6 C5          0.8685   -2.0109    1.1728 C.2       1 <0>         0.5185
      7 O1          0.4054   -2.6157    0.2290 O.2       1 <0>        -0.5098
      8 N1          1.4909   -2.6809    2.1628 N.am      1 <0>        -0.6779
      9 C6          1.5184   -4.0799    2.1511 C.ar      1 <0>         0.2062
     10 C7          1.4506   -4.7872    3.3443 C.ar      1 <0>        -0.1680
     11 C8          1.4780   -6.1679    3.3294 C.ar      1 <0>         0.0024
     12 C9          1.5729   -6.8461    2.1281 C.ar      1 <0>        -0.6936
     13 C10         1.6411   -6.1448    0.9383 C.ar      1 <0>         0.0022
     14 C11         1.6079   -4.7641    0.9460 C.ar      1 <0>        -0.1453
     15 S1          1.6076   -8.6077    2.1134 S.o2      1 <0>         2.7037
     16 O2          2.2496   -8.9912    0.9050 O.2       1 <0>        -0.9633
     17 O3          2.0805   -9.0153    3.3899 O.2       1 <0>        -0.9642
     18 N2          0.0392   -9.1274    2.0016 N.pl3     1 <0>        -1.2503
     19 H2          1.0153    1.8988   -0.0087 H         1 <0>         0.0558
     20 H3         -0.5387    1.8873   -0.8767 H         1 <0>         0.0604
     21 H4         -0.5133    1.8830    0.9031 H         1 <0>         0.0584
     22 H5         -1.0198   -0.3760    0.0147 H         1 <0>         0.0706
     23 H6          0.5088   -0.3601   -0.8971 H         1 <0>         0.0724
     24 H7         -1.0232   -0.5588    2.4639 H         1 <0>         0.0633
     25 H8          0.5017   -0.4764    3.3784 H         1 <0>         0.0598
     26 H9         -0.1152    0.9700    2.5443 H         1 <0>         0.0768
     27 H10         1.9198   -2.1934    2.8834 H         1 <0>         0.4164
     28 H11         1.3768   -4.2581    4.2829 H         1 <0>         0.1383
     29 H12         1.4256   -6.7186    4.2570 H         1 <0>         0.1482
     30 H13         1.7156   -6.6774    0.0017 H         1 <0>         0.1473
     31 H14         1.6561   -4.2170    0.0160 H         1 <0>         0.1503
     32 H15        -0.6837   -8.4821    1.9587 H         1 <0>         0.4169
     33 H16        -0.1565  -10.0772    1.9791 H         1 <0>         0.4212
@<TRIPOS>BOND
     1    1    2 1
     2    1   19 1
     3    1   20 1
     4    1   21 1
     5    2    3 1
     6    2   22 1
     7    2   23 1
     8    3    4 1
     9    3    5 1
    10    3    6 1
    11    5   24 1
    12    5   25 1
    13    5   26 1
    14    6    7 2
    15    6    8 am
    16    8    9 1
    17    8   27 1
    18    9   14 ar
    19    9   10 ar
    20   10   11 ar
    21   10   28 1
    22   11   12 ar
    23   11   29 1
    24   12   13 ar
    25   12   15 1
    26   13   14 ar
    27   13   30 1
    28   14   31 1
    29   15   16 2
    30   15   17 2
    31   15   18 1
    32   18   32 1
    33   18   33 1
@<TRIPOS>MOLECULE
ZINC05665427
   33    33     0     0     0
SMALL
USER_CHARGES

@<TRIPOS>ATOM
      1 C1         -0.0080    1.5259    0.0049 C.3       1 <0>        -0.1552
      2 C2          0.0048   -0.0040    0.0007 C.3       1 <0>        -0.1074
      3 C3          0.7481   -0.5113    1.2380 C.3       1 <0>        -0.1088
      4 H1          0.2978   -0.0829    2.1334 H         1 <0>         0.1038
      5 C4          2.2179   -0.0940    1.1567 C.3       1 <0>        -0.1500
      6 C5          0.6553   -2.0142    1.2988 C.2       1 <0>         0.5185
      7 O1          0.0537   -2.6199    0.4372 O.2       1 <0>        -0.5098
      8 N1          1.2407   -2.6852    2.3105 N.am      1 <0>        -0.6781
      9 C6          1.0737   -4.0700    2.4206 C.ar      1 <0>         0.2060
     10 C7          0.9846   -4.6627    3.6734 C.ar      1 <0>        -0.1683
     11 C8          0.8199   -6.0299    3.7787 C.ar      1 <0>         0.0024
     12 C9          0.7437   -6.8085    2.6385 C.ar      1 <0>        -0.6936
     13 C10         0.8325   -6.2215    1.3896 C.ar      1 <0>         0.0021
     14 C11         0.9911   -4.8541    1.2774 C.ar      1 <0>        -0.1452
     15 S1          0.5335   -8.5524    2.7772 S.o2      1 <0>         2.7038
     16 O2          1.0383   -9.1192    1.5759 O.2       1 <0>        -0.9633
     17 O3          1.0256   -8.9201    4.0586 O.2       1 <0>        -0.9642
     18 N2         -1.0955   -8.8496    2.7927 N.pl3     1 <0>        -1.2504
     19 H2          1.0165    1.8979   -0.0088 H         1 <0>         0.0585
     20 H3         -0.5376    1.8873   -0.8765 H         1 <0>         0.0604
     21 H4         -0.5120    1.8826    0.9032 H         1 <0>         0.0555
     22 H5         -1.0197   -0.3759    0.0144 H         1 <0>         0.0721
     23 H6          0.5088   -0.3606   -0.8976 H         1 <0>         0.0710
     24 H7          2.6682   -0.5223    0.2612 H         1 <0>         0.0643
     25 H8          2.2851    0.9931    1.1127 H         1 <0>         0.0774
     26 H9          2.7475   -0.4554    2.0382 H         1 <0>         0.0595
     27 H10         1.7777   -2.2080    2.9623 H         1 <0>         0.4163
     28 H11         1.0444   -4.0552    4.5643 H         1 <0>         0.1384
     29 H12         0.7509   -6.4915    4.7527 H         1 <0>         0.1482
     30 H13         0.7730   -6.8324    0.5010 H         1 <0>         0.1473
     31 H14         1.0553   -4.3956    0.3017 H         1 <0>         0.1502
     32 H15        -1.7235   -8.1129    2.7304 H         1 <0>         0.4169
     33 H16        -1.4218   -9.7603    2.8641 H         1 <0>         0.4213
@<TRIPOS>BOND
     1    1    2 1
     2    1   19 1
     3    1   20 1
     4    1   21 1
     5    2    3 1
     6    2   22 1
     7    2   23 1
     8    3    4 1
     9    3    5 1
    10    3    6 1
    11    5   24 1
    12    5   25 1
    13    5   26 1
    14    6    7 2
    15    6    8 am
    16    8    9 1
    17    8   27 1
    18    9   14 ar
    19    9   10 ar
    20   10   11 ar
    21   10   28 1
    22   11   12 ar
    23   11   29 1
    24   12   13 ar
    25   12   15 1
    26   13   14 ar
    27   13   30 1
    28   14   31 1
    29   15   16 2
    30   15   17 2
    31   15   18 1
    32   18   32 1
    33   18   33 1
@<TRIPOS>MOLECULE
ZINC13471994
   29    30     0     0     0
SMALL
USER_CHARGES

@<TRIPOS>ATOM
      1 C1         -0.0167    1.3781    0.0096 C.ar      1 <0>        -0.1192
      2 C2          1.1709    2.0855    0.0021 C.ar      1 <0>        -0.1195
      3 C3          2.3773    1.4107   -0.0130 C.ar      1 <0>        -0.1063
      4 C4          2.3960    0.0285   -0.0201 C.ar      1 <0>        -0.0820
      5 C5          1.2084   -0.6789   -0.0117 C.ar      1 <0>        -0.1062
      6 C6          0.0021   -0.0041    0.0020 C.ar      1 <0>        -0.1194
      7 C7          3.7112   -0.7071   -0.0376 C.3       1 <0>        -0.5614
      8 S1          4.2568   -1.0108    1.6656 S.o2      1 <0>         2.5601
      9 O1          4.5927    0.2165    2.2981 O.2       1 <0>        -0.9850
     10 O2          3.3873   -1.9386    2.3000 O.2       1 <0>        -0.9843
     11 N1          5.6959   -1.8160    1.5142 N.2       1 <0>        -1.0067
     12 C8          6.3949   -2.2059    2.6470 C.2       1 <0>         0.4389
     13 N2          6.0987   -2.0459    3.9300 N.2       1 <0>        -0.4132
     14 N3          6.8571   -2.4681    4.8450 N.2       1 <0>        -0.1079
     15 C9          7.9880   -3.0929    4.5873 C.2       1 <0>        -0.6372
     16 S2          7.9522   -3.0769    2.7971 S.3       1 <0>         0.0004
     17 S3          9.1894   -3.7607    5.6897 S.o2      1 <0>         2.7672
     18 O3          8.7314   -5.0557    6.0536 O.2       1 <0>        -0.9616
     19 O4         10.4582   -3.5425    5.0883 O.2       1 <0>        -0.9630
     20 N4          9.1542   -2.8419    7.0671 N.pl3     1 <0>        -1.2448
     21 H1         -0.9591    1.9053    0.0259 H         1 <0>         0.1238
     22 H2          1.1563    3.1654    0.0076 H         1 <0>         0.1263
     23 H3          3.3051    1.9634   -0.0196 H         1 <0>         0.1298
     24 H4          1.2231   -1.7588   -0.0176 H         1 <0>         0.1299
     25 H5         -0.9258   -0.5567    0.0082 H         1 <0>         0.1264
     26 H6          3.5884   -1.6586   -0.5549 H         1 <0>         0.1374
     27 H7          4.4573   -0.1052   -0.5563 H         1 <0>         0.1374
     28 H8          8.5388   -2.0954    7.1365 H         1 <0>         0.4225
     29 H9          9.7490   -3.0503    7.8044 H         1 <0>         0.4174
@<TRIPOS>BOND
     1    1    6 ar
     2    1    2 ar
     3    1   21 1
     4    2    3 ar
     5    2   22 1
     6    3    4 ar
     7    3   23 1
     8    4    5 ar
     9    4    7 1
    10    5    6 ar
    11    5   24 1
    12    6   25 1
    13    7    8 1
    14    7   26 1
    15    7   27 1
    16    8    9 2
    17    8   10 2
    18    8   11 1
    19   11   12 1
    20   12   16 1
    21   12   13 2
    22   13   14 1
    23   14   15 2
    24   15   16 1
    25   15   17 1
    26   17   18 2
    27   17   19 2
    28   17   20 1
    29   20   28 1
    30   20   29 1
@<TRIPOS>MOLECULE
ZINC13471994
   28    29     0     0     0
SMALL
USER_CHARGES

@<TRIPOS>ATOM
      1 C1         -0.0167    1.3781    0.0096 C.ar      1 <0>        -0.1254
      2 C2          1.1709    2.0855    0.0021 C.ar      1 <0>        -0.1204
      3 C3          2.3773    1.4107   -0.0130 C.ar      1 <0>        -0.1079
      4 C4          2.3960    0.0285   -0.0201 C.ar      1 <0>        -0.0728
      5 C5          1.2084   -0.6789   -0.0117 C.ar      1 <0>        -0.1080
      6 C6          0.0021   -0.0041    0.0020 C.ar      1 <0>        -0.1206
      7 C7          3.7112   -0.7071   -0.0376 C.3       1 <0>        -0.5684
      8 S1          4.2568   -1.0108    1.6656 S.o2      1 <0>         2.5561
      9 O1          4.5927    0.2165    2.2981 O.2       1 <0>        -0.9929
     10 O2          3.3873   -1.9386    2.3000 O.2       1 <0>        -0.9938
     11 N1          5.6959   -1.8160    1.5142 N.2       1 <0>        -1.0283
     12 C8          6.3949   -2.2059    2.6470 C.2       1 <0>         0.4229
     13 N2          6.0987   -2.0459    3.9300 N.2       1 <0>        -0.4328
     14 N3          6.8571   -2.4681    4.8450 N.2       1 <0>        -0.1270
     15 C9          7.9880   -3.0929    4.5873 C.2       1 <0>        -0.4882
     16 S2          7.9522   -3.0769    2.7971 S.3       1 <0>        -0.0799
     17 S3          9.1894   -3.7607    5.6897 S.o2      1 <0>         2.6354
     18 O3          8.7314   -5.0557    6.0536 O.2       1 <0>        -1.0630
     19 O4         10.4582   -3.5425    5.0883 O.2       1 <0>        -1.0639
     20 N4          9.1542   -2.8419    7.0671 N.2       1 <0>        -1.3327
     21 H1         -0.9591    1.9053    0.0259 H         1 <0>         0.1208
     22 H2          1.1563    3.1654    0.0076 H         1 <0>         0.1240
     23 H3          3.3051    1.9634   -0.0196 H         1 <0>         0.1298
     24 H4          1.2231   -1.7588   -0.0176 H         1 <0>         0.1296
     25 H5         -0.9258   -0.5567    0.0082 H         1 <0>         0.1239
     26 H6          3.5884   -1.6586   -0.5549 H         1 <0>         0.1337
     27 H7          4.4573   -0.1052   -0.5563 H         1 <0>         0.1340
     28 H8          9.7490   -3.0503    7.8044 H         1 <0>         0.3160
@<TRIPOS>BOND
     1    1    6 ar
     2    1    2 ar
     3    1   21 1
     4    2    3 ar
     5    2   22 1
     6    3    4 ar
     7    3   23 1
     8    4    5 ar
     9    4    7 1
    10    5    6 ar
    11    5   24 1
    12    6   25 1
    13    7    8 1
    14    7   26 1
    15    7   27 1
    16    8    9 2
    17    8   10 2
    18    8   11 1
    19   11   12 1
    20   12   16 1
    21   12   13 2
    22   13   14 1
    23   14   15 2
    24   15   16 1
    25   15   17 1
    26   17   18 2
    27   17   19 2
    28   17   20 1
    29   20   28 1
@<TRIPOS>MOLECULE
ZINC06003006
   33    34     0     0     0
SMALL
USER_CHARGES

@<TRIPOS>ATOM
      1 C1         -0.0184    1.5028    0.0103 C.3       1 <0>        -0.1176
      2 C2          0.0021   -0.0041    0.0020 C.ar      1 <0>        -0.0480
      3 C3          0.0057   -0.6887   -1.1989 C.ar      1 <0>        -0.1471
      4 C4          0.0245   -2.0709   -1.2065 C.ar      1 <0>        -0.0172
      5 C5          0.0400   -2.7685   -0.0132 C.ar      1 <0>        -0.6394
      6 C6          0.0373   -2.0839    1.1877 C.ar      1 <0>        -0.0173
      7 C7          0.0229   -0.7016    1.1953 C.ar      1 <0>        -0.1471
      8 S1          0.0628   -4.5303   -0.0229 S.o2      1 <0>         2.6873
      9 O1         -0.4759   -4.9503    1.2232 O.2       1 <0>        -0.9962
     10 O2         -0.4897   -4.9367   -1.2674 O.2       1 <0>        -0.9959
     11 N1          1.6509   -4.9994   -0.0343 N.2       1 <0>        -1.0902
     12 C8          1.9554   -6.2640   -0.0428 C.2       1 <0>         0.6699
     13 O3          0.9761   -7.1947   -0.0424 O.3       1 <0>        -0.6672
     14 N2          3.2749   -6.6538   -0.0522 N.pl3     1 <0>        -0.5655
     15 C9          3.6003   -8.0050   -0.0614 C.2       1 <0>         0.3833
     16 N3          2.8133   -9.0722   -0.0687 N.2       1 <0>        -0.2912
     17 N4          3.2809  -10.2435   -0.0766 N.2       1 <0>        -0.1178
     18 C10         4.5772  -10.4819   -0.0781 C.2       1 <0>        -0.5857
     19 S2          5.2027   -8.8042   -0.0746 S.3       1 <0>         0.0638
     20 S3          5.4465  -12.0145   -0.0884 S.o2      1 <0>         2.7605
     21 O4          5.5209  -12.4301   -1.4452 O.2       1 <0>        -0.9469
     22 O5          6.6031  -11.8307    0.7165 O.2       1 <0>        -0.9516
     23 N5          4.4961  -13.1218    0.6944 N.pl3     1 <0>        -1.2403
     24 H1          1.0042    1.8801    0.0026 H         1 <0>         0.0739
     25 H2         -0.5455    1.8639   -0.8728 H         1 <0>         0.0681
     26 H3         -0.5286    1.8543    0.9071 H         1 <0>         0.0680
     27 H4         -0.0064   -0.1436   -2.1312 H         1 <0>         0.1271
     28 H5          0.0266   -2.6057   -2.1448 H         1 <0>         0.1381
     29 H6          0.0491   -2.6289    2.1200 H         1 <0>         0.1380
     30 H7          0.0245   -0.1667    2.1335 H         1 <0>         0.1271
     31 H8          3.9780   -5.9856   -0.0525 H         1 <0>         0.4301
     32 H9          3.6347  -12.8551    1.0518 H         1 <0>         0.4249
     33 H10         4.8009  -14.0371    0.7957 H         1 <0>         0.4222
@<TRIPOS>BOND
     1    1    2 1
     2    1   24 1
     3    1   25 1
     4    1   26 1
     5    2    7 ar
     6    2    3 ar
     7    3    4 ar
     8    3   27 1
     9    4    5 ar
    10    4   28 1
    11    5    6 ar
    12    5    8 1
    13    6    7 ar
    14    6   29 1
    15    7   30 1
    16    8    9 2
    17    8   10 2
    18    8   11 1
    19   11   12 2
    20   12   13 1
    21   12   14 1
    22   14   15 1
    23   14   31 1
    24   15   19 1
    25   15   16 2
    26   16   17 1
    27   17   18 2
    28   18   19 1
    29   18   20 1
    30   20   21 2
    31   20   22 2
    32   20   23 1
    33   23   32 1
    34   23   33 1
@<TRIPOS>MOLECULE
ZINC06003006
   32    33     0     0     0
SMALL
USER_CHARGES

@<TRIPOS>ATOM
      1 C1         -0.0184    1.5028    0.0103 C.3       1 <0>        -0.1148
      2 C2          0.0021   -0.0041    0.0020 C.ar      1 <0>        -0.0541
      3 C3          0.0057   -0.6887   -1.1989 C.ar      1 <0>        -0.1483
      4 C4          0.0245   -2.0709   -1.2065 C.ar      1 <0>        -0.0177
      5 C5          0.0400   -2.7685   -0.0132 C.ar      1 <0>        -0.6337
      6 C6          0.0373   -2.0839    1.1877 C.ar      1 <0>        -0.0176
      7 C7          0.0229   -0.7016    1.1953 C.ar      1 <0>        -0.1481
      8 S1          0.0628   -4.5303   -0.0229 S.o2      1 <0>         2.6813
      9 O1         -0.4759   -4.9503    1.2232 O.2       1 <0>        -1.0002
     10 O2         -0.4897   -4.9367   -1.2674 O.2       1 <0>        -1.0007
     11 N1          1.6509   -4.9994   -0.0343 N.2       1 <0>        -1.0977
     12 C8          1.9554   -6.2640   -0.0428 C.2       1 <0>         0.6766
     13 O3          0.9761   -7.1947   -0.0424 O.3       1 <0>        -0.6718
     14 N2          3.2749   -6.6538   -0.0522 N.pl3     1 <0>        -0.5817
     15 C9          3.6003   -8.0050   -0.0614 C.2       1 <0>         0.3488
     16 N3          2.8133   -9.0722   -0.0687 N.2       1 <0>        -0.2978
     17 N4          3.2809  -10.2435   -0.0766 N.2       1 <0>        -0.1401
     18 C10         4.5772  -10.4819   -0.0781 C.2       1 <0>        -0.4286
     19 S2          5.2027   -8.8042   -0.0746 S.3       1 <0>        -0.0277
     20 S3          5.4465  -12.0145   -0.0884 S.o2      1 <0>         2.6180
     21 O4          5.5209  -12.4301   -1.4452 O.2       1 <0>        -1.0481
     22 O5          6.6031  -11.8307    0.7165 O.2       1 <0>        -1.0524
     23 N5          4.4961  -13.1218    0.6944 N.2       1 <0>        -1.3195
     24 H1          1.0042    1.8801    0.0026 H         1 <0>         0.0719
     25 H2         -0.5455    1.8639   -0.8728 H         1 <0>         0.0661
     26 H3         -0.5286    1.8543    0.9071 H         1 <0>         0.0661
     27 H4         -0.0064   -0.1436   -2.1312 H         1 <0>         0.1250
     28 H5          0.0266   -2.6057   -2.1448 H         1 <0>         0.1381
     29 H6          0.0491   -2.6289    2.1200 H         1 <0>         0.1383
     30 H7          0.0245   -0.1667    2.1335 H         1 <0>         0.1251
     31 H8          3.9780   -5.9856   -0.0525 H         1 <0>         0.4228
     32 H9          4.8009  -14.0371    0.7957 H         1 <0>         0.3228
@<TRIPOS>BOND
     1    1    2 1
     2    1   24 1
     3    1   25 1
     4    1   26 1
     5    2    7 ar
     6    2    3 ar
     7    3    4 ar
     8    3   27 1
     9    4    5 ar
    10    4   28 1
    11    5    6 ar
    12    5    8 1
    13    6    7 ar
    14    6   29 1
    15    7   30 1
    16    8    9 2
    17    8   10 2
    18    8   11 1
    19   11   12 2
    20   12   13 1
    21   12   14 1
    22   14   15 1
    23   14   31 1
    24   15   19 1
    25   15   16 2
    26   16   17 1
    27   17   18 2
    28   18   19 1
    29   18   20 1
    30   20   21 2
    31   20   22 2
    32   20   23 1
    33   23   32 1
@<TRIPOS>MOLECULE
ZINC13471975
   42    42     0     0     0
SMALL
USER_CHARGES

@<TRIPOS>ATOM
      1 C1         -0.1356    1.0185   -0.0606 C.3       1 <0>        -0.1537
      2 C2         -0.1435   -0.5087   -0.1522 C.3       1 <0>        -0.1255
      3 C3          0.0052   -0.9328   -1.6147 C.3       1 <0>        -0.1038
      4 C4         -0.0026   -2.4600   -1.7062 C.3       1 <0>        -0.1062
      5 C5         -1.3694   -2.9902   -1.2681 C.3       1 <0>        -0.1134
      6 C6         -2.4364   -2.5359   -2.2661 C.3       1 <0>        -0.1300
      7 C7         -3.7759   -3.1844   -1.9110 C.3       1 <0>        -0.1527
      8 C8          0.2665   -2.8794   -3.1284 C.2       1 <0>         0.5229
      9 O1          0.2411   -2.0560   -4.0186 O.2       1 <0>        -0.5156
     10 N1          0.5354   -4.1695   -3.4112 N.am      1 <0>        -0.6768
     11 C9          0.6274   -4.5894   -4.7428 C.ar      1 <0>         0.1262
     12 C10         1.1876   -3.7525   -5.6993 C.ar      1 <0>        -0.0615
     13 C11         1.2769   -4.1698   -7.0126 C.ar      1 <0>        -0.1204
     14 C12         0.8088   -5.4194   -7.3760 C.ar      1 <0>        -0.0321
     15 C13         0.2501   -6.2547   -6.4263 C.ar      1 <0>        -0.6571
     16 C14         0.1639   -5.8458   -5.1097 C.ar      1 <0>        -0.0463
     17 S1         -0.3453   -7.8455   -6.8945 S.o2      1 <0>         2.7025
     18 O2         -1.3171   -8.2165   -5.9265 O.2       1 <0>        -0.9620
     19 O3         -0.6408   -7.7762   -8.2828 O.2       1 <0>        -0.9600
     20 N2          0.9148   -8.9075   -6.7313 N.pl3     1 <0>        -1.2496
     21 H1          0.8052    1.4013   -0.4560 H         1 <0>         0.0543
     22 H2         -0.9649    1.4216   -0.6419 H         1 <0>         0.0549
     23 H3         -0.2416    1.3206    0.9813 H         1 <0>         0.0553
     24 H4          0.6857   -0.9119    0.4292 H         1 <0>         0.0618
     25 H5         -1.0844   -0.8916    0.2432 H         1 <0>         0.0660
     26 H6         -0.8240   -0.5297   -2.1960 H         1 <0>         0.0762
     27 H7          0.9461   -0.5500   -2.0101 H         1 <0>         0.0685
     28 H8          0.7708   -2.8670   -1.0548 H         1 <0>         0.0989
     29 H9         -1.3430   -4.0793   -1.2350 H         1 <0>         0.0683
     30 H10        -1.6092   -2.6023   -0.2781 H         1 <0>         0.0836
     31 H11        -2.5353   -1.4512   -2.2237 H         1 <0>         0.0688
     32 H12        -2.1434   -2.8350   -3.2725 H         1 <0>         0.0592
     33 H13        -4.5361   -2.8608   -2.6219 H         1 <0>         0.0556
     34 H14        -3.6770   -4.2691   -1.9534 H         1 <0>         0.0542
     35 H15        -4.0689   -2.8854   -0.9046 H         1 <0>         0.0557
     36 H16         0.6651   -4.8068   -2.6916 H         1 <0>         0.4140
     37 H17         1.5527   -2.7763   -5.4163 H         1 <0>         0.1492
     38 H18         1.7124   -3.5195   -7.7568 H         1 <0>         0.1398
     39 H19         0.8794   -5.7434   -8.4038 H         1 <0>         0.1458
     40 H20        -0.2678   -6.5007   -4.3674 H         1 <0>         0.1460
     41 H21         1.7788   -8.5914   -6.4242 H         1 <0>         0.4169
     42 H22         0.7888   -9.8458   -6.9428 H         1 <0>         0.4220
@<TRIPOS>BOND
     1    1    2 1
     2    1   21 1
     3    1   22 1
     4    1   23 1
     5    2    3 1
     6    2   24 1
     7    2   25 1
     8    3    4 1
     9    3   26 1
    10    3   27 1
    11    4    5 1
    12    4    8 1
    13    4   28 1
    14    5    6 1
    15    5   29 1
    16    5   30 1
    17    6    7 1
    18    6   31 1
    19    6   32 1
    20    7   33 1
    21    7   34 1
    22    7   35 1
    23    8    9 2
    24    8   10 am
    25   10   11 1
    26   10   36 1
    27   11   16 ar
    28   11   12 ar
    29   12   13 ar
    30   12   37 1
    31   13   14 ar
    32   13   38 1
    33   14   15 ar
    34   14   39 1
    35   15   16 ar
    36   15   17 1
    37   16   40 1
    38   17   18 2
    39   17   19 2
    40   17   20 1
    41   20   41 1
    42   20   42 1
@<TRIPOS>MOLECULE
ZINC13471976
   42    42     0     0     0
SMALL
USER_CHARGES

@<TRIPOS>ATOM
      1 C1         -0.1361    1.0185   -0.0610 C.3       1 <0>        -0.1540
      2 C2         -0.1438   -0.5088   -0.1524 C.3       1 <0>        -0.1252
      3 C3          0.0050   -0.9329   -1.6149 C.3       1 <0>        -0.1046
      4 C4         -0.0027   -2.4602   -1.7062 C.3       1 <0>        -0.1060
      5 C5         -1.3693   -2.9904   -1.2681 C.3       1 <0>        -0.1130
      6 C6         -2.4364   -2.5364   -2.2661 C.3       1 <0>        -0.1303
      7 C7         -3.7758   -3.1851   -1.9109 C.3       1 <0>        -0.1521
      8 C8          0.2665   -2.8797   -3.1284 C.2       1 <0>         0.5221
      9 O1          0.2410   -2.0564   -4.0187 O.2       1 <0>        -0.5076
     10 N1          0.5356   -4.1697   -3.4110 N.am      1 <0>        -0.6796
     11 C9          0.6276   -4.5898   -4.7426 C.ar      1 <0>         0.2068
     12 C10         1.1878   -3.7531   -5.6990 C.ar      1 <0>        -0.1449
     13 C11         1.2772   -4.1706   -7.0124 C.ar      1 <0>         0.0016
     14 C12         0.8095   -5.4203   -7.3756 C.ar      1 <0>        -0.6934
     15 C13         0.2507   -6.2556   -6.4257 C.ar      1 <0>         0.0019
     16 C14         0.1641   -5.8464   -5.1094 C.ar      1 <0>        -0.1676
     17 S1          0.9254   -5.9492   -9.0523 S.o2      1 <0>         2.7030
     18 O2         -0.0775   -6.9389   -9.2362 O.2       1 <0>        -0.9640
     19 O3          0.9887   -4.7722   -9.8460 O.2       1 <0>        -0.9629
     20 N2          2.3835   -6.7151   -9.2245 N.pl3     1 <0>        -1.2503
     21 H1          0.8047    1.4014   -0.4565 H         1 <0>         0.0546
     22 H2         -0.9654    1.4214   -0.6424 H         1 <0>         0.0551
     23 H3         -0.2421    1.3207    0.9809 H         1 <0>         0.0555
     24 H4          0.6855   -0.9117    0.4290 H         1 <0>         0.0620
     25 H5         -1.0846   -0.8917    0.2430 H         1 <0>         0.0658
     26 H6         -0.8243   -0.5300   -2.1962 H         1 <0>         0.0766
     27 H7          0.9458   -0.5500   -2.0103 H         1 <0>         0.0693
     28 H8          0.7708   -2.8670   -1.0548 H         1 <0>         0.0995
     29 H9         -1.3429   -4.0796   -1.2348 H         1 <0>         0.0675
     30 H10        -1.6092   -2.6025   -0.2781 H         1 <0>         0.0841
     31 H11        -2.5355   -1.4518   -2.2238 H         1 <0>         0.0695
     32 H12        -2.1434   -2.8355   -3.2725 H         1 <0>         0.0589
     33 H13        -4.5361   -2.8616   -2.6219 H         1 <0>         0.0559
     34 H14        -3.6768   -4.2697   -1.9532 H         1 <0>         0.0530
     35 H15        -4.0689   -2.8860   -0.9045 H         1 <0>         0.0560
     36 H16         0.6654   -4.8070   -2.6914 H         1 <0>         0.4155
     37 H17         1.5529   -2.7769   -5.4160 H         1 <0>         0.1505
     38 H18         1.7124   -3.5203   -7.7568 H         1 <0>         0.1471
     39 H19        -0.1139   -7.2308   -6.7126 H         1 <0>         0.1477
     40 H20        -0.2677   -6.5012   -4.3671 H         1 <0>         0.1380
     41 H21         2.9816   -6.7957   -8.4652 H         1 <0>         0.4165
     42 H22         2.6394   -7.0831  -10.0847 H         1 <0>         0.4212
@<TRIPOS>BOND
     1    1    2 1
     2    1   21 1
     3    1   22 1
     4    1   23 1
     5    2    3 1
     6    2   24 1
     7    2   25 1
     8    3    4 1
     9    3   26 1
    10    3   27 1
    11    4    5 1
    12    4    8 1
    13    4   28 1
    14    5    6 1
    15    5   29 1
    16    5   30 1
    17    6    7 1
    18    6   31 1
    19    6   32 1
    20    7   33 1
    21    7   34 1
    22    7   35 1
    23    8    9 2
    24    8   10 am
    25   10   11 1
    26   10   36 1
    27   11   16 ar
    28   11   12 ar
    29   12   13 ar
    30   12   37 1
    31   13   14 ar
    32   13   38 1
    33   14   15 ar
    34   14   17 1
    35   15   16 ar
    36   15   39 1
    37   16   40 1
    38   17   18 2
    39   17   19 2
    40   17   20 1
    41   20   41 1
    42   20   42 1
@<TRIPOS>MOLECULE
ZINC05925100
   38    39     0     0     0
SMALL
USER_CHARGES

@<TRIPOS>ATOM
      1 C1         -0.0173    1.4248    0.0099 C.3       1 <0>         0.0192
      2 O1          0.0021   -0.0041    0.0020 O.3       1 <0>        -0.2957
      3 C2         -1.2012   -0.6379    0.0101 C.ar      1 <0>         0.1472
      4 C3         -2.3702    0.0997    0.0195 C.ar      1 <0>        -0.1629
      5 C4         -3.6060   -0.5522    0.0273 C.ar      1 <0>        -0.0647
      6 C5         -3.6566   -1.9485    0.0257 C.ar      1 <0>        -0.2025
      7 C6         -2.4846   -2.6813    0.0163 C.ar      1 <0>         0.1480
      8 C7         -1.2545   -2.0292    0.0031 C.ar      1 <0>         0.0672
      9 O2         -0.1038   -2.7520   -0.0113 O.3       1 <0>        -0.3108
     10 C8          0.4572   -3.1039    1.2550 C.3       1 <0>         0.0351
     11 O3         -2.5332   -4.0405    0.0147 O.3       1 <0>        -0.2954
     12 C9         -3.8288   -4.6434    0.0230 C.3       1 <0>         0.0191
     13 C10        -4.8556    0.2327    0.0378 C.2       1 <0>         0.5610
     14 O4         -4.8103    1.4478    0.0396 O.2       1 <0>        -0.4429
     15 N1         -6.0470   -0.3973    0.0453 N.am      1 <0>        -0.6039
     16 C11        -7.2238    0.3419    0.0552 C.2       1 <0>         0.3213
     17 N2         -7.4064    1.6553    0.0530 N.2       1 <0>        -0.2902
     18 N3         -8.5593    2.1666    0.0633 N.2       1 <0>        -0.1258
     19 C12        -9.6533    1.4312    0.0770 C.2       1 <0>        -0.5430
     20 S1         -8.9285   -0.2060    0.0666 S.3       1 <0>         0.1348
     21 S2        -11.3461    1.9200    0.0930 S.o2      1 <0>         2.7463
     22 O5        -11.7101    2.1678   -1.2581 O.2       1 <0>        -0.9337
     23 O6        -12.0329    0.9790    0.9066 O.2       1 <0>        -0.9332
     24 N4        -11.4282    3.3749    0.8797 N.pl3     1 <0>        -1.2306
     25 H1          1.0053    1.8021    0.0021 H         1 <0>         0.1093
     26 H2         -0.5445    1.7859   -0.8732 H         1 <0>         0.0630
     27 H3         -0.5275    1.7763    0.9067 H         1 <0>         0.0618
     28 H4         -2.3283    1.1788    0.0211 H         1 <0>         0.1552
     29 H5         -4.6106   -2.4548    0.0321 H         1 <0>         0.1374
     30 H6          1.3709   -3.6779    1.1007 H         1 <0>         0.0982
     31 H7          0.6877   -2.1975    1.8148 H         1 <0>         0.0484
     32 H8         -0.2590   -3.7048    1.8154 H         1 <0>         0.0479
     33 H9         -3.7246   -5.7284    0.0207 H         1 <0>         0.1098
     34 H10        -4.3686   -4.3321    0.9173 H         1 <0>         0.0592
     35 H11        -4.3812   -4.3295   -0.8626 H         1 <0>         0.0604
     36 H12        -6.0831   -1.3666    0.0439 H         1 <0>         0.4331
     37 H13       -12.1182    4.0149    0.6450 H         1 <0>         0.4287
     38 H14       -10.7862    3.5871    1.5752 H         1 <0>         0.4235
@<TRIPOS>BOND
     1    1    2 1
     2    1   25 1
     3    1   26 1
     4    1   27 1
     5    2    3 1
     6    3    8 ar
     7    3    4 ar
     8    4    5 ar
     9    4   28 1
    10    5    6 ar
    11    5   13 1
    12    6    7 ar
    13    6   29 1
    14    7    8 ar
    15    7   11 1
    16    8    9 1
    17    9   10 1
    18   10   30 1
    19   10   31 1
    20   10   32 1
    21   11   12 1
    22   12   33 1
    23   12   34 1
    24   12   35 1
    25   13   14 2
    26   13   15 am
    27   15   16 1
    28   15   36 1
    29   16   20 1
    30   16   17 2
    31   17   18 1
    32   18   19 2
    33   19   20 1
    34   19   21 1
    35   21   22 2
    36   21   23 2
    37   21   24 1
    38   24   37 1
    39   24   38 1
@<TRIPOS>MOLECULE
ZINC05925100
   37    38     0     0     0
SMALL
USER_CHARGES

@<TRIPOS>ATOM
      1 C1         -0.0173    1.4248    0.0099 C.3       1 <0>         0.0195
      2 O1          0.0021   -0.0041    0.0020 O.3       1 <0>        -0.2987
      3 C2         -1.2012   -0.6379    0.0101 C.ar      1 <0>         0.1459
      4 C3         -2.3702    0.0997    0.0195 C.ar      1 <0>        -0.1664
      5 C4         -3.6060   -0.5522    0.0273 C.ar      1 <0>        -0.0532
      6 C5         -3.6566   -1.9485    0.0257 C.ar      1 <0>        -0.2027
      7 C6         -2.4846   -2.6813    0.0163 C.ar      1 <0>         0.1468
      8 C7         -1.2545   -2.0292    0.0031 C.ar      1 <0>         0.0582
      9 O2         -0.1038   -2.7520   -0.0113 O.3       1 <0>        -0.3114
     10 C8          0.4572   -3.1039    1.2550 C.3       1 <0>         0.0351
     11 O3         -2.5332   -4.0405    0.0147 O.3       1 <0>        -0.2983
     12 C9         -3.8288   -4.6434    0.0230 C.3       1 <0>         0.0189
     13 C10        -4.8556    0.2327    0.0378 C.2       1 <0>         0.5550
     14 O4         -4.8103    1.4478    0.0396 O.2       1 <0>        -0.4502
     15 N1         -6.0470   -0.3973    0.0453 N.am      1 <0>        -0.6058
     16 C11        -7.2238    0.3419    0.0552 C.2       1 <0>         0.2784
     17 N2         -7.4064    1.6553    0.0530 N.2       1 <0>        -0.2889
     18 N3         -8.5593    2.1666    0.0633 N.2       1 <0>        -0.1514
     19 C12        -9.6533    1.4312    0.0770 C.2       1 <0>        -0.3834
     20 S1         -8.9285   -0.2060    0.0666 S.3       1 <0>         0.0408
     21 S2        -11.3461    1.9200    0.0930 S.o2      1 <0>         2.5975
     22 O5        -11.7101    2.1678   -1.2581 O.2       1 <0>        -1.0341
     23 O6        -12.0329    0.9790    0.9066 O.2       1 <0>        -1.0395
     24 N4        -11.4282    3.3749    0.8797 N.2       1 <0>        -1.3099
     25 H1          1.0053    1.8021    0.0021 H         1 <0>         0.1064
     26 H2         -0.5445    1.7859   -0.8732 H         1 <0>         0.0631
     27 H3         -0.5275    1.7763    0.9067 H         1 <0>         0.0620
     28 H4         -2.3283    1.1788    0.0211 H         1 <0>         0.1549
     29 H5         -4.6106   -2.4548    0.0321 H         1 <0>         0.1386
     30 H6          0.6877   -2.1975    1.8148 H         1 <0>         0.0471
     31 H7         -0.2590   -3.7048    1.8154 H         1 <0>         0.0467
     32 H8          1.3709   -3.6779    1.1007 H         1 <0>         0.0948
     33 H9         -3.7246   -5.7284    0.0207 H         1 <0>         0.1072
     34 H10        -4.3686   -4.3321    0.9173 H         1 <0>         0.0600
     35 H11        -4.3812   -4.3295   -0.8626 H         1 <0>         0.0610
     36 H12        -6.0831   -1.3666    0.0439 H         1 <0>         0.4255
     37 H13       -12.2841    3.8165    0.9946 H         1 <0>         0.3304
@<TRIPOS>BOND
     1    1    2 1
     2    1   25 1
     3    1   26 1
     4    1   27 1
     5    2    3 1
     6    3    8 ar
     7    3    4 ar
     8    4    5 ar
     9    4   28 1
    10    5    6 ar
    11    5   13 1
    12    6    7 ar
    13    6   29 1
    14    7    8 ar
    15    7   11 1
    16    8    9 1
    17    9   10 1
    18   10   30 1
    19   10   31 1
    20   10   32 1
    21   11   12 1
    22   12   33 1
    23   12   34 1
    24   12   35 1
    25   13   14 2
    26   13   15 am
    27   15   16 1
    28   15   36 1
    29   16   20 1
    30   16   17 2
    31   17   18 1
    32   18   19 2
    33   19   20 1
    34   19   21 1
    35   21   22 2
    36   21   23 2
    37   21   24 1
    38   24   37 1
@<TRIPOS>MOLECULE
ZINC13471982
   42    42     0     0     0
SMALL
USER_CHARGES

@<TRIPOS>ATOM
      1 C1         -0.1461    1.0987   -0.0650 C.3       1 <0>        -0.1539
      2 C2         -0.2298   -0.4258   -0.1641 C.3       1 <0>        -0.1250
      3 C3          0.2398   -0.8733   -1.5499 C.3       1 <0>        -0.1057
      4 C4          0.1561   -2.3978   -1.6490 C.3       1 <0>        -0.1037
      5 C5         -1.3070   -2.8353   -1.5566 C.3       1 <0>        -0.1125
      6 C6         -2.0850   -2.2683   -2.7457 C.3       1 <0>        -0.1307
      7 C7         -3.5103   -2.8244   -2.7346 C.3       1 <0>        -0.1523
      8 C8          0.7328   -2.8479   -2.9665 C.2       1 <0>         0.5246
      9 O1          0.7630   -2.0837   -3.9080 O.2       1 <0>        -0.5039
     10 N1          1.2149   -4.0995   -3.0987 N.am      1 <0>        -0.6785
     11 C9          1.6502   -4.5533   -4.3491 C.ar      1 <0>         0.2363
     12 C10         2.3477   -3.7007   -5.1946 C.ar      1 <0>        -0.1344
     13 C11         2.7764   -4.1515   -6.4277 C.ar      1 <0>         0.0164
     14 C12         2.5115   -5.4506   -6.8213 C.ar      1 <0>        -0.6894
     15 C13         1.8170   -6.3024   -5.9826 C.ar      1 <0>         0.0306
     16 C14         1.3905   -5.8595   -4.7447 C.ar      1 <0>        -0.1459
     17 Br1         0.4474   -7.0273   -3.5947 Br        1 <0>        -0.0258
     18 S1          3.0599   -6.0212   -8.3956 S.o2      1 <0>         2.7048
     19 O2          2.2132   -7.1052   -8.7522 O.2       1 <0>        -0.9585
     20 O3          3.2098   -4.8700   -9.2152 O.2       1 <0>        -0.9575
     21 N2          4.5760   -6.6537   -8.1862 N.pl3     1 <0>        -1.2489
     22 H1          0.8849    1.4168   -0.2195 H         1 <0>         0.0543
     23 H2         -0.7831    1.5479   -0.8270 H         1 <0>         0.0554
     24 H3         -0.4806    1.4175    0.9222 H         1 <0>         0.0557
     25 H4          0.4072   -0.8749    0.5979 H         1 <0>         0.0622
     26 H5         -1.2608   -0.7439   -0.0096 H         1 <0>         0.0667
     27 H6         -0.3972   -0.4241   -2.3119 H         1 <0>         0.0800
     28 H7          1.2708   -0.5551   -1.7044 H         1 <0>         0.0670
     29 H8          0.7218   -2.8465   -0.8325 H         1 <0>         0.0968
     30 H9         -1.3624   -3.9238   -1.5719 H         1 <0>         0.0685
     31 H10        -1.7398   -2.4626   -0.6282 H         1 <0>         0.0845
     32 H11        -2.1186   -1.1812   -2.6729 H         1 <0>         0.0694
     33 H12        -1.5903   -2.5552   -3.6737 H         1 <0>         0.0628
     34 H13        -4.0646   -2.4204   -3.5818 H         1 <0>         0.0556
     35 H14        -3.4768   -3.9114   -2.8074 H         1 <0>         0.0529
     36 H15        -4.0051   -2.5375   -1.8067 H         1 <0>         0.0551
     37 H16         1.2602   -4.6858   -2.3273 H         1 <0>         0.4178
     38 H17         2.5544   -2.6858   -4.8885 H         1 <0>         0.1563
     39 H18         3.3188   -3.4887   -7.0855 H         1 <0>         0.1553
     40 H19         1.6112   -7.3161   -6.2932 H         1 <0>         0.1577
     41 H20         4.9843   -6.6536   -7.3064 H         1 <0>         0.4172
     42 H21         5.0556   -7.0244   -8.9435 H         1 <0>         0.4228
@<TRIPOS>BOND
     1    1    2 1
     2    1   22 1
     3    1   23 1
     4    1   24 1
     5    2    3 1
     6    2   25 1
     7    2   26 1
     8    3    4 1
     9    3   27 1
    10    3   28 1
    11    4    5 1
    12    4    8 1
    13    4   29 1
    14    5    6 1
    15    5   30 1
    16    5   31 1
    17    6    7 1
    18    6   32 1
    19    6   33 1
    20    7   34 1
    21    7   35 1
    22    7   36 1
    23    8    9 2
    24    8   10 am
    25   10   11 1
    26   10   37 1
    27   11   16 ar
    28   11   12 ar
    29   12   13 ar
    30   12   38 1
    31   13   14 ar
    32   13   39 1
    33   14   15 ar
    34   14   18 1
    35   15   16 ar
    36   15   40 1
    37   16   17 1
    38   18   19 2
    39   18   20 2
    40   18   21 1
    41   21   41 1
    42   21   42 1
@<TRIPOS>MOLECULE
ZINC18274777
   20    20     0     0     0
SMALL
USER_CHARGES

@<TRIPOS>ATOM
      1 C1         -2.1938    1.4701    0.6085 C.3       1 <0>        -0.1738
      2 C2         -2.1691   -0.0367    0.6077 C.2       1 <0>         0.5100
      3 O1         -3.0611   -0.6582    1.1456 O.2       1 <0>        -0.5253
      4 N1         -1.1558   -0.6938    0.0094 N.am      1 <0>        -0.6760
      5 C3         -1.0811   -2.0905    0.0916 C.ar      1 <0>         0.1315
      6 C4          0.1554   -2.7160    0.1778 C.ar      1 <0>        -0.1278
      7 C5          0.2283   -4.0925    0.2593 C.ar      1 <0>        -0.1267
      8 C6         -0.9336   -4.8504    0.2546 C.ar      1 <0>         0.0907
      9 C7         -2.1693   -4.2261    0.1680 C.ar      1 <0>        -0.1267
     10 C8         -2.2439   -2.8493    0.0927 C.ar      1 <0>        -0.1043
     11 O2         -0.8611   -6.2059    0.3344 O.3       1 <0>        -0.4991
     12 H1         -3.0822    1.8186    1.1352 H         1 <0>         0.0977
     13 H2         -1.3026    1.8478    1.1098 H         1 <0>         0.0926
     14 H3         -2.2144    1.8337   -0.4188 H         1 <0>         0.0926
     15 H4         -0.4783   -0.1997   -0.4782 H         1 <0>         0.4131
     16 H5          1.0601   -2.1261    0.1808 H         1 <0>         0.1308
     17 H6          1.1901   -4.5792    0.3264 H         1 <0>         0.1337
     18 H7         -3.0735   -4.8168    0.1636 H         1 <0>         0.1330
     19 H8         -3.2062   -2.3631    0.0301 H         1 <0>         0.1433
     20 H9         -0.8763   -6.5480    1.2387 H         1 <0>         0.3908
@<TRIPOS>BOND
     1    1    2 1
     2    1   12 1
     3    1   13 1
     4    1   14 1
     5    2    3 2
     6    2    4 am
     7    4    5 1
     8    4   15 1
     9    5   10 ar
    10    5    6 ar
    11    6    7 ar
    12    6   16 1
    13    7    8 ar
    14    7   17 1
    15    8    9 ar
    16    8   11 1
    17    9   10 ar
    18    9   18 1
    19   10   19 1
    20   11   20 1
@<TRIPOS>MOLECULE
ZINC00899824
   47    48     0     0     0
SMALL
USER_CHARGES

@<TRIPOS>ATOM
      1 C1         -0.0173    1.4248    0.0099 C.3       1 <0>         0.0223
      2 O1          0.0021   -0.0041    0.0020 O.3       1 <0>        -0.3062
      3 C2          0.6062   -0.6075   -1.0564 C.ar      1 <0>         0.1006
      4 C3          1.1701    0.1578   -2.0573 C.ar      1 <0>        -0.1693
      5 C4          1.7915   -0.4674   -3.1460 C.ar      1 <0>        -0.0548
      6 C5          1.8369   -1.8658   -3.2124 C.ar      1 <0>        -0.1153
      7 C6          1.2717   -2.6208   -2.2092 C.ar      1 <0>        -0.1104
      8 C7          0.6608   -1.9995   -1.1274 C.ar      1 <0>         0.0921
      9 O2          0.1105   -2.7497   -0.1383 O.3       1 <0>        -0.4848
     10 C8          2.3926    0.3403   -4.2140 C.2       1 <0>        -0.0031
     11 C9          2.9934   -0.2669   -5.2666 C.2       1 <0>        -0.2426
     12 C10         3.5700    0.5078   -6.2910 C.2       1 <0>         0.3746
     13 C11         4.2380   -0.1673   -7.4611 C.3       1 <0>        -0.2163
     14 C12         4.7690    0.8780   -8.4080 C.2       1 <0>         0.3746
     15 O3          4.6195    2.0570   -8.1569 O.2       1 <0>        -0.4254
     16 C13         5.4382    0.4879   -9.5835 C.2       1 <0>        -0.2426
     17 C14         5.9159    1.4282  -10.4353 C.2       1 <0>        -0.0031
     18 C15         6.6137    1.0215  -11.6609 C.ar      1 <0>        -0.0549
     19 C16         6.7822   -0.3375  -11.9554 C.ar      1 <0>        -0.1153
     20 C17         7.4373   -0.7158  -13.1059 C.ar      1 <0>        -0.1104
     21 C18         7.9326    0.2469  -13.9763 C.ar      1 <0>         0.0920
     22 C19         7.7694    1.6023  -13.6901 C.ar      1 <0>         0.1006
     23 C20         7.1082    1.9913  -12.5425 C.ar      1 <0>        -0.1693
     24 O4          8.2569    2.5409  -14.5450 O.3       1 <0>        -0.3062
     25 C21         8.0541    3.9101  -14.1894 C.3       1 <0>         0.0223
     26 O5          8.5781   -0.1327  -15.1090 O.3       1 <0>        -0.4848
     27 O6          3.5292    1.7203   -6.2316 O.2       1 <0>        -0.4254
     28 H1          1.0053    1.8021    0.0021 H         1 <0>         0.0579
     29 H2         -0.5445    1.7859   -0.8732 H         1 <0>         0.0575
     30 H3         -0.5275    1.7763    0.9067 H         1 <0>         0.1046
     31 H4          1.1319    1.2357   -2.0014 H         1 <0>         0.1391
     32 H5          2.3148   -2.3516   -4.0503 H         1 <0>         0.1371
     33 H6          1.3073   -3.6990   -2.2614 H         1 <0>         0.1423
     34 H7         -0.8182   -2.9751   -0.2859 H         1 <0>         0.3908
     35 H8          2.3563    1.4184   -4.1613 H         1 <0>         0.1367
     36 H9          3.0298   -1.3450   -5.3193 H         1 <0>         0.1356
     37 H10         5.0615   -0.7848   -7.1027 H         1 <0>         0.1288
     38 H11         5.5711   -0.5604   -9.8068 H         1 <0>         0.1356
     39 H12         5.7830    2.4765  -10.2120 H         1 <0>         0.1368
     40 H13         6.3989   -1.0882  -11.2802 H         1 <0>         0.1371
     41 H14         7.5667   -1.7639  -13.3320 H         1 <0>         0.1423
     42 H15         6.9767    3.0405  -12.3226 H         1 <0>         0.1391
     43 H16         6.9855    4.1110  -14.1123 H         1 <0>         0.0575
     44 H17         8.5317    4.1110  -13.2305 H         1 <0>         0.0580
     45 H18         8.4902    4.5526  -14.9543 H         1 <0>         0.1045
     46 H19         7.9975   -0.2431  -15.8744 H         1 <0>         0.3910
     47 H20         3.5134   -0.7940   -7.9810 H         1 <0>         0.1286
@<TRIPOS>BOND
     1    1    2 1
     2    1   28 1
     3    1   29 1
     4    1   30 1
     5    2    3 1
     6    3    8 ar
     7    3    4 ar
     8    4    5 ar
     9    4   31 1
    10    5    6 ar
    11    5   10 1
    12    6    7 ar
    13    6   32 1
    14    7    8 ar
    15    7   33 1
    16    8    9 1
    17    9   34 1
    18   10   11 2
    19   10   35 1
    20   11   12 1
    21   11   36 1
    22   12   13 1
    23   12   27 2
    24   13   14 1
    25   13   37 1
    26   13   47 1
    27   14   15 2
    28   14   16 1
    29   16   17 2
    30   16   38 1
    31   17   18 1
    32   17   39 1
    33   18   23 ar
    34   18   19 ar
    35   19   20 ar
    36   19   40 1
    37   20   21 ar
    38   20   41 1
    39   21   22 ar
    40   21   26 1
    41   22   23 ar
    42   22   24 1
    43   23   42 1
    44   24   25 1
    45   25   43 1
    46   25   44 1
    47   25   45 1
    48   26   46 1
@<TRIPOS>MOLECULE
ZINC00481325
   30    31     0     0     0
SMALL
USER_CHARGES

@<TRIPOS>ATOM
      1 C1         -0.0167    1.3781    0.0096 C.ar      1 <0>        -0.1069
      2 C2          1.1709    2.0855    0.0021 C.ar      1 <0>        -0.1193
      3 C3          2.3773    1.4107   -0.0130 C.ar      1 <0>        -0.0989
      4 C4          2.3960    0.0285   -0.0201 C.ar      1 <0>        -0.0861
      5 C5          1.2084   -0.6789   -0.0117 C.ar      1 <0>        -0.0962
      6 C6          0.0021   -0.0041    0.0020 C.ar      1 <0>        -0.1180
      7 C7          3.7112   -0.7071   -0.0376 C.3       1 <0>        -0.0781
      8 S1          4.2568   -1.0108    1.6656 S.3       1 <0>        -0.0397
      9 C8          5.7857   -1.8662    1.4773 C.ar      1 <0>         0.0406
     10 C9          6.2977   -2.1471    0.2096 C.ar      1 <0>        -0.2129
     11 C10         7.4972   -2.8184    0.1057 C.ar      1 <0>         0.1756
     12 N1          8.1584   -3.1943    1.1849 N.ar      1 <0>        -0.5013
     13 C11         7.7078   -2.9476    2.4008 C.ar      1 <0>         0.2227
     14 C12         6.5190   -2.2754    2.5915 C.ar      1 <0>        -0.7282
     15 S2          5.9309   -1.9443    4.2191 S.o2      1 <0>         2.7009
     16 O1          4.5721   -2.3590    4.2521 O.2       1 <0>        -0.9409
     17 O2          6.9062   -2.4582    5.1157 O.2       1 <0>        -0.9556
     18 N2          5.9287   -0.2998    4.4138 N.pl3     1 <0>        -1.2410
     19 H1         -0.9591    1.9053    0.0259 H         1 <0>         0.1264
     20 H2          1.1563    3.1654    0.0076 H         1 <0>         0.1273
     21 H3          3.3051    1.9634   -0.0196 H         1 <0>         0.1255
     22 H4          1.2231   -1.7588   -0.0176 H         1 <0>         0.1269
     23 H5         -0.9258   -0.5567    0.0082 H         1 <0>         0.1279
     24 H6          3.5884   -1.6586   -0.5549 H         1 <0>         0.1053
     25 H7          4.4573   -0.1052   -0.5563 H         1 <0>         0.1038
     26 H8          5.7616   -1.8431   -0.6773 H         1 <0>         0.1456
     27 H9          7.9011   -3.0400   -0.8711 H         1 <0>         0.1697
     28 H10         8.2796   -3.2727    3.2574 H         1 <0>         0.1826
     29 H11         5.2806    0.1180    5.0022 H         1 <0>         0.4246
     30 H12         6.5757    0.2456    3.9395 H         1 <0>         0.4177
@<TRIPOS>BOND
     1    1    6 ar
     2    1    2 ar
     3    1   19 1
     4    2    3 ar
     5    2   20 1
     6    3    4 ar
     7    3   21 1
     8    4    5 ar
     9    4    7 1
    10    5    6 ar
    11    5   22 1
    12    6   23 1
    13    7    8 1
    14    7   24 1
    15    7   25 1
    16    8    9 1
    17    9   14 ar
    18    9   10 ar
    19   10   11 ar
    20   10   26 1
    21   11   12 ar
    22   11   27 1
    23   12   13 ar
    24   13   14 ar
    25   13   28 1
    26   14   15 1
    27   15   16 2
    28   15   17 2
    29   15   18 1
    30   18   29 1
    31   18   30 1
@<TRIPOS>MOLECULE
ZINC39054028
   20    20     0     0     0
SMALL
USER_CHARGES

@<TRIPOS>ATOM
      1 C1         -0.0168    1.3903    0.0097 C.ar      1 <0>        -0.2528
      2 C2          1.1794    2.0767    0.0020 C.ar      1 <0>         0.1854
      3 N1          2.3301    1.4306   -0.0125 N.ar      1 <0>        -0.5301
      4 C3          2.3899    0.1119   -0.0202 C.ar      1 <0>         0.2460
      5 C4          1.2395   -0.6479   -0.0133 C.ar      1 <0>        -0.8048
      6 C5          0.0021   -0.0041    0.0020 C.ar      1 <0>         0.3422
      7 N2         -1.1826   -0.7342    0.0099 N.pl3     1 <0>        -0.5754
      8 N3         -2.3847   -0.0855    0.0253 N.3       1 <0>        -0.5995
      9 S1          1.3309   -2.4075   -0.0242 S.o2      1 <0>         2.7084
     10 O1          0.4473   -2.8538   -1.0437 O.2       1 <0>        -0.9691
     11 O2          2.7118   -2.7425   -0.0125 O.2       1 <0>        -0.9561
     12 N4          0.7026   -2.9394    1.4128 N.pl3     1 <0>        -1.2528
     13 H1         -0.9550    1.9252    0.0260 H         1 <0>         0.1487
     14 H2          1.1744    3.1567    0.0074 H         1 <0>         0.1661
     15 H3          3.3523   -0.3781   -0.0323 H         1 <0>         0.1781
     16 H4         -1.1548   -1.7038    0.0044 H         1 <0>         0.4095
     17 H5         -2.4607    0.5534   -0.7520 H         1 <0>         0.3459
     18 H6         -3.1503   -0.7427    0.0294 H         1 <0>         0.3690
     19 H7          0.3744   -2.3005    2.0647 H         1 <0>         0.4178
     20 H8          0.6629   -3.8898    1.6026 H         1 <0>         0.4236
@<TRIPOS>BOND
     1    1    6 ar
     2    1    2 ar
     3    1   13 1
     4    2    3 ar
     5    2   14 1
     6    3    4 ar
     7    4    5 ar
     8    4   15 1
     9    5    6 ar
    10    5    9 1
    11    6    7 1
    12    7    8 1
    13    7   16 1
    14    8   17 1
    15    8   18 1
    16    9   10 2
    17    9   11 2
    18    9   12 1
    19   12   19 1
    20   12   20 1
@<TRIPOS>MOLECULE
ZINC02570895
   40    42     0     0     0
SMALL
USER_CHARGES

@<TRIPOS>ATOM
      1 C1          0.0405    1.5033    0.0105 C.3       1 <0>        -0.1224
      2 C2          0.0481   -0.0036    0.0022 C.ar      1 <0>        -0.0617
      3 C3         -0.4654   -0.6891   -1.0843 C.ar      1 <0>        -0.1180
      4 C4         -0.4609   -2.0687   -1.0981 C.ar      1 <0>        -0.0762
      5 C5          0.0630   -2.7726   -0.0133 C.ar      1 <0>        -0.0606
      6 C6          0.5793   -2.0754    1.0794 C.ar      1 <0>        -0.0985
      7 C7          0.5738   -0.6957    1.0787 C.ar      1 <0>        -0.1165
      8 C8          0.0704   -4.2518   -0.0214 C.2       1 <0>         0.1497
      9 C9          0.0778   -5.0559   -1.1264 C.2       1 <0>        -0.2047
     10 C10         0.0841   -6.3814   -0.6911 C.2       1 <0>        -0.0034
     11 N1          0.0806   -6.3920    0.6183 N.2       1 <0>        -0.2184
     12 N2          0.0772   -5.0674    1.0740 N.pl3     1 <0>        -0.3181
     13 C11         0.0780   -4.6538    2.4124 C.ar      1 <0>         0.1993
     14 C12        -0.7877   -3.6523    2.8316 C.ar      1 <0>        -0.1310
     15 C13        -0.7845   -3.2467    4.1518 C.ar      1 <0>        -0.0008
     16 C14         0.0799   -3.8365    5.0557 C.ar      1 <0>        -0.6729
     17 C15         0.9432   -4.8341    4.6414 C.ar      1 <0>         0.0013
     18 C16         0.9405   -5.2485    3.3238 C.ar      1 <0>        -0.1237
     19 S1          0.0817   -3.3155    6.7389 S.o2      1 <0>         2.7035
     20 O1          1.3615   -3.6412    7.2635 O.2       1 <0>        -0.9570
     21 O2         -0.4336   -1.9913    6.7547 O.2       1 <0>        -0.9571
     22 N3         -1.0144   -4.2595    7.5449 N.pl3     1 <0>        -1.2487
     23 C17         0.0927   -7.5984   -1.5799 C.3       1 <0>         0.5581
     24 F1          1.4144   -7.9678   -1.8518 F         1 <0>        -0.1637
     25 F2         -0.5625   -8.6523   -0.9339 F         1 <0>        -0.1639
     26 F3         -0.5656   -7.3049   -2.7789 F         1 <0>        -0.1610
     27 H1          0.9639    1.8738   -0.4347 H         1 <0>         0.0767
     28 H2         -0.8113    1.8655   -0.5652 H         1 <0>         0.0714
     29 H3         -0.0366    1.8607    1.0374 H         1 <0>         0.0715
     30 H4         -0.8709   -0.1431   -1.9232 H         1 <0>         0.1331
     31 H5         -0.8624   -2.6027   -1.9467 H         1 <0>         0.1336
     32 H6          0.9862   -2.6145    1.9221 H         1 <0>         0.1246
     33 H7          0.9772   -0.1548    1.9220 H         1 <0>         0.1315
     34 H8          0.0784   -4.7241   -2.1542 H         1 <0>         0.1732
     35 H9         -1.4626   -3.1908    2.1259 H         1 <0>         0.1459
     36 H10        -1.4576   -2.4679    4.4785 H         1 <0>         0.1580
     37 H11         1.6174   -5.2926    5.3496 H         1 <0>         0.1579
     38 H12         1.6117   -6.0309    3.0018 H         1 <0>         0.1479
     39 H13        -1.5085   -4.9443    7.0675 H         1 <0>         0.4179
     40 H14        -1.1624   -4.1277    8.4945 H         1 <0>         0.4235
@<TRIPOS>BOND
     1    1    2 1
     2    1   27 1
     3    1   28 1
     4    1   29 1
     5    2    7 ar
     6    2    3 ar
     7    3    4 ar
     8    3   30 1
     9    4    5 ar
    10    4   31 1
    11    5    6 ar
    12    5    8 1
    13    6    7 ar
    14    6   32 1
    15    7   33 1
    16    8   12 1
    17    8    9 2
    18    9   10 1
    19    9   34 1
    20   10   11 2
    21   10   23 1
    22   11   12 1
    23   12   13 1
    24   13   18 ar
    25   13   14 ar
    26   14   15 ar
    27   14   35 1
    28   15   16 ar
    29   15   36 1
    30   16   17 ar
    31   16   19 1
    32   17   18 ar
    33   17   37 1
    34   18   38 1
    35   19   20 2
    36   19   21 2
    37   19   22 1
    38   22   39 1
    39   22   40 1
    40   23   24 1
    41   23   25 1
    42   23   26 1
@<TRIPOS>MOLECULE
ZINC00392017
   22    22     0     0     0
SMALL
USER_CHARGES

@<TRIPOS>ATOM
      1 C1         -0.0173    1.4248    0.0099 C.3       1 <0>         0.0292
      2 O1          0.0021   -0.0041    0.0020 O.3       1 <0>        -0.3121
      3 C2         -1.1990   -0.6368    0.0101 C.ar      1 <0>         0.0856
      4 C3         -2.3729    0.1055    0.0195 C.ar      1 <0>        -0.1889
      5 C4         -3.5940   -0.5310    0.0272 C.ar      1 <0>        -0.0816
      6 C5         -3.6541   -1.9284    0.0257 C.ar      1 <0>        -0.1304
      7 C6         -2.4714   -2.6758    0.0162 C.ar      1 <0>        -0.1341
      8 C7         -1.2510   -2.0304    0.0031 C.ar      1 <0>         0.0762
      9 O2         -0.0994   -2.7537   -0.0118 O.3       1 <0>        -0.3154
     10 C8         -0.2273   -4.1769   -0.0182 C.3       1 <0>         0.0277
     11 C9         -4.9586   -2.6112    0.0344 C.2       1 <0>         0.5224
     12 O3         -5.9918   -1.9561    0.0431 O.co2     1 <0>        -0.6864
     13 O4         -5.0093   -3.8335    0.0330 O.co2     1 <0>        -0.6885
     14 H1          1.0053    1.8021    0.0021 H         1 <0>         0.0929
     15 H2         -0.5445    1.7859   -0.8732 H         1 <0>         0.0511
     16 H3         -0.5275    1.7763    0.9067 H         1 <0>         0.0511
     17 H4         -2.3279    1.1846    0.0211 H         1 <0>         0.1278
     18 H5         -4.5052    0.0487    0.0349 H         1 <0>         0.1317
     19 H6         -2.5131   -3.7550    0.0154 H         1 <0>         0.1405
     20 H7         -0.7800   -4.4881   -0.9046 H         1 <0>         0.0541
     21 H8          0.7637   -4.6307   -0.0301 H         1 <0>         0.0931
     22 H9         -0.7630   -4.4976    0.8752 H         1 <0>         0.0541
@<TRIPOS>BOND
     1    1    2 1
     2    1   14 1
     3    1   15 1
     4    1   16 1
     5    2    3 1
     6    3    8 ar
     7    3    4 ar
     8    4    5 ar
     9    4   17 1
    10    5    6 ar
    11    5   18 1
    12    6    7 ar
    13    6   11 1
    14    7    8 ar
    15    7   19 1
    16    8    9 1
    17    9   10 1
    18   10   20 1
    19   10   21 1
    20   10   22 1
    21   11   12 2
    22   11   13 1
@<TRIPOS>MOLECULE
ZINC01088182
   19    19     0     0     0
SMALL
USER_CHARGES

@<TRIPOS>ATOM
      1 C1         -0.0166    1.3736    0.0096 C.ar      1 <0>         0.0366
      2 C2          1.1863    2.0863    0.0019 C.ar      1 <0>        -0.1420
      3 C3          2.4018    1.3939   -0.0134 C.ar      1 <0>         0.0540
      4 C4          2.4052    0.0133   -0.0208 C.ar      1 <0>        -0.1400
      5 C5          1.2096   -0.6846   -0.0136 C.ar      1 <0>         0.0531
      6 C6          0.0021   -0.0041    0.0020 C.ar      1 <0>        -0.6890
      7 S1         -1.5132   -0.9033    0.0117 S.o2      1 <0>         2.7034
      8 O1         -1.3955   -1.8865    1.0308 O.2       1 <0>        -0.9537
      9 O2         -2.5574    0.0604   -0.0003 O.2       1 <0>        -0.9558
     10 N1         -1.6067   -1.7204   -1.4257 N.pl3     1 <0>        -1.2452
     11 Cl1         1.2226   -2.4206   -0.0236 Cl        1 <0>        -0.0476
     12 Cl2         3.9015    2.2681   -0.0236 Cl        1 <0>        -0.0146
     13 C7          1.1738    3.5599    0.0095 C.2       1 <0>         0.5179
     14 O3          0.1095    4.1624    0.0225 O.co2     1 <0>        -0.6748
     15 O4          2.2278    4.1805    0.0028 O.co2     1 <0>        -0.6536
     16 H1         -0.9584    1.9019    0.0259 H         1 <0>         0.1671
     17 H2          3.3424   -0.5233   -0.0327 H         1 <0>         0.1469
     18 H3         -2.0804   -2.5656   -1.4731 H         1 <0>         0.4194
     19 H4         -1.1879   -1.3539   -2.2201 H         1 <0>         0.4177
@<TRIPOS>BOND
     1    1    6 ar
     2    1    2 ar
     3    1   16 1
     4    2    3 ar
     5    2   13 1
     6    3    4 ar
     7    3   12 1
     8    4    5 ar
     9    4   17 1
    10    5    6 ar
    11    5   11 1
    12    6    7 1
    13    7    8 2
    14    7    9 2
    15    7   10 1
    16   10   18 1
    17   10   19 1
    18   13   14 2
    19   13   15 1
@<TRIPOS>MOLECULE
ZINC05570003
   18    18     0     0     0
SMALL
USER_CHARGES

@<TRIPOS>ATOM
      1 C1         -0.0167    1.3782    0.0096 C.ar      1 <0>        -0.0156
      2 C2          1.1708    2.0857    0.0021 C.ar      1 <0>        -0.1081
      3 C3          2.3776    1.4106   -0.0131 C.ar      1 <0>        -0.0488
      4 C4          2.3961    0.0278   -0.0207 C.ar      1 <0>        -0.1073
      5 C5          1.2083   -0.6792   -0.0132 C.ar      1 <0>        -0.0061
      6 C6          0.0021   -0.0041    0.0020 C.ar      1 <0>        -0.6614
      7 S1         -1.5118   -0.9056    0.0122 S.o2      1 <0>         2.7202
      8 O1         -1.2182   -2.1863    0.5533 O.2       1 <0>        -0.9338
      9 O2         -2.4923   -0.0463    0.5775 O.2       1 <0>        -0.9337
     10 N1         -1.9482   -1.1476   -1.5668 N.pl3     1 <0>        -0.9880
     11 O3         -1.1424   -1.9518   -2.4087 O.3       1 <0>        -0.2980
     12 I1          4.1776    2.4824   -0.0252 I         1 <0>        -0.0222
     13 H1         -0.9592    1.9053    0.0260 H         1 <0>         0.1504
     14 H2          1.1560    3.1655    0.0077 H         1 <0>         0.1417
     15 H3          3.3384   -0.4997   -0.0329 H         1 <0>         0.1420
     16 H4          1.2227   -1.7591   -0.0191 H         1 <0>         0.1520
     17 H5         -2.7559   -0.7384   -1.9149 H         1 <0>         0.4194
     18 H6         -1.4776   -2.0346   -3.3120 H         1 <0>         0.3971
@<TRIPOS>BOND
     1    1    6 ar
     2    1    2 ar
     3    1   13 1
     4    2    3 ar
     5    2   14 1
     6    3    4 ar
     7    3   12 1
     8    4    5 ar
     9    4   15 1
    10    5    6 ar
    11    5   16 1
    12    6    7 1
    13    7    8 2
    14    7    9 2
    15    7   10 1
    16   10   11 1
    17   10   17 1
    18   11   18 1
@<TRIPOS>MOLECULE
ZINC13813802
   20    20     0     0     0
SMALL
USER_CHARGES

@<TRIPOS>ATOM
      1 C1          0.1341    1.2860   -0.2477 C.ar      1 <0>        -0.0584
      2 C2          0.9289    2.3670    0.0858 C.ar      1 <0>        -0.0922
      3 C3          1.9736    2.2079    0.9767 C.ar      1 <0>        -0.0090
      4 C4          2.2235    0.9678    1.5346 C.ar      1 <0>        -0.6324
      5 C5          1.4284   -0.1126    1.2019 C.ar      1 <0>         0.0469
      6 C6          0.3842    0.0462    0.3097 C.ar      1 <0>        -0.0746
      7 N1          1.6965   -1.4404    1.7986 N.pl3     1 <0>         0.0212
      8 O1          0.7764   -2.1589    2.1129 O.2       1 <0>        -0.1043
      9 O2          2.8357   -1.8065    1.9715 O.3       1 <0>        -0.1660
     10 S1          3.5561    0.7647    2.6694 S.o2      1 <0>         2.7194
     11 O3          4.1698    2.0389    2.8074 O.2       1 <0>        -0.9279
     12 O4          3.0380    0.0445    3.7794 O.2       1 <0>        -0.9260
     13 N2          4.6710   -0.2216    1.9439 N.pl3     1 <0>        -0.9653
     14 O5          5.3041    0.1872    0.7451 O.3       1 <0>        -0.3030
     15 H1         -0.6850    1.4113   -0.9403 H         1 <0>         0.1589
     16 H2          0.7337    3.3356   -0.3500 H         1 <0>         0.1570
     17 H3          2.5950    3.0521    1.2366 H         1 <0>         0.1686
     18 H4         -0.2368   -0.7981    0.0495 H         1 <0>         0.1593
     19 H5          4.8905   -1.0793    2.3401 H         1 <0>         0.4290
     20 H6          5.9387   -0.4540    0.3970 H         1 <0>         0.3988
@<TRIPOS>BOND
     1    1    6 ar
     2    1    2 ar
     3    1   15 1
     4    2    3 ar
     5    2   16 1
     6    3    4 ar
     7    3   17 1
     8    4    5 ar
     9    4   10 1
    10    5    6 ar
    11    5    7 1
    12    6   18 1
    13    7    8 2
    14    7    9 1
    15   10   11 2
    16   10   12 2
    17   10   13 1
    18   13   14 1
    19   13   19 1
    20   14   20 1
@<TRIPOS>MOLECULE
ZINC13813791
   21    21     0     0     0
SMALL
USER_CHARGES

@<TRIPOS>ATOM
      1 C1         -0.0184    1.5028    0.0103 C.3       1 <0>        -0.1265
      2 C2          0.0021   -0.0041    0.0020 C.ar      1 <0>        -0.0259
      3 C3          0.0057   -0.6887   -1.1989 C.ar      1 <0>        -0.1445
      4 C4          0.0245   -2.0709   -1.2065 C.ar      1 <0>        -0.0169
      5 C5          0.0400   -2.7685   -0.0132 C.ar      1 <0>        -0.6820
      6 C6          0.0373   -2.0839    1.1877 C.ar      1 <0>        -0.0074
      7 C7          0.0229   -0.7016    1.1953 C.ar      1 <0>        -0.1440
      8 S1          0.0628   -4.5303   -0.0229 S.o2      1 <0>         2.7201
      9 O1         -0.4759   -4.9503    1.2232 O.2       1 <0>        -0.9394
     10 O2         -0.4897   -4.9367   -1.2674 O.2       1 <0>        -0.9388
     11 N1          1.6509   -4.9994   -0.0343 N.pl3     1 <0>        -0.9894
     12 O3          2.4828   -4.7090    1.0741 O.3       1 <0>        -0.2985
     13 H1          1.0042    1.8801    0.0026 H         1 <0>         0.0803
     14 H2         -0.5455    1.8639   -0.8728 H         1 <0>         0.0739
     15 H3         -0.5286    1.8543    0.9071 H         1 <0>         0.0740
     16 H4         -0.0064   -0.1436   -2.1312 H         1 <0>         0.1339
     17 H5          0.0266   -2.6057   -2.1448 H         1 <0>         0.1409
     18 H6          0.0491   -2.6289    2.1200 H         1 <0>         0.1426
     19 H7          0.0245   -0.1667    2.1335 H         1 <0>         0.1342
     20 H8          2.0112   -5.4731   -0.8002 H         1 <0>         0.4179
     21 H9          3.3925   -5.0219    0.9758 H         1 <0>         0.3955
@<TRIPOS>BOND
     1    1    2 1
     2    1   13 1
     3    1   14 1
     4    1   15 1
     5    2    7 ar
     6    2    3 ar
     7    3    4 ar
     8    3   16 1
     9    4    5 ar
    10    4   17 1
    11    5    6 ar
    12    5    8 1
    13    6    7 ar
    14    6   18 1
    15    7   19 1
    16    8    9 2
    17    8   10 2
    18    8   11 1
    19   11   12 1
    20   11   20 1
    21   12   21 1
@<TRIPOS>MOLECULE
ZINC13800504
   30    30     0     0     0
SMALL
USER_CHARGES

@<TRIPOS>ATOM
      1 C1          1.2157    1.4786    0.3417 C.3       1 <0>        -0.0469
      2 N1          1.2468    0.0100    0.3330 N.4       1 <0>        -0.4965
      3 C2          1.2516   -0.4715   -1.0549 C.3       1 <0>        -0.0276
      4 C3          1.2835   -1.9782   -1.0637 C.2       1 <0>         0.5034
      5 O1          1.3006   -2.5906   -0.0170 O.2       1 <0>        -0.5004
      6 N2          1.2931   -2.6451   -2.2349 N.am      1 <0>        -0.6512
      7 C4          1.4176   -4.0391   -2.2454 C.ar      1 <0>         0.2099
      8 C5          0.8414   -4.7968   -1.2344 C.ar      1 <0>        -0.1317
      9 C6          0.9656   -6.1723   -1.2477 C.ar      1 <0>         0.0188
     10 C7          1.6634   -6.7956   -2.2662 C.ar      1 <0>        -0.6751
     11 C8          2.2390   -6.0446   -3.2743 C.ar      1 <0>         0.0333
     12 C9          2.1132   -4.6683   -3.2703 C.ar      1 <0>        -0.1379
     13 Br1         2.8941   -3.6422   -4.6535 Br        1 <0>        -0.0151
     14 S1          1.8197   -8.5506   -2.2787 S.o2      1 <0>         2.7023
     15 O2          2.9813   -8.8494   -3.0406 O.2       1 <0>        -0.9509
     16 O3          1.6585   -8.9823   -0.9345 O.2       1 <0>        -0.9515
     17 N3          0.5301   -9.1510   -3.1265 N.pl3     1 <0>        -1.2469
     18 H1          2.0957    1.8637   -0.1735 H         1 <0>         0.1280
     19 H2          0.3161    1.8260   -0.1665 H         1 <0>         0.1280
     20 H3          1.2121    1.8359    1.3714 H         1 <0>         0.1352
     21 H4          2.0795   -0.3116    0.8034 H         1 <0>         0.4395
     22 H5          0.3520   -0.1242   -1.5630 H         1 <0>         0.1693
     23 H6          2.1316   -0.0864   -1.5700 H         1 <0>         0.1697
     24 H7          1.2137   -2.1590   -3.0705 H         1 <0>         0.4264
     25 H8          0.2968   -4.3110   -0.4383 H         1 <0>         0.1595
     26 H9          0.5175   -6.7619   -0.4616 H         1 <0>         0.1614
     27 H10         2.7839   -6.5343   -4.0678 H         1 <0>         0.1648
     28 H11        -0.1280   -8.5452   -3.5017 H         1 <0>         0.4171
     29 H12         0.4329  -10.1084   -3.2479 H         1 <0>         0.4267
     30 H13         0.4322   -0.3465    0.8099 H         1 <0>         0.4387
@<TRIPOS>BOND
     1    1    2 1
     2    1   18 1
     3    1   19 1
     4    1   20 1
     5    2    3 1
     6    2   21 1
     7    2   30 1
     8    3    4 1
     9    3   22 1
    10    3   23 1
    11    4    5 2
    12    4    6 am
    13    6    7 1
    14    6   24 1
    15    7   12 ar
    16    7    8 ar
    17    8    9 ar
    18    8   25 1
    19    9   10 ar
    20    9   26 1
    21   10   11 ar
    22   10   14 1
    23   11   12 ar
    24   11   27 1
    25   12   13 1
    26   14   15 2
    27   14   16 2
    28   14   17 1
    29   17   28 1
    30   17   29 1
@<TRIPOS>MOLECULE
ZINC13813795
   20    20     0     0     0
SMALL
USER_CHARGES

@<TRIPOS>ATOM
      1 C1         -0.0167    1.3781    0.0096 C.ar      1 <0>        -0.0777
      2 C2          1.1709    2.0855    0.0021 C.ar      1 <0>        -0.0178
      3 C3          2.3773    1.4107   -0.0130 C.ar      1 <0>        -0.6387
      4 C4          2.3961    0.0285   -0.0201 C.ar      1 <0>        -0.0086
      5 C5          1.2084   -0.6789   -0.0117 C.ar      1 <0>        -0.0765
      6 C6          0.0021   -0.0041    0.0020 C.ar      1 <0>         0.0050
      7 N1         -1.2696   -0.7615    0.0105 N.pl3     1 <0>         0.0223
      8 O1         -2.3247   -0.1714    0.0241 O.2       1 <0>        -0.1421
      9 O2         -1.2532   -1.9704    0.0039 O.3       1 <0>        -0.1415
     10 S1          3.8911    2.3124   -0.0238 S.o2      1 <0>         2.7221
     11 O3          4.8717    1.4529   -0.5884 O.2       1 <0>        -0.9250
     12 O4          3.5973    3.5927   -0.5658 O.2       1 <0>        -0.9254
     13 N2          4.3274    2.5556    1.5551 N.pl3     1 <0>        -0.9855
     14 O5          4.6588    1.4507    2.3763 O.3       1 <0>        -0.2979
     15 H1         -0.9591    1.9053    0.0259 H         1 <0>         0.1658
     16 H2          1.1563    3.1654    0.0076 H         1 <0>         0.1660
     17 H3          3.3385   -0.4987   -0.0326 H         1 <0>         0.1676
     18 H4          1.2231   -1.7588   -0.0179 H         1 <0>         0.1662
     19 H5          4.3559    3.4549    1.9174 H         1 <0>         0.4219
     20 H6          4.9002    1.6915    3.2811 H         1 <0>         0.3998
@<TRIPOS>BOND
     1    1    6 ar
     2    1    2 ar
     3    1   15 1
     4    2    3 ar
     5    2   16 1
     6    3    4 ar
     7    3   10 1
     8    4    5 ar
     9    4   17 1
    10    5    6 ar
    11    5   18 1
    12    6    7 1
    13    7    8 2
    14    7    9 1
    15   10   11 2
    16   10   12 2
    17   10   13 1
    18   13   14 1
    19   13   19 1
    20   14   20 1
@<TRIPOS>MOLECULE
ZINC11957028
   30    30     0     0     0
SMALL
USER_CHARGES

@<TRIPOS>ATOM
      1 C1         -0.0167    1.3781    0.0096 C.ar      1 <0>        -0.1191
      2 C2          1.1709    2.0855    0.0021 C.ar      1 <0>        -0.0164
      3 C3          2.3773    1.4107   -0.0130 C.ar      1 <0>        -0.6604
      4 C4          2.3960    0.0285   -0.0201 C.ar      1 <0>        -0.0164
      5 C5          1.2085   -0.6789   -0.0117 C.ar      1 <0>        -0.1191
      6 C6          0.0021   -0.0041    0.0020 C.ar      1 <0>        -0.0692
      7 C7         -1.2926   -0.7753    0.0107 C.3       1 <0>         0.1533
      8 N1         -1.7258   -1.0177   -1.3676 N.am      1 <0>        -0.7004
      9 C8         -2.8667   -1.6945   -1.6063 C.2       1 <0>         0.4956
     10 O1         -3.5346   -2.1028   -0.6800 O.2       1 <0>        -0.5261
     11 C9         -3.3123   -1.9439   -3.0241 C.3       1 <0>        -0.0267
     12 N2         -4.5743   -2.6957   -3.0157 N.4       1 <0>        -0.6209
     13 S1          3.8911    2.3124   -0.0238 S.o2      1 <0>         2.6994
     14 O2          4.8717    1.4529   -0.5884 O.2       1 <0>        -0.9567
     15 O3          3.5973    3.5927   -0.5658 O.2       1 <0>        -0.9567
     16 N3          4.3274    2.5556    1.5551 N.pl3     1 <0>        -1.2479
     17 H1         -0.9591    1.9053    0.0259 H         1 <0>         0.1383
     18 H2          1.1563    3.1654    0.0076 H         1 <0>         0.1507
     19 H3          3.3385   -0.4987   -0.0326 H         1 <0>         0.1507
     20 H4          1.2231   -1.7588   -0.0179 H         1 <0>         0.1382
     21 H5         -1.1443   -1.7285    0.5180 H         1 <0>         0.0948
     22 H6         -2.0551   -0.1993    0.5352 H         1 <0>         0.0948
     23 H7         -1.1916   -0.6912   -2.1085 H         1 <0>         0.4142
     24 H8         -3.4606   -0.9907   -3.5314 H         1 <0>         0.1655
     25 H9         -2.5498   -2.5199   -3.5486 H         1 <0>         0.1655
     26 H10        -4.4370   -3.5781   -2.5461 H         1 <0>         0.4430
     27 H11        -5.2801   -2.1626   -2.5301 H         1 <0>         0.4430
     28 H12         3.7682    2.2150    2.2708 H         1 <0>         0.4172
     29 H13         5.1421    3.0386    1.7642 H         1 <0>         0.4254
     30 H14        -4.8727   -2.8627   -3.9650 H         1 <0>         0.4464
@<TRIPOS>BOND
     1    1    6 ar
     2    1    2 ar
     3    1   17 1
     4    2    3 ar
     5    2   18 1
     6    3    4 ar
     7    3   13 1
     8    4    5 ar
     9    4   19 1
    10    5    6 ar
    11    5   20 1
    12    6    7 1
    13    7    8 1
    14    7   21 1
    15    7   22 1
    16    8    9 am
    17    8   23 1
    18    9   10 2
    19    9   11 1
    20   11   12 1
    21   11   24 1
    22   11   25 1
    23   12   26 1
    24   12   27 1
    25   12   30 1
    26   13   14 2
    27   13   15 2
    28   13   16 1
    29   16   28 1
    30   16   29 1
@<TRIPOS>MOLECULE
ZINC11956807
   33    33     0     0     0
SMALL
USER_CHARGES

@<TRIPOS>ATOM
      1 C1         -0.0167    1.3781    0.0096 C.ar      1 <0>        -0.1339
      2 C2          1.1709    2.0855    0.0021 C.ar      1 <0>        -0.0133
      3 C3          2.3773    1.4107   -0.0130 C.ar      1 <0>        -0.6711
      4 C4          2.3960    0.0285   -0.0201 C.ar      1 <0>        -0.0133
      5 C5          1.2085   -0.6789   -0.0117 C.ar      1 <0>        -0.1339
      6 C6          0.0021   -0.0041    0.0020 C.ar      1 <0>        -0.0348
      7 C7         -1.2926   -0.7753    0.0107 C.3       1 <0>        -0.0998
      8 C8         -1.7450   -1.0285   -1.4288 C.3       1 <0>         0.1178
      9 N1         -3.0037   -1.7782   -1.4204 N.am      1 <0>        -0.7040
     10 C9         -3.5942   -2.1168   -2.5836 C.2       1 <0>         0.4936
     11 O1         -3.0836   -1.8008   -3.6374 O.2       1 <0>        -0.5256
     12 C10        -4.8889   -2.8880   -2.5749 C.3       1 <0>        -0.0265
     13 N2         -5.3232   -3.1311   -3.9570 N.4       1 <0>        -0.6213
     14 S1          3.8911    2.3124   -0.0238 S.o2      1 <0>         2.6998
     15 O2          4.8717    1.4529   -0.5884 O.2       1 <0>        -0.9590
     16 O3          3.5973    3.5927   -0.5658 O.2       1 <0>        -0.9590
     17 N3          4.3274    2.5556    1.5551 N.pl3     1 <0>        -1.2487
     18 H1         -0.9591    1.9053    0.0259 H         1 <0>         0.1356
     19 H2          1.1563    3.1654    0.0076 H         1 <0>         0.1477
     20 H3          3.3385   -0.4987   -0.0326 H         1 <0>         0.1477
     21 H4          1.2231   -1.7588   -0.0179 H         1 <0>         0.1356
     22 H5         -1.1443   -1.7285    0.5180 H         1 <0>         0.0905
     23 H6         -2.0551   -0.1993    0.5352 H         1 <0>         0.0905
     24 H7         -1.8934   -0.0752   -1.9361 H         1 <0>         0.0848
     25 H8         -0.9826   -1.6044   -1.9533 H         1 <0>         0.0848
     26 H9         -3.4120   -2.0309   -0.5776 H         1 <0>         0.4127
     27 H10        -4.7405   -3.8413   -2.0677 H         1 <0>         0.1649
     28 H11        -5.6513   -2.3121   -2.0504 H         1 <0>         0.1649
     29 H12        -5.4605   -2.2487   -4.4266 H         1 <0>         0.4431
     30 H13        -4.6174   -3.6642   -4.4425 H         1 <0>         0.4431
     31 H14         3.7682    2.2150    2.2708 H         1 <0>         0.4166
     32 H15         5.1421    3.0386    1.7642 H         1 <0>         0.4242
     33 H16        -6.1901   -3.6475   -3.9512 H         1 <0>         0.4461
@<TRIPOS>BOND
     1    1    6 ar
     2    1    2 ar
     3    1   18 1
     4    2    3 ar
     5    2   19 1
     6    3    4 ar
     7    3   14 1
     8    4    5 ar
     9    4   20 1
    10    5    6 ar
    11    5   21 1
    12    6    7 1
    13    7    8 1
    14    7   22 1
    15    7   23 1
    16    8    9 1
    17    8   24 1
    18    8   25 1
    19    9   10 am
    20    9   26 1
    21   10   11 2
    22   10   12 1
    23   12   13 1
    24   12   27 1
    25   12   28 1
    26   13   29 1
    27   13   30 1
    28   13   33 1
    29   14   15 2
    30   14   16 2
    31   14   17 1
    32   17   31 1
    33   17   32 1
@<TRIPOS>MOLECULE
ZINC11957147
   27    27     0     0     0
SMALL
USER_CHARGES

@<TRIPOS>ATOM
      1 C1         -0.0126    1.3742    0.1927 C.ar      1 <0>        -0.1391
      2 C2          1.1737    2.0815    0.1899 C.ar      1 <0>         0.0041
      3 C3          2.3739    1.4208    0.0022 C.ar      1 <0>        -0.6780
      4 C4          2.3906    0.0505   -0.1827 C.ar      1 <0>         0.0062
      5 C5          1.2079   -0.6626   -0.1805 C.ar      1 <0>        -0.1535
      6 C6          0.0009   -0.0020    0.0073 C.ar      1 <0>         0.1806
      7 N1         -1.1992   -0.7216    0.0101 N.am      1 <0>        -0.6502
      8 C7         -2.3250   -0.1564   -0.4690 C.2       1 <0>         0.4964
      9 O1         -2.2799    0.9382   -0.9896 O.2       1 <0>        -0.5030
     10 C8         -3.6398   -0.8843   -0.3578 C.3       1 <0>        -0.0232
     11 N2         -4.7053   -0.0638   -0.9492 N.4       1 <0>        -0.6215
     12 S1          3.8850    2.3270   -0.0019 S.o2      1 <0>         2.7008
     13 O2          4.8205    1.5533   -0.7404 O.2       1 <0>        -0.9557
     14 O3          3.5558    3.6639   -0.3537 O.2       1 <0>        -0.9565
     15 N3          4.4343    2.3701    1.5597 N.pl3     1 <0>        -1.2482
     16 H1         -0.9493    1.8902    0.3434 H         1 <0>         0.1438
     17 H2          1.1639    3.1518    0.3340 H         1 <0>         0.1535
     18 H3          3.3296   -0.4625   -0.3294 H         1 <0>         0.1559
     19 H4          1.2216   -1.7328   -0.3253 H         1 <0>         0.1439
     20 H5         -1.2208   -1.6272    0.3569 H         1 <0>         0.4254
     21 H6         -3.5754   -1.8340   -0.8889 H         1 <0>         0.1695
     22 H7         -3.8647   -1.0698    0.6925 H         1 <0>         0.1704
     23 H8         -4.7649    0.8153   -0.4576 H         1 <0>         0.4438
     24 H9         -4.4971    0.1079   -1.9214 H         1 <0>         0.4443
     25 H10         3.9273    1.9372    2.2643 H         1 <0>         0.4164
     26 H11         5.2631    2.8282    1.7698 H         1 <0>         0.4253
     27 H12        -5.5856   -0.5512   -0.8747 H         1 <0>         0.4485
@<TRIPOS>BOND
     1    1    6 ar
     2    1    2 ar
     3    1   16 1
     4    2    3 ar
     5    2   17 1
     6    3    4 ar
     7    3   12 1
     8    4    5 ar
     9    4   18 1
    10    5    6 ar
    11    5   19 1
    12    6    7 1
    13    7    8 am
    14    7   20 1
    15    8    9 2
    16    8   10 1
    17   10   11 1
    18   10   21 1
    19   10   22 1
    20   11   23 1
    21   11   24 1
    22   11   27 1
    23   12   13 2
    24   12   14 2
    25   12   15 1
    26   15   25 1
    27   15   26 1
@<TRIPOS>MOLECULE
ZINC05832614
   47    50     0     0     0
SMALL
USER_CHARGES
13-methyl-17-oxo-3-sulfamoyloxy-7,8,9,11,12,14,15,16-octahydro-6H-cyclopenta[a]phenanthrene
@<TRIPOS>ATOM
      1 C1         -2.3922    9.0554   -4.4937 C.3       1 <0>        -0.1445
      2 C2         -1.3627    9.7780   -3.6226 C.3       1 <0>        -0.1259
      3 C3          0.0087    9.1883   -3.8733 C.3       1 <0>        -0.0974
      4 C4         -0.0803    7.6712   -3.6191 C.3       1 <0>        -0.1159
      5 C5         -0.5980    7.3834   -2.2145 C.3       1 <0>        -0.0495
      6 H1          0.1344    7.8013   -1.5238 H         1 <0>         0.0847
      7 C6         -0.7062    5.9125   -1.9369 C.ar      1 <0>        -0.0487
      8 C7          0.2315    5.0642   -2.5106 C.ar      1 <0>        -0.1006
      9 C8          0.1935    3.7077   -2.2681 C.ar      1 <0>        -0.0948
     10 C9         -0.7926    3.1853   -1.4436 C.ar      1 <0>         0.0629
     11 C10        -1.7341    4.0292   -0.8806 C.ar      1 <0>        -0.1264
     12 C11        -1.6939    5.3957   -1.1242 C.ar      1 <0>        -0.0580
     13 C12        -2.7554    6.2506   -0.4835 C.3       1 <0>        -0.0822
     14 C13        -2.3745    7.7301   -0.5244 C.3       1 <0>        -0.1148
     15 C14        -1.9421    8.0736   -1.9498 C.3       1 <0>        -0.0752
     16 H2         -2.6934    7.7264   -2.6592 H         1 <0>         0.0902
     17 C15        -1.7163    9.5621   -2.1246 C.3       1 <0>        -0.0782
     18 H3         -0.9096    9.9091   -1.4790 H         1 <0>         0.0866
     19 C16        -2.9608   10.4480   -1.9862 C.3       1 <0>        -0.1131
     20 C17        -2.5748   11.7037   -2.8151 C.3       1 <0>        -0.1760
     21 C18        -1.5065   11.2586   -3.8092 C.2       1 <0>         0.3803
     22 O1         -0.9013   11.9560   -4.5874 O.2       1 <0>        -0.4363
     23 O2         -0.8372    1.8501   -1.1944 O.3       1 <0>        -0.6790
     24 S1         -0.0298    1.4201    0.0220 S.o2      1 <0>         2.7726
     25 O3         -0.0121   -0.0008    0.0160 O.2       1 <0>        -0.9510
     26 O4          1.1601    2.1968    0.0149 O.2       1 <0>        -0.9725
     27 N1         -0.8853    1.8771    1.3642 N.pl3     1 <0>        -1.2498
     28 H4         -3.3940    9.3920   -4.2272 H         1 <0>         0.0644
     29 H5         -2.2010    9.2789   -5.5433 H         1 <0>         0.0602
     30 H6         -2.3149    7.9803   -4.3313 H         1 <0>         0.0805
     31 H7          0.3074    9.3731   -4.9051 H         1 <0>         0.0745
     32 H8          0.7333    9.6359   -3.1931 H         1 <0>         0.0687
     33 H9         -0.7677    7.2261   -4.3384 H         1 <0>         0.0721
     34 H10         0.9074    7.2274   -3.7441 H         1 <0>         0.0729
     35 H11         0.9985    5.4712   -3.1528 H         1 <0>         0.1407
     36 H12         0.9276    3.0551   -2.7173 H         1 <0>         0.1399
     37 H13        -2.5043    3.6218   -0.2424 H         1 <0>         0.1392
     38 H14        -3.6965    6.1094   -1.0149 H         1 <0>         0.0827
     39 H15        -2.8830    5.9433    0.5545 H         1 <0>         0.0807
     40 H16        -3.2341    8.3389   -0.2442 H         1 <0>         0.0768
     41 H17        -1.5508    7.9168    0.1647 H         1 <0>         0.0695
     42 H18        -3.8352    9.9565   -2.4129 H         1 <0>         0.0796
     43 H19        -3.1343   10.7114   -0.9428 H         1 <0>         0.0790
     44 H20        -2.2253   12.4128   -2.2027 H         1 <0>         0.0888
     45 H21        -3.4466   12.0823   -3.3486 H         1 <0>         0.0978
     46 H22        -0.7405    2.7522    1.7569 H         1 <0>         0.4212
     47 H23        -1.5312    1.2698    1.7576 H         1 <0>         0.4232
@<TRIPOS>BOND
     1    1    2 1
     2    1   28 1
     3    1   29 1
     4    1   30 1
     5    2   17 1
     6    2   21 1
     7    2    3 1
     8    3    4 1
     9    3   31 1
    10    3   32 1
    11    4    5 1
    12    4   33 1
    13    4   34 1
    14    5    6 1
    15    5   15 1
    16    5    7 1
    17    7   12 ar
    18    7    8 ar
    19    8    9 ar
    20    8   35 1
    21    9   10 ar
    22    9   36 1
    23   10   11 ar
    24   10   23 1
    25   11   12 ar
    26   11   37 1
    27   12   13 1
    28   13   14 1
    29   13   38 1
    30   13   39 1
    31   14   15 1
    32   14   40 1
    33   14   41 1
    34   15   16 1
    35   15   17 1
    36   17   18 1
    37   17   19 1
    38   19   20 1
    39   19   42 1
    40   19   43 1
    41   20   21 1
    42   20   44 1
    43   20   45 1
    44   21   22 2
    45   23   24 1
    46   24   25 2
    47   24   26 2
    48   24   27 1
    49   27   46 1
    50   27   47 1
@<TRIPOS>MOLECULE
ZINC13800620
   34    34     0     0     0
SMALL
USER_CHARGES

@<TRIPOS>ATOM
      1 C1          0.1117    1.1591   -0.7518 C.ar      1 <0>        -0.1178
      2 C2          1.2975    1.8675   -0.7558 C.ar      1 <0>        -0.0610
      3 C3          2.3811    1.4085   -0.0188 C.ar      1 <0>         0.1152
      4 C4          2.2688    0.2379    0.7203 C.ar      1 <0>        -0.0422
      5 C5          1.0805   -0.4656    0.7201 C.ar      1 <0>        -0.6565
      6 C6          0.0030   -0.0058   -0.0150 C.ar      1 <0>        -0.0214
      7 S1          0.9371   -1.9510    1.6570 S.o2      1 <0>         2.7026
      8 O1         -0.1022   -2.7113    1.0562 O.2       1 <0>        -0.9545
      9 O2          2.2548   -2.4572    1.8200 O.2       1 <0>        -0.9569
     10 N1          0.4024   -1.5282    3.1662 N.pl3     1 <0>        -1.2464
     11 N2          3.5839    2.1235   -0.0212 N.am      1 <0>        -0.6610
     12 C7          3.5686    3.4678   -0.1160 C.2       1 <0>         0.5105
     13 O3          2.5128    4.0647   -0.1030 O.2       1 <0>        -0.5166
     14 C8          4.8633    4.2293   -0.2383 C.3       1 <0>         0.0972
     15 N3          4.5796    5.6640   -0.3255 N.am      1 <0>        -0.6929
     16 C9          5.5925    6.5454   -0.4415 C.2       1 <0>         0.4999
     17 O4          6.7389    6.1509   -0.4738 O.2       1 <0>        -0.5267
     18 C10         5.3007    8.0211   -0.5312 C.3       1 <0>        -0.0244
     19 N4          6.5627    8.7635   -0.6504 N.4       1 <0>        -0.6208
     20 H1         -0.7330    1.5179   -1.3212 H         1 <0>         0.1429
     21 H2          1.3819    2.7771   -1.3318 H         1 <0>         0.1422
     22 H3          3.1099   -0.1218    1.2942 H         1 <0>         0.1487
     23 H4         -0.9252   -0.5578   -0.0135 H         1 <0>         0.1497
     24 H5         -0.1410   -2.1468    3.6791 H         1 <0>         0.4250
     25 H6          0.6326   -0.6621    3.5373 H         1 <0>         0.4167
     26 H7          4.4288    1.6516    0.0455 H         1 <0>         0.4209
     27 H8          5.4836    4.0342    0.6364 H         1 <0>         0.1174
     28 H9          5.3904    3.9080   -1.1367 H         1 <0>         0.1185
     29 H10         3.6627    5.9795   -0.2997 H         1 <0>         0.4233
     30 H11         4.6803    8.2163   -1.4059 H         1 <0>         0.1674
     31 H12         4.7736    8.3425    0.3671 H         1 <0>         0.1674
     32 H13         7.1370    8.5828    0.1593 H         1 <0>         0.4431
     33 H14         7.0506    8.4660   -1.4820 H         1 <0>         0.4431
     34 H15         6.3673    9.7516   -0.7104 H         1 <0>         0.4471
@<TRIPOS>BOND
     1    1    6 ar
     2    1    2 ar
     3    1   20 1
     4    2    3 ar
     5    2   21 1
     6    3    4 ar
     7    3   11 1
     8    4    5 ar
     9    4   22 1
    10    5    6 ar
    11    5    7 1
    12    6   23 1
    13    7    8 2
    14    7    9 2
    15    7   10 1
    16   10   24 1
    17   10   25 1
    18   11   12 am
    19   11   26 1
    20   12   13 2
    21   12   14 1
    22   14   15 1
    23   14   27 1
    24   14   28 1
    25   15   16 am
    26   15   29 1
    27   16   17 2
    28   16   18 1
    29   18   19 1
    30   18   30 1
    31   18   31 1
    32   19   32 1
    33   19   33 1
    34   19   34 1
@<TRIPOS>MOLECULE
ZINC13800632
   40    40     0     0     0
SMALL
USER_CHARGES

@<TRIPOS>ATOM
      1 C1         -0.0167    1.3781    0.0096 C.ar      1 <0>        -0.1344
      2 C2          1.1709    2.0855    0.0021 C.ar      1 <0>        -0.0140
      3 C3          2.3773    1.4107   -0.0130 C.ar      1 <0>        -0.6736
      4 C4          2.3960    0.0285   -0.0201 C.ar      1 <0>        -0.0140
      5 C5          1.2085   -0.6789   -0.0117 C.ar      1 <0>        -0.1344
      6 C6          0.0021   -0.0041    0.0020 C.ar      1 <0>        -0.0293
      7 C7         -1.2926   -0.7753    0.0107 C.3       1 <0>        -0.1007
      8 C8         -1.7450   -1.0285   -1.4288 C.3       1 <0>         0.1220
      9 N1         -3.0037   -1.7782   -1.4204 N.am      1 <0>        -0.7195
     10 C9         -3.5942   -2.1168   -2.5836 C.2       1 <0>         0.5079
     11 O1         -3.0836   -1.8008   -3.6374 O.2       1 <0>        -0.5325
     12 C10        -4.8889   -2.8880   -2.5749 C.3       1 <0>         0.0953
     13 N2         -5.3221   -3.1305   -3.9533 N.am      1 <0>        -0.6913
     14 C11        -6.4629   -3.8072   -4.1919 C.2       1 <0>         0.4989
     15 O2         -7.1309   -4.2155   -3.2656 O.2       1 <0>        -0.5296
     16 C12        -6.9085   -4.0567   -5.6097 C.3       1 <0>        -0.0248
     17 N3         -8.1706   -4.8084   -5.6013 N.4       1 <0>        -0.6205
     18 S1          3.8911    2.3124   -0.0238 S.o2      1 <0>         2.7003
     19 O3          4.8717    1.4529   -0.5884 O.2       1 <0>        -0.9604
     20 O4          3.5973    3.5927   -0.5658 O.2       1 <0>        -0.9604
     21 N4          4.3274    2.5556    1.5551 N.pl3     1 <0>        -1.2491
     22 H1         -0.9591    1.9053    0.0259 H         1 <0>         0.1356
     23 H2          1.1563    3.1654    0.0076 H         1 <0>         0.1466
     24 H3          3.3385   -0.4987   -0.0326 H         1 <0>         0.1466
     25 H4          1.2231   -1.7588   -0.0179 H         1 <0>         0.1356
     26 H5         -1.1443   -1.7285    0.5180 H         1 <0>         0.0892
     27 H6         -2.0551   -0.1993    0.5352 H         1 <0>         0.0892
     28 H7         -1.8934   -0.0752   -1.9361 H         1 <0>         0.0785
     29 H8         -0.9826   -1.6044   -1.9533 H         1 <0>         0.0785
     30 H9         -3.4120   -2.0309   -0.5776 H         1 <0>         0.4081
     31 H10        -4.7405   -3.8413   -2.0677 H         1 <0>         0.1131
     32 H11        -5.6513   -2.3121   -2.0504 H         1 <0>         0.1131
     33 H12        -4.7878   -2.8039   -4.6941 H         1 <0>         0.4232
     34 H13        -7.0568   -3.1034   -6.1170 H         1 <0>         0.1671
     35 H14        -6.1461   -4.6326   -6.1342 H         1 <0>         0.1671
     36 H15        -8.0333   -5.6909   -5.1317 H         1 <0>         0.4428
     37 H16        -8.8763   -4.2753   -5.1158 H         1 <0>         0.4428
     38 H17         3.7682    2.2150    2.2708 H         1 <0>         0.4167
     39 H18         5.1421    3.0386    1.7642 H         1 <0>         0.4234
     40 H19        -8.4689   -4.9754   -6.5506 H         1 <0>         0.4467
@<TRIPOS>BOND
     1    1    6 ar
     2    1    2 ar
     3    1   22 1
     4    2    3 ar
     5    2   23 1
     6    3    4 ar
     7    3   18 1
     8    4    5 ar
     9    4   24 1
    10    5    6 ar
    11    5   25 1
    12    6    7 1
    13    7    8 1
    14    7   26 1
    15    7   27 1
    16    8    9 1
    17    8   28 1
    18    8   29 1
    19    9   10 am
    20    9   30 1
    21   10   11 2
    22   10   12 1
    23   12   13 1
    24   12   31 1
    25   12   32 1
    26   13   14 am
    27   13   33 1
    28   14   15 2
    29   14   16 1
    30   16   17 1
    31   16   34 1
    32   16   35 1
    33   17   36 1
    34   17   37 1
    35   17   40 1
    36   18   19 2
    37   18   20 2
    38   18   21 1
    39   21   38 1
    40   21   39 1
@<TRIPOS>MOLECULE
ZINC13800629
   37    37     0     0     0
SMALL
USER_CHARGES

@<TRIPOS>ATOM
      1 C1         -0.0167    1.3781    0.0096 C.ar      1 <0>        -0.1203
      2 C2          1.1709    2.0855    0.0021 C.ar      1 <0>        -0.0171
      3 C3          2.3773    1.4107   -0.0130 C.ar      1 <0>        -0.6642
      4 C4          2.3960    0.0285   -0.0201 C.ar      1 <0>        -0.0172
      5 C5          1.2085   -0.6789   -0.0117 C.ar      1 <0>        -0.1203
      6 C6          0.0021   -0.0041    0.0020 C.ar      1 <0>        -0.0609
      7 C7         -1.2926   -0.7753    0.0107 C.3       1 <0>         0.1547
      8 N1         -1.7258   -1.0177   -1.3676 N.am      1 <0>        -0.7157
      9 C8         -2.8667   -1.6945   -1.6063 C.2       1 <0>         0.5101
     10 O1         -3.5346   -2.1028   -0.6800 O.2       1 <0>        -0.5327
     11 C9         -3.3123   -1.9439   -3.0241 C.3       1 <0>         0.0952
     12 N2         -4.5709   -2.6936   -3.0157 N.am      1 <0>        -0.6913
     13 C10        -5.1614   -3.0322   -4.1789 C.2       1 <0>         0.4986
     14 O2         -4.6508   -2.7163   -5.2327 O.2       1 <0>        -0.5286
     15 C11        -6.4561   -3.8034   -4.1703 C.3       1 <0>        -0.0245
     16 N3         -6.8905   -4.0466   -5.5523 N.4       1 <0>        -0.6207
     17 S1          3.8911    2.3124   -0.0238 S.o2      1 <0>         2.7002
     18 O3          4.8717    1.4529   -0.5884 O.2       1 <0>        -0.9585
     19 O4          3.5973    3.5927   -0.5658 O.2       1 <0>        -0.9585
     20 N4          4.3274    2.5556    1.5551 N.pl3     1 <0>        -1.2484
     21 H1         -0.9591    1.9053    0.0259 H         1 <0>         0.1379
     22 H2          1.1563    3.1654    0.0076 H         1 <0>         0.1490
     23 H3          3.3385   -0.4987   -0.0326 H         1 <0>         0.1490
     24 H4          1.2231   -1.7588   -0.0179 H         1 <0>         0.1379
     25 H5         -1.1443   -1.7285    0.5180 H         1 <0>         0.0891
     26 H6         -2.0551   -0.1993    0.5352 H         1 <0>         0.0891
     27 H7         -1.1916   -0.6912   -2.1085 H         1 <0>         0.4097
     28 H8         -3.4606   -0.9907   -3.5314 H         1 <0>         0.1137
     29 H9         -2.5498   -2.5199   -3.5486 H         1 <0>         0.1137
     30 H10        -4.9793   -2.9463   -2.1729 H         1 <0>         0.4231
     31 H11        -6.3078   -4.7567   -3.6630 H         1 <0>         0.1670
     32 H12        -7.2185   -3.2275   -3.6458 H         1 <0>         0.1670
     33 H13        -7.0278   -3.1641   -6.0219 H         1 <0>         0.4430
     34 H14        -6.1847   -4.5797   -6.0379 H         1 <0>         0.4430
     35 H15         3.7682    2.2150    2.2708 H         1 <0>         0.4171
     36 H16         5.1421    3.0386    1.7642 H         1 <0>         0.4243
     37 H17        -7.7573   -4.5629   -5.5465 H         1 <0>         0.4467
@<TRIPOS>BOND
     1    1    6 ar
     2    1    2 ar
     3    1   21 1
     4    2    3 ar
     5    2   22 1
     6    3    4 ar
     7    3   17 1
     8    4    5 ar
     9    4   23 1
    10    5    6 ar
    11    5   24 1
    12    6    7 1
    13    7    8 1
    14    7   25 1
    15    7   26 1
    16    8    9 am
    17    8   27 1
    18    9   10 2
    19    9   11 1
    20   11   12 1
    21   11   28 1
    22   11   29 1
    23   12   13 am
    24   12   30 1
    25   13   14 2
    26   13   15 1
    27   15   16 1
    28   15   31 1
    29   15   32 1
    30   16   33 1
    31   16   34 1
    32   16   37 1
    33   17   18 2
    34   17   19 2
    35   17   20 1
    36   20   35 1
    37   20   36 1
@<TRIPOS>MOLECULE
ZINC13800629
   36    36     0     0     0
SMALL
USER_CHARGES

@<TRIPOS>ATOM
      1 C1         -0.0167    1.3781    0.0096 C.ar      1 <0>        -0.1205
      2 C2          1.1709    2.0855    0.0021 C.ar      1 <0>        -0.0181
      3 C3          2.3773    1.4107   -0.0130 C.ar      1 <0>        -0.6677
      4 C4          2.3960    0.0285   -0.0201 C.ar      1 <0>        -0.0182
      5 C5          1.2085   -0.6789   -0.0117 C.ar      1 <0>        -0.1207
      6 C6          0.0021   -0.0041    0.0020 C.ar      1 <0>        -0.0534
      7 C7         -1.2926   -0.7753    0.0107 C.3       1 <0>         0.1539
      8 N1         -1.7258   -1.0177   -1.3676 N.am      1 <0>        -0.7229
      9 C8         -2.8667   -1.6945   -1.6063 C.2       1 <0>         0.5129
     10 O1         -3.5346   -2.1028   -0.6800 O.2       1 <0>        -0.5324
     11 C9         -3.3123   -1.9439   -3.0241 C.3       1 <0>         0.1013
     12 N2         -4.5709   -2.6936   -3.0157 N.am      1 <0>        -0.7231
     13 C10        -5.1614   -3.0322   -4.1789 C.2       1 <0>         0.5136
     14 O2         -4.6508   -2.7163   -5.2327 O.2       1 <0>        -0.5242
     15 C11        -6.4561   -3.8034   -4.1703 C.3       1 <0>         0.0458
     16 N3         -6.8905   -4.0466   -5.5523 N.3       1 <0>        -0.8349
     17 S1          3.8911    2.3124   -0.0238 S.o2      1 <0>         2.7011
     18 O3          4.8717    1.4529   -0.5884 O.2       1 <0>        -0.9604
     19 O4          3.5973    3.5927   -0.5658 O.2       1 <0>        -0.9603
     20 N4          4.3274    2.5556    1.5551 N.pl3     1 <0>        -1.2493
     21 H1         -0.9591    1.9053    0.0259 H         1 <0>         0.1385
     22 H2          1.1563    3.1654    0.0076 H         1 <0>         0.1476
     23 H3          3.3385   -0.4987   -0.0326 H         1 <0>         0.1475
     24 H4          1.2231   -1.7588   -0.0179 H         1 <0>         0.1383
     25 H5         -1.1443   -1.7285    0.5180 H         1 <0>         0.0862
     26 H6         -2.0551   -0.1993    0.5352 H         1 <0>         0.0863
     27 H7         -1.1916   -0.6912   -2.1085 H         1 <0>         0.4078
     28 H8         -3.4606   -0.9907   -3.5314 H         1 <0>         0.1023
     29 H9         -2.5498   -2.5199   -3.5486 H         1 <0>         0.1015
     30 H10        -4.9793   -2.9463   -2.1729 H         1 <0>         0.4126
     31 H11        -6.3078   -4.7567   -3.6630 H         1 <0>         0.0606
     32 H12        -7.2185   -3.2275   -3.6458 H         1 <0>         0.1053
     33 H13        -6.1732   -4.5229   -6.0783 H         1 <0>         0.3517
     34 H14         3.7682    2.2150    2.2708 H         1 <0>         0.4171
     35 H15         5.1421    3.0386    1.7642 H         1 <0>         0.4226
     36 H16        -7.7573   -4.5626   -5.5734 H         1 <0>         0.3516
@<TRIPOS>BOND
     1    1    6 ar
     2    1    2 ar
     3    1   21 1
     4    2    3 ar
     5    2   22 1
     6    3    4 ar
     7    3   17 1
     8    4    5 ar
     9    4   23 1
    10    5    6 ar
    11    5   24 1
    12    6    7 1
    13    7    8 1
    14    7   25 1
    15    7   26 1
    16    8    9 am
    17    8   27 1
    18    9   10 2
    19    9   11 1
    20   11   12 1
    21   11   28 1
    22   11   29 1
    23   12   13 am
    24   12   30 1
    25   13   14 2
    26   13   15 1
    27   15   16 1
    28   15   31 1
    29   15   32 1
    30   16   33 1
    31   16   36 1
    32   17   18 2
    33   17   19 2
    34   17   20 1
    35   20   34 1
    36   20   35 1
@<TRIPOS>MOLECULE
ZINC13813812
   22    22     0     0     0
SMALL
USER_CHARGES

@<TRIPOS>ATOM
      1 C1         -0.0173    1.4248    0.0099 C.3       1 <0>         0.0217
      2 O1          0.0021   -0.0041    0.0020 O.3       1 <0>        -0.3099
      3 C2          0.6258   -0.6184    1.0415 C.ar      1 <0>         0.1856
      4 C3          1.2022    0.1384    2.0513 C.ar      1 <0>        -0.2316
      5 C4          1.8353   -0.4884    3.1070 C.ar      1 <0>         0.0208
      6 C5          1.8951   -1.8688    3.1577 C.ar      1 <0>        -0.7139
      7 C6          1.3218   -2.6253    2.1523 C.ar      1 <0>         0.0270
      8 C7          0.6822   -2.0034    1.0976 C.ar      1 <0>        -0.1731
      9 S1          2.7038   -2.6653    4.5054 S.o2      1 <0>         2.7233
     10 O2          3.0980   -3.9492    4.0411 O.2       1 <0>        -0.9398
     11 O3          3.6322   -1.7279    5.0333 O.2       1 <0>        -0.9403
     12 N1          1.5645   -2.9163    5.6808 N.pl3     1 <0>        -0.9900
     13 O4          0.4798   -3.7939    5.4395 O.3       1 <0>        -0.2984
     14 H1          1.0053    1.8021    0.0021 H         1 <0>         0.0615
     15 H2         -0.5445    1.7859   -0.8732 H         1 <0>         0.1067
     16 H3         -0.5275    1.7763    0.9067 H         1 <0>         0.0608
     17 H4          1.1564    1.2167    2.0118 H         1 <0>         0.1397
     18 H5          2.2842    0.1003    3.8934 H         1 <0>         0.1439
     19 H6          1.3701   -3.7035    2.1940 H         1 <0>         0.1500
     20 H7          0.2307   -2.5948    0.3148 H         1 <0>         0.1432
     21 H8          1.6403   -2.4622    6.5346 H         1 <0>         0.4175
     22 H9         -0.1326   -3.8761    6.1834 H         1 <0>         0.3953
@<TRIPOS>BOND
     1    1    2 1
     2    1   14 1
     3    1   15 1
     4    1   16 1
     5    2    3 1
     6    3    8 ar
     7    3    4 ar
     8    4    5 ar
     9    4   17 1
    10    5    6 ar
    11    5   18 1
    12    6    7 ar
    13    6    9 1
    14    7    8 ar
    15    7   19 1
    16    8   20 1
    17    9   10 2
    18    9   11 2
    19    9   12 1
    20   12   13 1
    21   12   21 1
    22   13   22 1
@<TRIPOS>MOLECULE
ZINC13800639
   34    34     0     0     0
SMALL
USER_CHARGES

@<TRIPOS>ATOM
      1 C1          0.0647    1.2425   -0.6200 C.ar      1 <0>         0.0178
      2 C2          1.2501    1.9518   -0.6183 C.ar      1 <0>        -0.1460
      3 C3          2.3814    1.4092   -0.0241 C.ar      1 <0>         0.2275
      4 C4          2.3172    0.1533    0.5674 C.ar      1 <0>        -0.1485
      5 C5          1.1284   -0.5508    0.5622 C.ar      1 <0>         0.0386
      6 C6          0.0036   -0.0068   -0.0308 C.ar      1 <0>        -0.6880
      7 S1         -1.5105   -0.9079   -0.0355 S.o2      1 <0>         2.7036
      8 O1         -1.4470   -1.8145    1.0569 O.2       1 <0>        -0.9540
      9 O2         -2.5522    0.0491   -0.1716 O.2       1 <0>        -0.9522
     10 N1         -1.5292   -1.8269   -1.4129 N.pl3     1 <0>        -1.2457
     11 Br1         3.8550   -0.5912    1.3778 Br        1 <0>        -0.0204
     12 N2          3.5839    2.1252   -0.0212 N.am      1 <0>        -0.6615
     13 C7          3.5681    3.4696   -0.1160 C.2       1 <0>         0.5141
     14 O3          2.5120    4.0660   -0.1030 O.2       1 <0>        -0.5027
     15 C8          4.8624    4.2316   -0.2383 C.3       1 <0>         0.0976
     16 N3          4.5781    5.6662   -0.3255 N.am      1 <0>        -0.6935
     17 C9          5.5907    6.5480   -0.4415 C.2       1 <0>         0.5008
     18 O4          6.7373    6.1540   -0.4737 O.2       1 <0>        -0.5257
     19 C10         5.2983    8.0236   -0.5311 C.3       1 <0>        -0.0243
     20 N4          6.5600    8.7665   -0.6504 N.4       1 <0>        -0.6208
     21 H1         -0.8167    1.6662   -1.0782 H         1 <0>         0.1577
     22 H2          1.2969    2.9275   -1.0791 H         1 <0>         0.1637
     23 H3          1.0776   -1.5270    1.0214 H         1 <0>         0.1612
     24 H4         -2.0001   -2.6748   -1.4239 H         1 <0>         0.4256
     25 H5         -1.0691   -1.5173   -2.2088 H         1 <0>         0.4175
     26 H6          4.4288    1.6539    0.0491 H         1 <0>         0.4230
     27 H7          5.4829    4.0367    0.6364 H         1 <0>         0.1200
     28 H8          5.3896    3.9105   -1.1366 H         1 <0>         0.1212
     29 H9          3.6611    5.9813   -0.2997 H         1 <0>         0.4239
     30 H10         4.6778    8.2186   -1.4059 H         1 <0>         0.1680
     31 H11         4.7710    8.3448    0.3672 H         1 <0>         0.1680
     32 H12         7.1343    8.5860    0.1593 H         1 <0>         0.4432
     33 H13         7.0480    8.4692   -1.4819 H         1 <0>         0.4431
     34 H14         6.3642    9.7545   -0.7104 H         1 <0>         0.4474
@<TRIPOS>BOND
     1    1    6 ar
     2    1    2 ar
     3    1   21 1
     4    2    3 ar
     5    2   22 1
     6    3    4 ar
     7    3   12 1
     8    4    5 ar
     9    4   11 1
    10    5    6 ar
    11    5   23 1
    12    6    7 1
    13    7    8 2
    14    7    9 2
    15    7   10 1
    16   10   24 1
    17   10   25 1
    18   12   13 am
    19   12   26 1
    20   13   14 2
    21   13   15 1
    22   15   16 1
    23   15   27 1
    24   15   28 1
    25   16   17 am
    26   16   29 1
    27   17   18 2
    28   17   19 1
    29   19   20 1
    30   19   30 1
    31   19   31 1
    32   20   32 1
    33   20   33 1
    34   20   34 1
@<TRIPOS>MOLECULE
ZINC13800440
   27    27     0     0     0
SMALL
USER_CHARGES

@<TRIPOS>ATOM
      1 C1         -0.0193    1.3905   -0.0172 C.ar      1 <0>         0.0218
      2 C2          1.1689    2.0953   -0.0149 C.ar      1 <0>        -0.1420
      3 C3          2.3785    1.4141   -0.0231 C.ar      1 <0>         0.2140
      4 C4          2.3897    0.0244   -0.0336 C.ar      1 <0>        -0.1428
      5 C5          1.1978   -0.6742   -0.0359 C.ar      1 <0>         0.0367
      6 C6         -0.0052    0.0081   -0.0278 C.ar      1 <0>        -0.6785
      7 S1         -1.5232   -0.8865   -0.0308 S.o2      1 <0>         2.7023
      8 O1         -1.2394   -2.1697    0.5096 O.2       1 <0>        -0.9508
      9 O2         -2.5040   -0.0240    0.5290 O.2       1 <0>        -0.9517
     10 N1         -1.9489   -1.1231   -1.6135 N.pl3     1 <0>        -1.2470
     11 Br1         4.0343   -0.9090   -0.0454 Br        1 <0>        -0.0143
     12 N2          3.5839    2.1252   -0.0212 N.am      1 <0>        -0.6482
     13 C7          3.6274    3.3764    0.4780 C.2       1 <0>         0.5003
     14 O3          2.6485    3.8491    1.0159 O.2       1 <0>        -0.4979
     15 C8          4.8924    4.1881    0.3677 C.3       1 <0>        -0.0239
     16 N3          4.6838    5.5058    0.9827 N.4       1 <0>        -0.6209
     17 H1         -0.9605    1.9201   -0.0063 H         1 <0>         0.1614
     18 H2          1.1568    3.1752   -0.0070 H         1 <0>         0.1635
     19 H3          1.2054   -1.7542   -0.0444 H         1 <0>         0.1650
     20 H4         -1.3829   -0.7831   -2.3241 H         1 <0>         0.4169
     21 H5         -2.7644   -1.6017   -1.8301 H         1 <0>         0.4266
     22 H6          4.3881    1.7176   -0.3791 H         1 <0>         0.4265
     23 H7          5.7020    3.6709    0.8826 H         1 <0>         0.1718
     24 H8          5.1524    4.3147   -0.6832 H         1 <0>         0.1729
     25 H9          5.5308    6.0492    0.9088 H         1 <0>         0.4496
     26 H10         3.9344    5.9845    0.5061 H         1 <0>         0.4441
     27 H11         4.4431    5.3886    1.9555 H         1 <0>         0.4448
@<TRIPOS>BOND
     1    1    6 ar
     2    1    2 ar
     3    1   17 1
     4    2    3 ar
     5    2   18 1
     6    3    4 ar
     7    3   12 1
     8    4    5 ar
     9    4   11 1
    10    5    6 ar
    11    5   19 1
    12    6    7 1
    13    7    8 2
    14    7    9 2
    15    7   10 1
    16   10   20 1
    17   10   21 1
    18   12   13 am
    19   12   22 1
    20   13   14 2
    21   13   15 1
    22   15   16 1
    23   15   23 1
    24   15   24 1
    25   16   25 1
    26   16   26 1
    27   16   27 1
@<TRIPOS>MOLECULE
ZINC13813816
   27    27     0     0     0
SMALL
USER_CHARGES

@<TRIPOS>ATOM
      1 C1         -1.0225    1.3006    0.1902 C.3       1 <0>        -0.1255
      2 C2         -0.4783   -0.1010    0.0880 C.ar      1 <0>        -0.0164
      3 C3         -0.0873   -0.6028   -1.1393 C.ar      1 <0>        -0.1563
      4 C4          0.4119   -1.8884   -1.2331 C.ar      1 <0>         0.0385
      5 C5          0.5206   -2.6721   -0.0996 C.ar      1 <0>        -0.6904
      6 C6          0.1304   -2.1700    1.1278 C.ar      1 <0>         0.0277
      7 C7         -0.3648   -0.8829    1.2223 C.ar      1 <0>        -0.1562
      8 C8          0.2484   -3.0245    2.3635 C.3       1 <0>        -0.1370
      9 S1          1.1558   -4.3113   -0.2193 S.o2      1 <0>         2.7160
     10 O1          1.9111   -4.3673   -1.4217 O.2       1 <0>        -0.9380
     11 O2          1.7174   -4.6228    1.0483 O.2       1 <0>        -0.9381
     12 N1         -0.1381   -5.3240   -0.4255 N.pl3     1 <0>        -0.9905
     13 O3         -0.9258   -5.2364   -1.5989 O.3       1 <0>        -0.2983
     14 C9          0.8373   -2.4358   -2.5712 C.3       1 <0>        -0.1429
     15 H1         -0.2026    1.9967    0.3666 H         1 <0>         0.0804
     16 H2         -1.5281    1.5627   -0.7392 H         1 <0>         0.0733
     17 H3         -1.7305    1.3560    1.0171 H         1 <0>         0.0729
     18 H4         -0.1722    0.0095   -2.0249 H         1 <0>         0.1321
     19 H5         -0.6661   -0.4893    2.1818 H         1 <0>         0.1318
     20 H6          1.2638   -2.9596    2.7546 H         1 <0>         0.0979
     21 H7         -0.4548   -2.6716    3.1179 H         1 <0>         0.0760
     22 H8          0.0216   -4.0605    2.1119 H         1 <0>         0.0729
     23 H9         -0.3564   -5.9772    0.2575 H         1 <0>         0.4168
     24 H10        -1.6579   -5.8674   -1.6292 H         1 <0>         0.3949
     25 H11         1.9124   -2.3037   -2.6927 H         1 <0>         0.0932
     26 H12         0.5933   -3.4969   -2.6239 H         1 <0>         0.0935
     27 H13         0.3137   -1.9028   -3.3649 H         1 <0>         0.0716
@<TRIPOS>BOND
     1    1    2 1
     2    1   15 1
     3    1   16 1
     4    1   17 1
     5    2    7 ar
     6    2    3 ar
     7    3    4 ar
     8    3   18 1
     9    4    5 ar
    10    4   14 1
    11    5    6 ar
    12    5    9 1
    13    6    7 ar
    14    6    8 1
    15    7   19 1
    16    8   20 1
    17    8   21 1
    18    8   22 1
    19    9   10 2
    20    9   11 2
    21    9   12 1
    22   12   13 1
    23   12   23 1
    24   13   24 1
    25   14   25 1
    26   14   26 1
    27   14   27 1
@<TRIPOS>MOLECULE
ZINC05052128
   25    25     0     0     0
SMALL
USER_CHARGES

@<TRIPOS>ATOM
      1 C1         -2.1938    1.4701    0.6085 C.3       1 <0>        -0.1737
      2 C2         -2.1691   -0.0367    0.6077 C.2       1 <0>         0.5115
      3 O1         -3.0611   -0.6581    1.1455 O.2       1 <0>        -0.5173
      4 N1         -1.1558   -0.6938    0.0094 N.am      1 <0>        -0.6795
      5 C3         -1.0812   -2.0886    0.0915 C.ar      1 <0>         0.2024
      6 C4          0.1549   -2.7155    0.1777 C.ar      1 <0>        -0.1684
      7 C5          0.2252   -4.0924    0.2586 C.ar      1 <0>        -0.0006
      8 C6         -0.9337   -4.8468    0.2538 C.ar      1 <0>        -0.6919
      9 C7         -2.1662   -4.2257    0.1675 C.ar      1 <0>         0.0087
     10 C8         -2.2435   -2.8487    0.0926 C.ar      1 <0>        -0.1452
     11 S1         -0.8398   -6.6033    0.3571 S.o2      1 <0>         2.7219
     12 O2         -2.0382   -7.1084   -0.2156 O.2       1 <0>        -0.9390
     13 O3          0.4469   -6.9700   -0.1215 O.2       1 <0>        -0.9395
     14 N2         -0.8785   -7.0020    1.9639 N.pl3     1 <0>        -0.9897
     15 O4         -2.0366   -6.7320    2.7327 O.3       1 <0>        -0.2975
     16 H1         -3.0822    1.8186    1.1352 H         1 <0>         0.1000
     17 H2         -1.3026    1.8478    1.1098 H         1 <0>         0.0944
     18 H3         -2.2144    1.8337   -0.4188 H         1 <0>         0.0947
     19 H4         -0.4782   -0.1997   -0.4782 H         1 <0>         0.4169
     20 H5          1.0605   -2.1269    0.1812 H         1 <0>         0.1376
     21 H6          1.1863   -4.5806    0.3253 H         1 <0>         0.1455
     22 H7         -3.0695   -4.8176    0.1637 H         1 <0>         0.1464
     23 H8         -3.2065   -2.3639    0.0305 H         1 <0>         0.1495
     24 H9         -0.1078   -7.4204    2.3785 H         1 <0>         0.4176
     25 H10        -1.9649   -6.9998    3.6591 H         1 <0>         0.3954
@<TRIPOS>BOND
     1    1    2 1
     2    1   16 1
     3    1   17 1
     4    1   18 1
     5    2    3 2
     6    2    4 am
     7    4    5 1
     8    4   19 1
     9    5   10 ar
    10    5    6 ar
    11    6    7 ar
    12    6   20 1
    13    7    8 ar
    14    7   21 1
    15    8    9 ar
    16    8   11 1
    17    9   10 ar
    18    9   22 1
    19   10   23 1
    20   11   12 2
    21   11   13 2
    22   11   14 1
    23   14   15 1
    24   14   24 1
    25   15   25 1
