@<TRIPOS>MOLECULE
ZINC18274777
   20    20     0     0     0
SMALL
USER_CHARGES

@<TRIPOS>ATOM
      1 C1         -2.1938    1.4701    0.6085 C.3       1 <0>        -0.1738
      2 C2         -2.1691   -0.0367    0.6077 C.2       1 <0>         0.5100
      3 O1         -3.0611   -0.6582    1.1456 O.2       1 <0>        -0.5253
      4 N1         -1.1558   -0.6938    0.0094 N.am      1 <0>        -0.6760
      5 C3         -1.0811   -2.0905    0.0916 C.ar      1 <0>         0.1315
      6 C4          0.1554   -2.7160    0.1778 C.ar      1 <0>        -0.1278
      7 C5          0.2283   -4.0925    0.2593 C.ar      1 <0>        -0.1267
      8 C6         -0.9336   -4.8504    0.2546 C.ar      1 <0>         0.0907
      9 C7         -2.1693   -4.2261    0.1680 C.ar      1 <0>        -0.1267
     10 C8         -2.2439   -2.8493    0.0927 C.ar      1 <0>        -0.1043
     11 O2         -0.8611   -6.2059    0.3344 O.3       1 <0>        -0.4991
     12 H1         -3.0822    1.8186    1.1352 H         1 <0>         0.0977
     13 H2         -1.3026    1.8478    1.1098 H         1 <0>         0.0926
     14 H3         -2.2144    1.8337   -0.4188 H         1 <0>         0.0926
     15 H4         -0.4783   -0.1997   -0.4782 H         1 <0>         0.4131
     16 H5          1.0601   -2.1261    0.1808 H         1 <0>         0.1308
     17 H6          1.1901   -4.5792    0.3264 H         1 <0>         0.1337
     18 H7         -3.0735   -4.8168    0.1636 H         1 <0>         0.1330
     19 H8         -3.2062   -2.3631    0.0301 H         1 <0>         0.1433
     20 H9         -0.8763   -6.5480    1.2387 H         1 <0>         0.3908
@<TRIPOS>BOND
     1    1    2 1
     2    1   12 1
     3    1   13 1
     4    1   14 1
     5    2    3 2
     6    2    4 am
     7    4    5 1
     8    4   15 1
     9    5   10 ar
    10    5    6 ar
    11    6    7 ar
    12    6   16 1
    13    7    8 ar
    14    7   17 1
    15    8    9 ar
    16    8   11 1
    17    9   10 ar
    18    9   18 1
    19   10   19 1
    20   11   20 1
@<TRIPOS>MOLECULE
ZINC04623758
   15    15     0     0     0
SMALL
USER_CHARGES

@<TRIPOS>ATOM
      1 C1         -0.0168    1.3844    0.0097 C.ar      1 <0>        -0.1835
      2 C2          1.1700    2.0907    0.0021 C.ar      1 <0>        -0.0947
      3 C3          2.3804    1.4137   -0.0131 C.ar      1 <0>         0.0411
      4 C4          2.4002    0.0268   -0.0207 C.ar      1 <0>        -0.0947
      5 C5          1.2143   -0.6811   -0.0132 C.ar      1 <0>        -0.1835
      6 C6          0.0021   -0.0041    0.0020 C.ar      1 <0>         0.2076
      7 N1         -1.1999   -0.7206    0.0101 N.pl3     1 <0>        -0.8790
      8 O1          3.5486    2.1100   -0.0209 O.3       1 <0>        -0.4993
      9 H1         -0.9591    1.9117    0.0260 H         1 <0>         0.1245
     10 H2          1.1556    3.1706    0.0077 H         1 <0>         0.1279
     11 H3          3.3431   -0.4996   -0.0329 H         1 <0>         0.1279
     12 H4          1.2299   -1.7610   -0.0195 H         1 <0>         0.1244
     13 H5         -2.0466   -0.2474    0.0211 H         1 <0>         0.3990
     14 H6         -1.1864   -1.6905    0.0048 H         1 <0>         0.3990
     15 H7          3.8951    2.3070    0.8601 H         1 <0>         0.3833
@<TRIPOS>BOND
     1    1    6 ar
     2    1    2 ar
     3    1    9 1
     4    2    3 ar
     5    2   10 1
     6    3    4 ar
     7    3    8 1
     8    4    5 ar
     9    4   11 1
    10    5    6 ar
    11    5   12 1
    12    6    7 1
    13    7   13 1
    14    7   14 1
    15    8   15 1
@<TRIPOS>MOLECULE
ZINC01529253
   23    22     0     0     0
SMALL
USER_CHARGES

@<TRIPOS>ATOM
      1 C1         -0.0187    1.5258    0.0104 C.3       1 <0>        -0.1185
      2 C2          0.0021   -0.0041    0.0020 C.3       1 <0>        -0.1546
      3 C3         -1.4333   -0.5336    0.0129 C.3       1 <0>        -0.0098
      4 N1         -1.4134   -2.0025    0.0048 N.4       1 <0>        -0.6393
      5 C4          1.4167    2.0553   -0.0004 C.3       1 <0>        -0.1545
      6 C5          1.3960    3.5852    0.0080 C.3       1 <0>        -0.0098
      7 N2          2.7741    4.0937   -0.0024 N.4       1 <0>        -0.6393
      8 H1         -0.5459    1.8868   -0.8726 H         1 <0>         0.0875
      9 H2         -0.5289    1.8773    0.9072 H         1 <0>         0.0875
     10 H3          0.5123   -0.3556   -0.8948 H         1 <0>         0.0923
     11 H4          0.5293   -0.3651    0.8851 H         1 <0>         0.0923
     12 H5         -1.9435   -0.1821    0.9097 H         1 <0>         0.1360
     13 H6         -1.9605   -0.1726   -0.8702 H         1 <0>         0.1360
     14 H7         -0.9411   -2.3279   -0.8254 H         1 <0>         0.4373
     15 H8         -0.9254   -2.3367    0.8222 H         1 <0>         0.4372
     16 H9          1.9439    1.6943    0.8826 H         1 <0>         0.0923
     17 H10         1.9269    1.7038   -0.8972 H         1 <0>         0.0923
     18 H11         0.8688    3.9463   -0.8751 H         1 <0>         0.1360
     19 H12         0.8858    3.9367    0.9048 H         1 <0>         0.1360
     20 H13         3.2621    3.7594    0.8150 H         1 <0>         0.4372
     21 H14         3.2464    3.7683   -0.8326 H         1 <0>         0.4373
     22 H15        -2.3600   -2.3517    0.0120 H         1 <0>         0.4442
     23 H16         2.7604    5.1025    0.0031 H         1 <0>         0.4442
@<TRIPOS>BOND
     1    1    2 1
     2    1    5 1
     3    1    8 1
     4    1    9 1
     5    2    3 1
     6    2   10 1
     7    2   11 1
     8    3    4 1
     9    3   12 1
    10    3   13 1
    11    4   14 1
    12    4   15 1
    13    4   22 1
    14    5    6 1
    15    5   16 1
    16    5   17 1
    17    6    7 1
    18    6   18 1
    19    6   19 1
    20    7   20 1
    21    7   21 1
    22    7   23 1
@<TRIPOS>MOLECULE
ZINC19365690
   48    47     0     0     0
SMALL
USER_CHARGES
N'-[2-(2-dimethylaminoethyl-methyl-amino)ethyl]-N,N,N'-trimethyl-ethane-1,2-diamine
@<TRIPOS>ATOM
      1 C1          1.3463    2.0098   -0.0000 C.3       1 <0>        -0.0462
      2 N1         -0.0178    1.4648    0.0101 N.4       1 <0>        -0.4005
      3 C2         -0.8017    1.9868   -1.1173 C.3       1 <0>        -0.0528
      4 C3          0.0021   -0.0041    0.0020 C.3       1 <0>        -0.0093
      5 C4         -1.4090   -0.5347    0.2631 C.3       1 <0>         0.0273
      6 N2         -1.3891   -2.0035    0.2551 N.3       1 <0>        -0.5344
      7 C5         -1.0640   -2.5183   -1.0818 C.3       1 <0>         0.0047
      8 C6         -2.6660   -2.5500    0.7334 C.3       1 <0>         0.0553
      9 C7         -2.5268   -4.0584    0.9481 C.3       1 <0>         0.0552
     10 N3         -3.8037   -4.6049    1.4264 N.3       1 <0>        -0.5345
     11 C8         -4.1288   -4.0901    2.7633 C.3       1 <0>         0.0050
     12 C9         -3.7838   -6.0737    1.4184 C.3       1 <0>         0.0273
     13 C10        -5.1949   -6.6044    1.6795 C.3       1 <0>        -0.0093
     14 N4         -5.1749   -8.0732    1.6714 N.4       1 <0>        -0.4005
     15 C11        -4.3911   -8.5953    2.7988 C.3       1 <0>        -0.0524
     16 C12        -6.5390   -8.6183    1.6815 C.3       1 <0>        -0.0462
     17 H1          1.9098    1.6034    0.8528 H         1 <0>         0.1258
     18 H2          1.3037    3.1062    0.0777 H         1 <0>         0.1284
     19 H3          1.8468    1.7279   -0.9381 H         1 <0>         0.1199
     20 H4         -1.8165    1.5634   -1.0855 H         1 <0>         0.1215
     21 H5         -0.3162    1.7047   -2.0632 H         1 <0>         0.1202
     22 H6         -0.8594    3.0831   -1.0474 H         1 <0>         0.1290
     23 H7          0.3524   -0.3606   -0.9779 H         1 <0>         0.1276
     24 H8          0.6812   -0.3660    0.7881 H         1 <0>         0.1407
     25 H9         -1.7593   -0.1781    1.2429 H         1 <0>         0.0985
     26 H10        -2.0881   -0.1729   -0.5230 H         1 <0>         0.0605
     27 H11        -1.0559   -3.6180   -1.0592 H         1 <0>         0.0829
     28 H12        -0.0727   -2.1505   -1.3853 H         1 <0>         0.0746
     29 H13        -1.8199   -2.1719   -1.8019 H         1 <0>         0.0400
     30 H14        -2.9381   -2.0679    1.6840 H         1 <0>         0.0842
     31 H15        -3.4503   -2.3568   -0.0133 H         1 <0>         0.0555
     32 H16        -2.2547   -4.5405   -0.0025 H         1 <0>         0.0843
     33 H17        -1.7426   -4.2517    1.6948 H         1 <0>         0.0556
     34 H18        -5.0875   -4.5144    3.0964 H         1 <0>         0.0738
     35 H19        -4.2067   -2.9935    2.7250 H         1 <0>         0.0831
     36 H20        -3.3357   -4.3769    3.4695 H         1 <0>         0.0404
     37 H21        -3.4334   -6.4303    0.4386 H         1 <0>         0.0984
     38 H22        -3.1047   -6.4355    2.2045 H         1 <0>         0.0605
     39 H23        -5.5452   -6.2478    2.6594 H         1 <0>         0.1277
     40 H24        -5.8740   -6.2426    0.8934 H         1 <0>         0.1407
     41 H25        -4.3928   -9.6949    2.7685 H         1 <0>         0.1289
     42 H26        -4.8370   -8.2539    3.7446 H         1 <0>         0.1198
     43 H27        -3.3567   -8.2281    2.7274 H         1 <0>         0.1216
     44 H28        -6.4947   -9.7174    1.6752 H         1 <0>         0.1283
     45 H29        -7.0804   -8.2680    0.7904 H         1 <0>         0.1260
     46 H30        -7.0633   -8.2777    2.5866 H         1 <0>         0.1198
     47 H31        -0.5052    1.7912    0.9406 H         1 <0>         0.4466
     48 H32        -4.6873   -8.3994    0.7409 H         1 <0>         0.4467
@<TRIPOS>BOND
     1    1    2 1
     2    1   17 1
     3    1   18 1
     4    1   19 1
     5    2    3 1
     6    2    4 1
     7    2   47 1
     8    3   20 1
     9    3   21 1
    10    3   22 1
    11    4    5 1
    12    4   23 1
    13    4   24 1
    14    5    6 1
    15    5   25 1
    16    5   26 1
    17    6    7 1
    18    6    8 1
    19    7   27 1
    20    7   28 1
    21    7   29 1
    22    8    9 1
    23    8   30 1
    24    8   31 1
    25    9   10 1
    26    9   32 1
    27    9   33 1
    28   10   11 1
    29   10   12 1
    30   11   34 1
    31   11   35 1
    32   11   36 1
    33   12   13 1
    34   12   37 1
    35   12   38 1
    36   13   14 1
    37   13   39 1
    38   13   40 1
    39   14   15 1
    40   14   16 1
    41   14   48 1
    42   15   41 1
    43   15   42 1
    44   15   43 1
    45   16   44 1
    46   16   45 1
    47   16   46 1
@<TRIPOS>MOLECULE
ZINC01700217
   29    30     0     0     0
SMALL
USER_CHARGES

@<TRIPOS>ATOM
      1 C1         -0.0164    1.3568    0.0095 C.ar      1 <0>        -0.1044
      2 C2          1.1685    2.0902    0.0021 C.ar      1 <0>        -0.1154
      3 C3          2.3785    1.4660   -0.0127 C.ar      1 <0>        -0.1086
      4 C4          2.4369    0.0637   -0.0208 C.ar      1 <0>        -0.0883
      5 C5          1.2329   -0.6830   -0.0133 C.ar      1 <0>        -0.0154
      6 C6          0.0021   -0.0041    0.0020 C.ar      1 <0>        -0.1079
      7 C7          1.2897   -2.0870   -0.0204 C.ar      1 <0>        -0.1454
      8 C8          2.4960   -2.7188   -0.0343 C.ar      1 <0>        -0.0741
      9 C9          3.6853   -1.9966   -0.0413 C.ar      1 <0>        -0.2035
     10 C10         3.6728   -0.6178   -0.0357 C.ar      1 <0>         0.2107
     11 N1          4.8691    0.0961   -0.0437 N.pl3     1 <0>        -0.7455
     12 C11         6.1482   -0.6180   -0.0592 C.3       1 <0>         0.1008
     13 C12         7.2966    0.3928   -0.0653 C.3       1 <0>        -0.0201
     14 N2          8.5792   -0.3232   -0.0809 N.4       1 <0>        -0.6315
     15 H1         -0.9633    1.8759    0.0259 H         1 <0>         0.1285
     16 H2          1.1264    3.1693    0.0079 H         1 <0>         0.1259
     17 H3          3.2888    2.0471   -0.0187 H         1 <0>         0.1160
     18 H4         -0.9241   -0.5595    0.0082 H         1 <0>         0.1331
     19 H5          0.3773   -2.6647   -0.0144 H         1 <0>         0.1292
     20 H6          2.5301   -3.7982   -0.0396 H         1 <0>         0.1256
     21 H7          4.6289   -2.5219   -0.0517 H         1 <0>         0.1166
     22 H8          4.8552    1.0660   -0.0390 H         1 <0>         0.4055
     23 H9          6.2233   -1.2480    0.8272 H         1 <0>         0.0823
     24 H10         6.2065   -1.2396   -0.9527 H         1 <0>         0.0823
     25 H11         7.2214    1.0228   -0.9517 H         1 <0>         0.1409
     26 H12         7.2383    1.0144    0.8282 H         1 <0>         0.1409
     27 H13         8.6488   -0.9063    0.7396 H         1 <0>         0.4388
     28 H14         8.6331   -0.8986   -0.9080 H         1 <0>         0.4388
     29 H15         9.3366    0.3434   -0.0849 H         1 <0>         0.4445
@<TRIPOS>BOND
     1    1    6 ar
     2    1    2 ar
     3    1   15 1
     4    2    3 ar
     5    2   16 1
     6    3    4 ar
     7    3   17 1
     8    4   10 ar
     9    4    5 ar
    10    5    6 ar
    11    5    7 ar
    12    6   18 1
    13    7    8 ar
    14    7   19 1
    15    8    9 ar
    16    8   20 1
    17    9   10 ar
    18    9   21 1
    19   10   11 1
    20   11   12 1
    21   11   22 1
    22   12   13 1
    23   12   23 1
    24   12   24 1
    25   13   14 1
    26   13   25 1
    27   13   26 1
    28   14   27 1
    29   14   28 1
    30   14   29 1
@<TRIPOS>MOLECULE
ZINC05133329
   13    13     0     0     0
SMALL
USER_CHARGES

@<TRIPOS>ATOM
      1 C1         -0.0167    1.3784    0.0096 C.ar      1 <0>        -0.1301
      2 C2          1.1698    2.0883    0.0021 C.ar      1 <0>        -0.1041
      3 C3          2.3773    1.4175   -0.0134 C.ar      1 <0>        -0.1470
      4 C4          2.3989    0.0304   -0.0210 C.ar      1 <0>         0.1027
      5 C5          1.2070   -0.6796   -0.0130 C.ar      1 <0>        -0.1470
      6 C6          0.0021   -0.0041    0.0020 C.ar      1 <0>        -0.1041
      7 O1          3.5855   -0.6319   -0.0368 O.3       1 <0>        -0.5005
      8 H1         -0.9596    1.9047    0.0260 H         1 <0>         0.1260
      9 H2          1.1525    3.1682    0.0080 H         1 <0>         0.1276
     10 H3          3.3038    1.9724   -0.0200 H         1 <0>         0.1287
     11 H4          1.2211   -1.7595   -0.0193 H         1 <0>         0.1287
     12 H5         -0.9260   -0.5563    0.0082 H         1 <0>         0.1276
     13 H6          3.9380   -0.8283    0.8420 H         1 <0>         0.3916
@<TRIPOS>BOND
     1    1    6 ar
     2    1    2 ar
     3    1    8 1
     4    2    3 ar
     5    2    9 1
     6    3    4 ar
     7    3   10 1
     8    4    5 ar
     9    4    7 1
    10    5    6 ar
    11    5   11 1
    12    6   12 1
    13    7   13 1
@<TRIPOS>MOLECULE
ZINC00156386
   23    23     0     0     0
SMALL
USER_CHARGES

@<TRIPOS>ATOM
      1 C1         -0.0173    1.4248    0.0099 C.3       1 <0>         0.0265
      2 O1          0.0021   -0.0041    0.0020 O.3       1 <0>        -0.3122
      3 C2          0.6062   -0.6076   -1.0565 C.ar      1 <0>         0.1191
      4 C3          1.1704    0.1588   -2.0580 C.ar      1 <0>        -0.1919
      5 C4          1.7916   -0.4626   -3.1463 C.ar      1 <0>        -0.0639
      6 C5          1.8394   -1.8588   -3.2169 C.ar      1 <0>        -0.1919
      7 C6          1.2734   -2.6195   -2.2122 C.ar      1 <0>         0.1189
      8 C7          0.6605   -1.9976   -1.1269 C.ar      1 <0>         0.0290
      9 O2          0.1097   -2.7484   -0.1378 O.3       1 <0>        -0.4759
     10 O3          1.3195   -3.9771   -2.2801 O.3       1 <0>        -0.3122
     11 C8          1.9685   -4.5481   -3.4179 C.3       1 <0>         0.0266
     12 C9          2.3935    0.3512   -4.2157 C.2       1 <0>         0.5204
     13 O4          2.3506    1.5722   -4.1529 O.co2     1 <0>        -0.6816
     14 O5          2.9365   -0.1936   -5.1670 O.co2     1 <0>        -0.6816
     15 H1          1.0053    1.8021    0.0021 H         1 <0>         0.0571
     16 H2         -0.5445    1.7859   -0.8732 H         1 <0>         0.0566
     17 H3         -0.5275    1.7763    0.9067 H         1 <0>         0.0956
     18 H4          1.1316    1.2366   -2.0009 H         1 <0>         0.1402
     19 H5          2.3180   -2.3415   -4.0561 H         1 <0>         0.1401
     20 H6         -0.8189   -2.9738   -0.2858 H         1 <0>         0.3719
     21 H7          1.4589   -4.2265   -4.3262 H         1 <0>         0.0566
     22 H8          3.0069   -4.2179   -3.4476 H         1 <0>         0.0571
     23 H9          1.9348   -5.6353   -3.3479 H         1 <0>         0.0956
@<TRIPOS>BOND
     1    1    2 1
     2    1   15 1
     3    1   16 1
     4    1   17 1
     5    2    3 1
     6    3    8 ar
     7    3    4 ar
     8    4    5 ar
     9    4   18 1
    10    5    6 ar
    11    5   12 1
    12    6    7 ar
    13    6   19 1
    14    7    8 ar
    15    7   10 1
    16    8    9 1
    17    9   20 1
    18   10   11 1
    19   11   21 1
    20   11   22 1
    21   11   23 1
    22   12   13 2
    23   12   14 1
@<TRIPOS>MOLECULE
ZINC00058172
   20    20     0     0     0
SMALL
USER_CHARGES

@<TRIPOS>ATOM
      1 C1         -0.0169    1.3957    0.0097 C.ar      1 <0>        -0.1140
      2 C2          1.1668    2.1000    0.0022 C.ar      1 <0>        -0.1250
      3 C3          2.3804    1.4254   -0.0135 C.ar      1 <0>         0.0593
      4 C4          2.4079    0.0305   -0.0212 C.ar      1 <0>         0.0806
      5 C5          1.2269   -0.6836   -0.0138 C.ar      1 <0>        -0.1286
      6 C6          0.0021   -0.0041    0.0020 C.ar      1 <0>        -0.0222
      7 C7         -1.2582   -0.7578    0.0105 C.2       1 <0>        -0.1234
      8 C8         -2.4405   -0.0992    0.0258 C.2       1 <0>        -0.1542
      9 C9         -3.6536   -0.8247    0.0339 C.2       1 <0>         0.4982
     10 O1         -3.6348   -2.0498    0.0272 O.co2     1 <0>        -0.6929
     11 O2         -4.7239   -0.2284    0.0477 O.co2     1 <0>        -0.6968
     12 O3          3.5989   -0.6258   -0.0366 O.3       1 <0>        -0.4900
     13 O4          3.5440    2.1254   -0.0217 O.3       1 <0>        -0.4895
     14 H1         -0.9592    1.9231    0.0260 H         1 <0>         0.1353
     15 H2          1.1511    3.1799    0.0081 H         1 <0>         0.1310
     16 H3          1.2470   -1.7634   -0.0205 H         1 <0>         0.1354
     17 H4         -1.2417   -1.8376    0.0045 H         1 <0>         0.1311
     18 H5         -2.4570    0.9807    0.0317 H         1 <0>         0.1021
     19 H6          3.9522   -0.8203    0.8423 H         1 <0>         0.3831
     20 H7          3.8899    2.3237    0.8592 H         1 <0>         0.3804
@<TRIPOS>BOND
     1    1    6 ar
     2    1    2 ar
     3    1   14 1
     4    2    3 ar
     5    2   15 1
     6    3    4 ar
     7    3   13 1
     8    4    5 ar
     9    4   12 1
    10    5    6 ar
    11    5   16 1
    12    6    7 1
    13    7    8 2
    14    7   17 1
    15    8    9 1
    16    8   18 1
    17    9   10 2
    18    9   11 1
    19   12   19 1
    20   13   20 1
@<TRIPOS>MOLECULE
ZINC00493069
   31    33     0     0     0
SMALL
USER_CHARGES

@<TRIPOS>ATOM
      1 C1         -0.0167    1.3781    0.0096 C.ar      1 <0>        -0.1060
      2 C2          1.1709    2.0855    0.0021 C.ar      1 <0>        -0.1228
      3 C3          2.3773    1.4107   -0.0130 C.ar      1 <0>        -0.0937
      4 C4          2.3960    0.0285   -0.0201 C.ar      1 <0>        -0.1034
      5 C5          1.2084   -0.6789   -0.0117 C.ar      1 <0>        -0.0937
      6 C6          0.0021   -0.0041    0.0020 C.ar      1 <0>        -0.1228
      7 C7          3.7112   -0.7071   -0.0376 C.3       1 <0>         0.1002
      8 O1          4.1410   -0.9464    1.3041 O.3       1 <0>        -0.2980
      9 C8          5.3173   -1.6042    1.4664 C.ar      1 <0>         0.1911
     10 C9          6.0448   -2.0055    0.3474 C.ar      1 <0>        -0.2289
     11 C10         7.2287   -2.6681    0.4939 C.ar      1 <0>        -0.0093
     12 C11         7.7161   -2.9461    1.7761 C.ar      1 <0>        -0.2014
     13 C12         8.9837   -3.6549    1.9637 C.2       1 <0>         0.0110
     14 C13         9.4033   -3.8944    3.2334 C.2       1 <0>        -0.2572
     15 C14         8.6211   -3.4620    4.3239 C.2       1 <0>         0.5095
     16 O2          9.0089   -3.6832    5.4570 O.2       1 <0>        -0.4611
     17 O3          7.4602   -2.8124    4.1451 O.3       1 <0>        -0.2700
     18 C15         6.9862   -2.5430    2.9098 C.ar      1 <0>         0.1901
     19 C16         5.7874   -1.8661    2.7427 C.ar      1 <0>        -0.1768
     20 H1         -0.9591    1.9053    0.0259 H         1 <0>         0.1260
     21 H2          1.1563    3.1654    0.0076 H         1 <0>         0.1269
     22 H3          3.3051    1.9634   -0.0196 H         1 <0>         0.1251
     23 H4          1.2231   -1.7588   -0.0176 H         1 <0>         0.1251
     24 H5         -0.9258   -0.5567    0.0082 H         1 <0>         0.1269
     25 H6          3.5884   -1.6586   -0.5549 H         1 <0>         0.0779
     26 H7          4.4573   -0.1052   -0.5563 H         1 <0>         0.0779
     27 H8          5.6688   -1.7911   -0.6421 H         1 <0>         0.1417
     28 H9          7.7878   -2.9773   -0.3769 H         1 <0>         0.1444
     29 H10         9.5690   -3.9787    1.1157 H         1 <0>         0.1540
     30 H11        10.3335   -4.4151    3.4070 H         1 <0>         0.1646
     31 H12         5.2201   -1.5480    3.6049 H         1 <0>         0.1527
@<TRIPOS>BOND
     1    1    6 ar
     2    1    2 ar
     3    1   20 1
     4    2    3 ar
     5    2   21 1
     6    3    4 ar
     7    3   22 1
     8    4    5 ar
     9    4    7 1
    10    5    6 ar
    11    5   23 1
    12    6   24 1
    13    7    8 1
    14    7   25 1
    15    7   26 1
    16    8    9 1
    17    9   19 ar
    18    9   10 ar
    19   10   11 ar
    20   10   27 1
    21   11   12 ar
    22   11   28 1
    23   12   18 ar
    24   12   13 1
    25   13   14 2
    26   13   29 1
    27   14   15 1
    28   14   30 1
    29   15   16 2
    30   15   17 1
    31   17   18 1
    32   18   19 ar
    33   19   31 1
@<TRIPOS>MOLECULE
ZINC00006787
   29    30     0     0     0
SMALL
USER_CHARGES

@<TRIPOS>ATOM
      1 C1         -0.0169    1.3936    0.0097 C.ar      1 <0>        -0.0880
      2 C2          1.1682    2.0965    0.0022 C.ar      1 <0>        -0.1444
      3 C3          2.3804    1.4185   -0.0131 C.ar      1 <0>         0.1088
      4 C4          2.4043    0.0297   -0.0212 C.ar      1 <0>        -0.1437
      5 C5          1.2244   -0.6820   -0.0142 C.ar      1 <0>        -0.0943
      6 C6          0.0021   -0.0041    0.0020 C.ar      1 <0>        -0.0701
      7 C7         -1.2624   -0.7604    0.0105 C.2       1 <0>        -0.0946
      8 C8         -1.2417   -2.1029    0.0031 C.2       1 <0>        -0.1125
      9 C9         -2.5067   -2.8595    0.0116 C.ar      1 <0>        -0.0208
     10 C10        -3.7282   -2.1821    0.0216 C.ar      1 <0>        -0.1505
     11 C11        -4.9138   -2.8974    0.0296 C.ar      1 <0>         0.1270
     12 C12        -4.8898   -4.2848    0.0277 C.ar      1 <0>        -0.1731
     13 C13        -3.6788   -4.9623    0.0183 C.ar      1 <0>         0.1263
     14 C14        -2.4878   -4.2561    0.0039 C.ar      1 <0>        -0.1438
     15 O1         -3.6617   -6.3213    0.0174 O.3       1 <0>        -0.4960
     16 O2         -6.1029   -2.2395    0.0398 O.3       1 <0>        -0.4960
     17 O3          3.5463    2.1158   -0.0204 O.3       1 <0>        -0.4996
     18 H1         -0.9588    1.9217    0.0260 H         1 <0>         0.1307
     19 H2          1.1546    3.1764    0.0077 H         1 <0>         0.1317
     20 H3          3.3492   -0.4932   -0.0334 H         1 <0>         0.1314
     21 H4          1.2440   -1.7618   -0.0209 H         1 <0>         0.1307
     22 H5         -2.2059   -0.2349    0.0227 H         1 <0>         0.1259
     23 H6         -0.2983   -2.6284   -0.0091 H         1 <0>         0.1276
     24 H7         -3.7479   -1.1023    0.0234 H         1 <0>         0.1351
     25 H8         -5.8166   -4.8392    0.0340 H         1 <0>         0.1362
     26 H9         -1.5459   -4.7843   -0.0083 H         1 <0>         0.1350
     27 H10        -3.6634   -6.7141   -0.8663 H         1 <0>         0.3942
     28 H11        -6.4539   -2.0477   -0.8406 H         1 <0>         0.3942
     29 H12         3.8923    2.3129    0.8608 H         1 <0>         0.3928
@<TRIPOS>BOND
     1    1    6 ar
     2    1    2 ar
     3    1   18 1
     4    2    3 ar
     5    2   19 1
     6    3    4 ar
     7    3   17 1
     8    4    5 ar
     9    4   20 1
    10    5    6 ar
    11    5   21 1
    12    6    7 1
    13    7    8 2
    14    7   22 1
    15    8    9 1
    16    8   23 1
    17    9   14 ar
    18    9   10 ar
    19   10   11 ar
    20   10   24 1
    21   11   12 ar
    22   11   16 1
    23   12   13 ar
    24   12   25 1
    25   13   14 ar
    26   13   15 1
    27   14   26 1
    28   15   27 1
    29   16   28 1
    30   17   29 1
@<TRIPOS>MOLECULE
ZINC00056721
   26    27     0     0     0
SMALL
USER_CHARGES

@<TRIPOS>ATOM
      1 C1         -0.0187    1.5258    0.0104 C.3       1 <0>        -0.1547
      2 C2          0.0021   -0.0041    0.0020 C.3       1 <0>         0.0492
      3 O1          0.6932   -0.4774    1.1597 O.3       1 <0>        -0.3006
      4 C3          0.8020   -1.8247    1.3057 C.ar      1 <0>         0.1921
      5 C4          0.2604   -2.6828    0.3521 C.ar      1 <0>        -0.2018
      6 C5          0.3546   -4.0332    0.4731 C.ar      1 <0>         0.0140
      7 C6          1.0107   -4.6197    1.5806 C.ar      1 <0>        -0.0020
      8 C7          1.5510   -3.7250    2.5328 C.ar      1 <0>        -0.0796
      9 C8          1.4586   -2.3607    2.4030 C.ar      1 <0>        -0.1219
     10 S1          2.2658   -4.8318    3.7244 S.3       1 <0>         0.1249
     11 C9          1.8165   -6.3576    2.9091 C.2       1 <0>        -0.4422
     12 N1          1.1890   -5.9318    1.8469 N.2       1 <0>        -0.3736
     13 S2          2.1387   -8.0154    3.4117 S.o2      1 <0>         2.7381
     14 O2          3.5473   -8.1923    3.3489 O.2       1 <0>        -0.9371
     15 O3          1.3964   -8.2298    4.6043 O.2       1 <0>        -0.9317
     16 N2          1.4848   -9.0116    2.2617 N.pl3     1 <0>        -1.2315
     17 H1          1.0039    1.9031    0.0027 H         1 <0>         0.0693
     18 H2         -0.5459    1.8868   -0.8726 H         1 <0>         0.0837
     19 H3         -0.5289    1.8773    0.9072 H         1 <0>         0.0693
     20 H4         -1.0205   -0.3814    0.0098 H         1 <0>         0.0697
     21 H5          0.5123   -0.3556   -0.8948 H         1 <0>         0.0697
     22 H6         -0.2474   -2.2649   -0.5046 H         1 <0>         0.1477
     23 H7         -0.0778   -4.6673   -0.2867 H         1 <0>         0.1464
     24 H8          1.8895   -1.7116    3.1509 H         1 <0>         0.1511
     25 H9          1.8842   -9.8780    2.0868 H         1 <0>         0.4270
     26 H10         0.7024   -8.7286    1.7631 H         1 <0>         0.4245
@<TRIPOS>BOND
     1    1    2 1
     2    1   17 1
     3    1   18 1
     4    1   19 1
     5    2    3 1
     6    2   20 1
     7    2   21 1
     8    3    4 1
     9    4    9 ar
    10    4    5 ar
    11    5    6 ar
    12    5   22 1
    13    6    7 ar
    14    6   23 1
    15    7   12 1
    16    7    8 ar
    17    8    9 ar
    18    8   10 1
    19    9   24 1
    20   10   11 1
    21   11   12 2
    22   11   13 1
    23   13   14 2
    24   13   15 2
    25   13   16 1
    26   16   25 1
    27   16   26 1
@<TRIPOS>MOLECULE
ZINC12503151
   23    23     0     0     0
SMALL
NO_CHARGES

@<TRIPOS>ATOM
      1 C1         -0.3789    1.0705    0.3515 C.3       1 <0>        -0.1347
      2 C2          0.5076   -0.1196    0.0888 C.2       1 <0>         0.4551
      3 O1          1.3641   -0.4298    0.8951 O.3       1 <0>        -0.3923
      4 N1          0.3540   -0.8288   -1.0216 N.2       1 <0>        -0.6178
      5 C3         -0.0468   -2.1007   -0.9514 C.2       1 <0>         0.3126
      6 N2         -0.4722   -2.7924    0.1303 N.pl3     1 <0>        -0.4005
      7 N3         -0.8397   -4.1105   -0.0380 N.pl3     1 <0>        -0.2827
      8 C4         -0.7560   -4.6173   -1.2349 C.2       1 <0>        -0.3295
      9 S1         -0.1544   -3.2357   -2.1872 S.3       1 <0>         0.3047
     10 S2         -1.1447   -6.2486   -1.7756 S.o2      1 <0>         2.5478
     11 O2         -0.0915   -6.6516   -2.6403 O.2       1 <0>        -0.9992
     12 O3         -1.5023   -6.9867   -0.6152 O.2       1 <0>        -1.0188
     13 N4         -2.5089   -6.1432   -2.7085 N.2       1 <0>        -1.2921
     14 C5         -0.5404   -2.1568    1.4485 C.3       1 <0>        -0.0096
     15 H1          0.0812    1.9657   -0.0669 H         1 <0>         0.1260
     16 H2         -1.3508    0.9096   -0.1151 H         1 <0>         0.1164
     17 H3         -0.5083    1.1970    1.4263 H         1 <0>         0.1126
     18 H4         -2.8882   -6.9430   -3.1051 H         1 <0>         0.3463
     19 H5         -0.8348   -1.1136    1.3340 H         1 <0>         0.0956
     20 H6         -1.2744   -2.6760    2.0647 H         1 <0>         0.1123
     21 H7          0.4374   -2.2079    1.9275 H         1 <0>         0.0918
     22 H8         -1.1502   -4.6433    0.7107 H         1 <0>         0.4270
     23 H9          1.8975   -1.1912    0.6290 H         1 <0>         0.4290
@<TRIPOS>BOND
     1    1    2 1
     2    1   15 1
     3    1   16 1
     4    1   17 1
     5    2    3 2
     6    2    4 1
     7    3   23 1
     8    4    5 2
     9    5    9 1
    10    5    6 1
    11    6    7 1
    12    6   14 1
    13    7    8 2
    14    7   22 1
    15    8    9 1
    16    8   10 1
    17   10   11 2
    18   10   12 2
    19   10   13 1
    20   13   18 1
    21   14   19 1
    22   14   20 1
    23   14   21 1
@<TRIPOS>MOLECULE
ZINC12503151
   23    23     0     0     0
SMALL
NO_CHARGES

@<TRIPOS>ATOM
      1 C1         -1.1346    0.9241    0.3407 C.3       1 <0>        -0.1307
      2 C2          0.0031   -0.0044    0.0020 C.2       1 <0>         0.4894
      3 O1          0.9224   -0.1509    0.7852 O.3       1 <0>        -0.3736
      4 N1          0.0020   -0.6621   -1.1500 N.2       1 <0>        -0.6464
      5 C3         -0.0802   -1.9949   -1.1578 C.2       1 <0>         0.3469
      6 N2          0.0027   -2.8388   -2.2117 N.pl3     1 <0>        -0.3538
      7 N3         -0.1119   -4.1925   -1.9774 N.pl3     1 <0>        -0.2782
      8 C4         -0.2944   -4.5840   -0.7486 C.2       1 <0>        -0.3302
      9 S1         -0.3048   -3.0391    0.1407 S.3       1 <0>         0.0989
     10 S2         -0.4768   -6.2215   -0.1244 S.o2      1 <0>         2.5579
     11 O2         -1.5476   -6.1834    0.8090 O.2       1 <0>        -1.0001
     12 O3         -0.4786   -7.0877   -1.2508 O.2       1 <0>        -1.0219
     13 N4          0.8919   -6.5715    0.7396 N.2       1 <0>        -1.2976
     14 C5          0.2086   -2.3268   -3.5688 C.3       1 <0>         0.0360
     15 H1         -0.9060    1.9262   -0.0224 H         1 <0>         0.1254
     16 H2         -2.0490    0.5661   -0.1324 H         1 <0>         0.1183
     17 H3         -1.2715    0.9518    1.4217 H         1 <0>         0.1209
     18 H4          0.9868   -7.4364    1.1685 H         1 <0>         0.3466
     19 H5          1.2771   -2.2630   -3.7748 H         1 <0>         0.0931
     20 H6         -0.2601   -3.0003   -4.2862 H         1 <0>         0.0994
     21 H7         -0.2378   -1.3362   -3.6550 H         1 <0>         0.1167
     22 H8         -0.0588   -4.8327   -2.7042 H         1 <0>         0.4514
     23 H9          1.5651   -0.8215    0.5163 H         1 <0>         0.4315
@<TRIPOS>BOND
     1    1    2 1
     2    1   15 1
     3    1   16 1
     4    1   17 1
     5    2    3 2
     6    2    4 1
     7    3   23 1
     8    4    5 2
     9    5    9 1
    10    5    6 1
    11    6    7 1
    12    6   14 1
    13    7    8 2
    14    7   22 1
    15    8    9 1
    16    8   10 1
    17   10   11 2
    18   10   12 2
    19   10   13 1
    20   13   18 1
    21   14   19 1
    22   14   20 1
    23   14   21 1
@<TRIPOS>MOLECULE
ZINC03813042
   19    19     0     0     0
SMALL
USER_CHARGES

@<TRIPOS>ATOM
      1 C1         -0.0184    1.5028    0.0103 C.3       1 <0>        -0.1669
      2 C2          0.0021   -0.0041    0.0020 C.2       1 <0>         0.5048
      3 O1          1.0605   -0.5961   -0.0113 O.2       1 <0>        -0.4597
      4 N1         -1.1558   -0.6938    0.0094 N.am      1 <0>        -0.6127
      5 C3         -1.1370   -2.0844    0.0017 C.2       1 <0>         0.2593
      6 N2         -0.1026   -2.9019   -0.0067 N.2       1 <0>        -0.3105
      7 N3         -0.2439   -4.1575   -0.0130 N.2       1 <0>        -0.1075
      8 C4         -1.4599   -4.6659   -0.0111 C.2       1 <0>        -0.5832
      9 S1         -2.4308   -3.1653    0.0083 S.3       1 <0>         0.2359
     10 S2         -1.9811   -6.3490   -0.0183 S.o2      1 <0>         2.7480
     11 O2         -1.9574   -6.7873    1.3333 O.2       1 <0>        -0.9356
     12 O3         -3.1545   -6.4075   -0.8177 O.2       1 <0>        -0.9350
     13 N4         -0.8199   -7.2178   -0.8179 N.pl3     1 <0>        -1.2313
     14 H1          1.0042    1.8801    0.0026 H         1 <0>         0.1076
     15 H2         -0.5455    1.8639   -0.8728 H         1 <0>         0.1002
     16 H3         -0.5286    1.8543    0.9071 H         1 <0>         0.1002
     17 H4         -2.0023   -0.2203    0.0200 H         1 <0>         0.4348
     18 H5         -0.6611   -8.1456   -0.5837 H         1 <0>         0.4284
     19 H6         -0.2986   -6.7988   -1.5204 H         1 <0>         0.4232
@<TRIPOS>BOND
     1    1    2 1
     2    1   14 1
     3    1   15 1
     4    1   16 1
     5    2    3 2
     6    2    4 am
     7    4    5 1
     8    4   17 1
     9    5    9 1
    10    5    6 2
    11    6    7 1
    12    7    8 2
    13    8    9 1
    14    8   10 1
    15   10   11 2
    16   10   12 2
    17   10   13 1
    18   13   18 1
    19   13   19 1
@<TRIPOS>MOLECULE
ZINC03813042
   18    18     0     0     0
SMALL
USER_CHARGES

@<TRIPOS>ATOM
      1 C1         -0.0184    1.5028    0.0103 C.3       1 <0>        -0.1624
      2 C2          0.0021   -0.0041    0.0020 C.2       1 <0>         0.5010
      3 O1          0.0203   -0.6161    1.0490 O.2       1 <0>        -0.4698
      4 N1          0.0001   -0.6716   -1.1688 N.am      1 <0>        -0.6150
      5 C3          0.0189   -2.0622   -1.1765 C.2       1 <0>         0.2229
      6 N2          0.0342   -2.8992   -0.1578 N.2       1 <0>        -0.3133
      7 N3          0.0506   -4.1518   -0.3231 N.2       1 <0>        -0.1306
      8 C4          0.0525   -4.6369   -1.5486 C.2       1 <0>        -0.4261
      9 S1          0.0209   -3.1183   -2.4906 S.3       1 <0>         0.1375
     10 S2          0.0731   -6.3097   -2.1017 S.o2      1 <0>         2.6009
     11 O2         -1.2748   -6.7592   -2.0864 O.2       1 <0>        -1.0365
     12 O3          0.8728   -6.3393   -3.2760 O.2       1 <0>        -1.0415
     13 N4          0.8799   -7.1939   -0.9573 N.2       1 <0>        -1.3126
     14 H1          1.0042    1.8801    0.0026 H         1 <0>         0.1013
     15 H2         -0.5455    1.8639   -0.8728 H         1 <0>         0.0851
     16 H3         -0.5286    1.8543    0.9071 H         1 <0>         0.1022
     17 H4         -0.0145   -0.1822   -2.0061 H         1 <0>         0.4269
     18 H5          0.9999   -8.1489   -1.0779 H         1 <0>         0.3298
@<TRIPOS>BOND
     1    1    2 1
     2    1   14 1
     3    1   15 1
     4    1   16 1
     5    2    3 2
     6    2    4 am
     7    4    5 1
     8    4   17 1
     9    5    9 1
    10    5    6 2
    11    6    7 1
    12    7    8 2
    13    8    9 1
    14    8   10 1
    15   10   11 2
    16   10   12 2
    17   10   13 1
    18   13   18 1
@<TRIPOS>MOLECULE
ZINC00119978
   35    37     0     0     0
SMALL
USER_CHARGES

@<TRIPOS>ATOM
      1 C1         -0.0167    1.3779    0.0096 C.ar      1 <0>        -0.0610
      2 C2          1.1696    2.0886    0.0021 C.ar      1 <0>        -0.1355
      3 C3          2.3802    1.4154   -0.0130 C.ar      1 <0>         0.0908
      4 C4          2.3990    0.0236   -0.0206 C.ar      1 <0>         0.0771
      5 C5          1.2071   -0.6822   -0.0130 C.ar      1 <0>        -0.1167
      6 C6          0.0021   -0.0041    0.0020 C.ar      1 <0>        -0.0830
      7 C7         -1.2936   -0.7736    0.0102 C.3       1 <0>         0.1458
      8 H1         -1.1201   -1.7884   -0.3479 H         1 <0>         0.0970
      9 C8         -1.8590   -0.8183    1.4356 C.3       1 <0>         0.0774
     10 H2         -1.1168   -1.2422    2.1121 H         1 <0>         0.0795
     11 C9         -3.1120   -1.6975    1.4281 C.3       1 <0>        -0.1008
     12 C10        -4.0118   -1.2895    0.2891 C.ar      1 <0>        -0.1920
     13 C11        -5.3448   -1.6839    0.3168 C.ar      1 <0>         0.1573
     14 C12        -6.1992   -1.3308   -0.7146 C.ar      1 <0>        -0.2027
     15 C13        -5.7231   -0.5806   -1.7796 C.ar      1 <0>         0.1581
     16 C14        -4.3960   -0.1855   -1.8071 C.ar      1 <0>        -0.1851
     17 C15        -3.5373   -0.5380   -0.7709 C.ar      1 <0>         0.1753
     18 O1         -2.2452   -0.1223   -0.8323 O.3       1 <0>        -0.2920
     19 O2         -6.5574   -0.2342   -2.7948 O.3       1 <0>        -0.4925
     20 O3         -5.8113   -2.4194    1.3600 O.3       1 <0>        -0.4918
     21 O4         -2.1991    0.5029    1.8606 O.3       1 <0>        -0.5471
     22 O5          3.5850   -0.6417   -0.0359 O.3       1 <0>        -0.4856
     23 O6          3.5476    2.1129   -0.0209 O.3       1 <0>        -0.4877
     24 H3         -0.9598    1.9038    0.0259 H         1 <0>         0.1392
     25 H4          1.1522    3.1684    0.0077 H         1 <0>         0.1364
     26 H5          1.2190   -1.7621   -0.0189 H         1 <0>         0.1353
     27 H6         -2.8221   -2.7410    1.3054 H         1 <0>         0.0902
     28 H7         -3.6445   -1.5781    2.3716 H         1 <0>         0.0880
     29 H8         -7.2339   -1.6393   -0.6898 H         1 <0>         0.1380
     30 H9         -4.0260    0.3985   -2.6368 H         1 <0>         0.1409
     31 H10        -7.0114    0.6089   -2.6604 H         1 <0>         0.3966
     32 H11        -6.1571   -1.8895    2.0913 H         1 <0>         0.3930
     33 H12        -2.5632    0.5468    2.7553 H         1 <0>         0.3808
     34 H13         3.9367   -0.8389    0.8430 H         1 <0>         0.3875
     35 H14         3.8938    2.3101    0.8602 H         1 <0>         0.3892
@<TRIPOS>BOND
     1    1    6 ar
     2    1    2 ar
     3    1   24 1
     4    2    3 ar
     5    2   25 1
     6    3    4 ar
     7    3   23 1
     8    4    5 ar
     9    4   22 1
    10    5    6 ar
    11    5   26 1
    12    6    7 1
    13    7    8 1
    14    7   18 1
    15    7    9 1
    16    9   10 1
    17    9   11 1
    18    9   21 1
    19   11   12 1
    20   11   27 1
    21   11   28 1
    22   12   17 ar
    23   12   13 ar
    24   13   14 ar
    25   13   20 1
    26   14   15 ar
    27   14   29 1
    28   15   16 ar
    29   15   19 1
    30   16   17 ar
    31   16   30 1
    32   17   18 1
    33   19   31 1
    34   20   32 1
    35   21   33 1
    36   22   34 1
    37   23   35 1
@<TRIPOS>MOLECULE
ZINC00119983
   35    37     0     0     0
SMALL
USER_CHARGES

@<TRIPOS>ATOM
      1 C1         -0.0167    1.3779    0.0096 C.ar      1 <0>        -0.0875
      2 C2          1.1696    2.0886    0.0021 C.ar      1 <0>        -0.1321
      3 C3          2.3802    1.4154   -0.0130 C.ar      1 <0>         0.0878
      4 C4          2.3990    0.0236   -0.0206 C.ar      1 <0>         0.0799
      5 C5          1.2071   -0.6822   -0.0130 C.ar      1 <0>        -0.0978
      6 C6          0.0021   -0.0041    0.0020 C.ar      1 <0>        -0.0724
      7 C7         -1.2936   -0.7736    0.0102 C.3       1 <0>         0.1449
      8 H1         -1.1302   -1.7631    0.4371 H         1 <0>         0.0922
      9 C8         -1.8224   -0.9103   -1.4233 C.3       1 <0>         0.0817
     10 H2         -2.0734    0.0744   -1.8178 H         1 <0>         0.0737
     11 C9         -3.0759   -1.7881   -1.3913 C.3       1 <0>        -0.1054
     12 C10        -4.0042   -1.3085   -0.3042 C.ar      1 <0>        -0.1944
     13 C11        -5.3364   -1.7051   -0.3406 C.ar      1 <0>         0.1607
     14 C12        -6.2168   -1.2864    0.6434 C.ar      1 <0>        -0.1995
     15 C13        -5.7673   -0.4690    1.6698 C.ar      1 <0>         0.1586
     16 C14        -4.4409   -0.0726    1.7062 C.ar      1 <0>        -0.1804
     17 C15        -3.5564   -0.4901    0.7171 C.ar      1 <0>         0.1616
     18 O1         -2.2659   -0.0703    0.7846 O.3       1 <0>        -0.2950
     19 O2         -6.6274   -0.0572    2.6380 O.3       1 <0>        -0.4915
     20 O3         -5.7767   -2.5064   -1.3460 O.3       1 <0>        -0.4913
     21 O4         -0.8272   -1.5201   -2.2478 O.3       1 <0>        -0.5487
     22 O5          3.5850   -0.6417   -0.0359 O.3       1 <0>        -0.4855
     23 O6          3.5476    2.1129   -0.0209 O.3       1 <0>        -0.4877
     24 H3         -0.9598    1.9038    0.0259 H         1 <0>         0.1338
     25 H4          1.1522    3.1684    0.0077 H         1 <0>         0.1365
     26 H5          1.2190   -1.7621   -0.0189 H         1 <0>         0.1360
     27 H6         -3.5841   -1.7300   -2.3539 H         1 <0>         0.0942
     28 H7         -2.7902   -2.8214   -1.1946 H         1 <0>         0.0882
     29 H8         -7.2509   -1.5961    0.6116 H         1 <0>         0.1400
     30 H9         -4.0917    0.5638    2.5059 H         1 <0>         0.1428
     31 H10        -6.6766   -0.6517    3.3991 H         1 <0>         0.3973
     32 H11        -5.7049   -3.4517   -1.1556 H         1 <0>         0.3955
     33 H12        -1.0970   -1.6366   -3.1690 H         1 <0>         0.3873
     34 H13         3.9367   -0.8389    0.8430 H         1 <0>         0.3877
     35 H14         3.8938    2.3101    0.8602 H         1 <0>         0.3889
@<TRIPOS>BOND
     1    1    6 ar
     2    1    2 ar
     3    1   24 1
     4    2    3 ar
     5    2   25 1
     6    3    4 ar
     7    3   23 1
     8    4    5 ar
     9    4   22 1
    10    5    6 ar
    11    5   26 1
    12    6    7 1
    13    7    8 1
    14    7   18 1
    15    7    9 1
    16    9   10 1
    17    9   11 1
    18    9   21 1
    19   11   12 1
    20   11   27 1
    21   11   28 1
    22   12   17 ar
    23   12   13 ar
    24   13   14 ar
    25   13   20 1
    26   14   15 ar
    27   14   29 1
    28   15   16 ar
    29   15   19 1
    30   16   17 ar
    31   16   30 1
    32   17   18 1
    33   19   31 1
    34   20   32 1
    35   21   33 1
    36   22   34 1
    37   23   35 1
@<TRIPOS>MOLECULE
ZINC00119985
   35    37     0     0     0
SMALL
USER_CHARGES

@<TRIPOS>ATOM
      1 C1         -0.0167    1.3779    0.0096 C.ar      1 <0>        -0.0867
      2 C2          1.1696    2.0886    0.0021 C.ar      1 <0>        -0.1323
      3 C3          2.3802    1.4154   -0.0130 C.ar      1 <0>         0.0885
      4 C4          2.3990    0.0236   -0.0206 C.ar      1 <0>         0.0807
      5 C5          1.2071   -0.6822   -0.0130 C.ar      1 <0>        -0.0990
      6 C6          0.0021   -0.0041    0.0020 C.ar      1 <0>        -0.0707
      7 C7         -1.2936   -0.7736    0.0102 C.3       1 <0>         0.1435
      8 H1         -1.1201   -1.7884   -0.3479 H         1 <0>         0.0926
      9 C8         -1.8590   -0.8183    1.4356 C.3       1 <0>         0.0823
     10 H2         -2.1191    0.1894    1.7595 H         1 <0>         0.0731
     11 C9         -3.1120   -1.6975    1.4281 C.3       1 <0>        -0.1021
     12 C10        -4.0118   -1.2895    0.2891 C.ar      1 <0>        -0.1942
     13 C11        -5.3448   -1.6839    0.3168 C.ar      1 <0>         0.1598
     14 C12        -6.1992   -1.3308   -0.7146 C.ar      1 <0>        -0.1989
     15 C13        -5.7231   -0.5806   -1.7796 C.ar      1 <0>         0.1590
     16 C14        -4.3960   -0.1855   -1.8071 C.ar      1 <0>        -0.1806
     17 C15        -3.5373   -0.5380   -0.7709 C.ar      1 <0>         0.1614
     18 O1         -2.2452   -0.1223   -0.8323 O.3       1 <0>        -0.2944
     19 O2         -6.5574   -0.2342   -2.7948 O.3       1 <0>        -0.4914
     20 O3         -5.8113   -2.4194    1.3600 O.3       1 <0>        -0.4904
     21 O4         -0.8856   -1.3731    2.3226 O.3       1 <0>        -0.5492
     22 O5          3.5850   -0.6417   -0.0359 O.3       1 <0>        -0.4860
     23 O6          3.5476    2.1129   -0.0209 O.3       1 <0>        -0.4876
     24 H3         -0.9598    1.9038    0.0259 H         1 <0>         0.1324
     25 H4          1.1522    3.1684    0.0077 H         1 <0>         0.1364
     26 H5          1.2190   -1.7621   -0.0189 H         1 <0>         0.1358
     27 H6         -2.8221   -2.7410    1.3054 H         1 <0>         0.0925
     28 H7         -3.6445   -1.5781    2.3716 H         1 <0>         0.0873
     29 H8         -7.2339   -1.6393   -0.6898 H         1 <0>         0.1400
     30 H9         -4.0260    0.3985   -2.6368 H         1 <0>         0.1432
     31 H10        -7.0114    0.6089   -2.6604 H         1 <0>         0.3973
     32 H11        -6.1571   -1.8895    2.0913 H         1 <0>         0.3941
     33 H12        -1.1790   -1.4304    3.2423 H         1 <0>         0.3861
     34 H13         3.9367   -0.8389    0.8430 H         1 <0>         0.3885
     35 H14         3.8938    2.3101    0.8602 H         1 <0>         0.3890
@<TRIPOS>BOND
     1    1    6 ar
     2    1    2 ar
     3    1   24 1
     4    2    3 ar
     5    2   25 1
     6    3    4 ar
     7    3   23 1
     8    4    5 ar
     9    4   22 1
    10    5    6 ar
    11    5   26 1
    12    6    7 1
    13    7    8 1
    14    7   18 1
    15    7    9 1
    16    9   10 1
    17    9   11 1
    18    9   21 1
    19   11   12 1
    20   11   27 1
    21   11   28 1
    22   12   17 ar
    23   12   13 ar
    24   13   14 ar
    25   13   20 1
    26   14   15 ar
    27   14   29 1
    28   15   16 ar
    29   15   19 1
    30   16   17 ar
    31   16   30 1
    32   17   18 1
    33   19   31 1
    34   20   32 1
    35   21   33 1
    36   22   34 1
    37   23   35 1
@<TRIPOS>MOLECULE
ZINC00119988
   35    37     0     0     0
SMALL
USER_CHARGES

@<TRIPOS>ATOM
      1 C1         -0.0167    1.3779    0.0096 C.ar      1 <0>        -0.0628
      2 C2          1.1696    2.0886    0.0021 C.ar      1 <0>        -0.1339
      3 C3          2.3802    1.4154   -0.0130 C.ar      1 <0>         0.0896
      4 C4          2.3990    0.0236   -0.0206 C.ar      1 <0>         0.0776
      5 C5          1.2071   -0.6822   -0.0130 C.ar      1 <0>        -0.1181
      6 C6          0.0021   -0.0041    0.0020 C.ar      1 <0>        -0.0813
      7 C7         -1.2936   -0.7736    0.0102 C.3       1 <0>         0.1464
      8 H1         -1.1302   -1.7631    0.4371 H         1 <0>         0.0966
      9 C8         -1.8224   -0.9103   -1.4233 C.3       1 <0>         0.0774
     10 H2         -1.0636   -1.3761   -2.0520 H         1 <0>         0.0797
     11 C9         -3.0759   -1.7881   -1.3913 C.3       1 <0>        -0.1047
     12 C10        -4.0042   -1.3085   -0.3042 C.ar      1 <0>        -0.1922
     13 C11        -5.3364   -1.7051   -0.3406 C.ar      1 <0>         0.1583
     14 C12        -6.2168   -1.2864    0.6434 C.ar      1 <0>        -0.2033
     15 C13        -5.7673   -0.4690    1.6698 C.ar      1 <0>         0.1577
     16 C14        -4.4409   -0.0726    1.7062 C.ar      1 <0>        -0.1847
     17 C15        -3.5564   -0.4901    0.7171 C.ar      1 <0>         0.1751
     18 O1         -2.2659   -0.0703    0.7846 O.3       1 <0>        -0.2923
     19 O2         -6.6274   -0.0572    2.6380 O.3       1 <0>        -0.4921
     20 O3         -5.7767   -2.5064   -1.3460 O.3       1 <0>        -0.4921
     21 O4         -2.1505    0.3807   -1.9409 O.3       1 <0>        -0.5467
     22 O5          3.5850   -0.6417   -0.0359 O.3       1 <0>        -0.4863
     23 O6          3.5476    2.1129   -0.0209 O.3       1 <0>        -0.4879
     24 H3         -0.9598    1.9038    0.0259 H         1 <0>         0.1388
     25 H4          1.1522    3.1684    0.0077 H         1 <0>         0.1366
     26 H5          1.2190   -1.7621   -0.0189 H         1 <0>         0.1349
     27 H6         -3.5841   -1.7300   -2.3539 H         1 <0>         0.0950
     28 H7         -2.7902   -2.8214   -1.1946 H         1 <0>         0.0859
     29 H8         -7.2509   -1.5961    0.6116 H         1 <0>         0.1380
     30 H9         -4.0917    0.5638    2.5059 H         1 <0>         0.1406
     31 H10        -6.6766   -0.6517    3.3991 H         1 <0>         0.3961
     32 H11        -5.7049   -3.4517   -1.1556 H         1 <0>         0.3938
     33 H12        -2.4917    0.3667   -2.8456 H         1 <0>         0.3831
     34 H13         3.9367   -0.8389    0.8430 H         1 <0>         0.3881
     35 H14         3.8938    2.3101    0.8602 H         1 <0>         0.3893
@<TRIPOS>BOND
     1    1    6 ar
     2    1    2 ar
     3    1   24 1
     4    2    3 ar
     5    2   25 1
     6    3    4 ar
     7    3   23 1
     8    4    5 ar
     9    4   22 1
    10    5    6 ar
    11    5   26 1
    12    6    7 1
    13    7    8 1
    14    7   18 1
    15    7    9 1
    16    9   10 1
    17    9   11 1
    18    9   21 1
    19   11   12 1
    20   11   27 1
    21   11   28 1
    22   12   17 ar
    23   12   13 ar
    24   13   14 ar
    25   13   20 1
    26   14   15 ar
    27   14   29 1
    28   15   16 ar
    29   15   19 1
    30   16   17 ar
    31   16   30 1
    32   17   18 1
    33   19   31 1
    34   20   32 1
    35   21   33 1
    36   22   34 1
    37   23   35 1
@<TRIPOS>MOLECULE
ZINC00119988
   35    37     0     0     0
SMALL
USER_CHARGES

@<TRIPOS>ATOM
      1 C1         -0.0167    1.3809    0.0096 C.ar      1 <0>        -0.2034
      2 C2          1.1766    2.0878    0.0020 C.ar      1 <0>         0.1587
      3 C3          2.3823    1.4068   -0.0152 C.ar      1 <0>        -0.1833
      4 C4          2.4025    0.0159   -0.0241 C.ar      1 <0>         0.1747
      5 C5          1.2122   -0.6887   -0.0130 C.ar      1 <0>        -0.1921
      6 C6          0.0021   -0.0041    0.0020 C.ar      1 <0>         0.1579
      7 O1         -1.1671   -0.6966    0.0088 O.3       1 <0>        -0.4928
      8 C7          1.1916   -2.1964   -0.0108 C.3       1 <0>        -0.1012
      9 C8          2.5519   -2.7315   -0.4648 C.3       1 <0>         0.0660
     10 H1          2.6125   -3.8007   -0.2614 H         1 <0>         0.0829
     11 C9          3.6454   -1.9935    0.3180 C.3       1 <0>         0.1091
     12 H2          3.4637   -2.0957    1.3879 H         1 <0>         0.0966
     13 O2          3.6065   -0.6132   -0.0469 O.3       1 <0>        -0.2931
     14 C10         5.0145   -2.5810   -0.0306 C.3       1 <0>        -0.0576
     15 H3          5.1878   -2.4642   -1.1004 H         1 <0>         0.1250
     16 C11         6.0934   -1.8145    0.7342 C.3       1 <0>        -0.1579
     17 C12         7.3999   -2.5792    0.6040 C.2       1 <0>         0.3268
     18 O3          8.4121   -2.0692    0.1868 O.2       1 <0>        -0.3922
     19 C13         7.3376   -4.0204    1.0348 C.2       1 <0>         0.3440
     20 O4          8.2788   -4.5790    1.5616 O.2       1 <0>        -0.3988
     21 C14         6.0607   -4.7093    0.7765 C.2       1 <0>        -0.2091
     22 C15         5.0182   -4.0387    0.3064 C.2       1 <0>        -0.0650
     23 O5          2.7189   -2.4973   -1.8645 O.3       1 <0>        -0.5485
     24 O6          1.1626    3.4467    0.0110 O.3       1 <0>        -0.4928
     25 H4         -0.9585    1.9092    0.0260 H         1 <0>         0.1381
     26 H5          3.3110    1.9580   -0.0220 H         1 <0>         0.1415
     27 H6         -1.5134   -0.8923   -0.8726 H         1 <0>         0.3943
     28 H7          0.9786   -2.5547    0.9963 H         1 <0>         0.0908
     29 H8          0.4173   -2.5494   -0.6920 H         1 <0>         0.0885
     30 H9          6.2071   -0.8171    0.3095 H         1 <0>         0.1147
     31 H10         5.8152   -1.7380    1.7853 H         1 <0>         0.1120
     32 H11         5.9735   -5.7677    0.9729 H         1 <0>         0.1507
     33 H12         4.1010   -4.5881    0.1539 H         1 <0>         0.1343
     34 H13         2.0487   -2.9221   -2.4171 H         1 <0>         0.3838
     35 H14         1.1675    3.8342    0.8969 H         1 <0>         0.3974
@<TRIPOS>BOND
     1    1    6 ar
     2    1    2 ar
     3    1   25 1
     4    2    3 ar
     5    2   24 1
     6    3    4 ar
     7    3   26 1
     8    4   13 1
     9    4    5 ar
    10    5    6 ar
    11    5    8 1
    12    6    7 1
    13    7   27 1
    14    8    9 1
    15    8   28 1
    16    8   29 1
    17    9   10 1
    18    9   11 1
    19    9   23 1
    20   11   12 1
    21   11   13 1
    22   11   14 1
    23   14   15 1
    24   14   22 1
    25   14   16 1
    26   16   17 1
    27   16   30 1
    28   16   31 1
    29   17   18 2
    30   17   19 1
    31   19   20 2
    32   19   21 1
    33   21   22 2
    34   21   32 1
    35   22   33 1
    36   23   34 1
    37   24   35 1
@<TRIPOS>MOLECULE
ZINC00119988
   35    37     0     0     0
SMALL
USER_CHARGES

@<TRIPOS>ATOM
      1 C1         -0.0115    1.3874    0.0191 C.ar      1 <0>        -0.2033
      2 C2          1.1827    2.0928    0.0180 C.ar      1 <0>         0.1585
      3 C3          2.3876    1.4102   -0.0001 C.ar      1 <0>        -0.1836
      4 C4          2.4060    0.0194   -0.0163 C.ar      1 <0>         0.1747
      5 C5          1.2147   -0.6837   -0.0116 C.ar      1 <0>        -0.1914
      6 C6          0.0055    0.0025    0.0043 C.ar      1 <0>         0.1581
      7 O1         -1.1647   -0.6886    0.0048 O.3       1 <0>        -0.4928
      8 C7          1.1921   -2.1913   -0.0174 C.3       1 <0>        -0.1014
      9 C8          2.5527   -2.7259   -0.4711 C.3       1 <0>         0.0670
     10 H1          2.6114   -3.7962   -0.2733 H         1 <0>         0.0832
     11 C9          3.6454   -1.9935    0.3180 C.3       1 <0>         0.1093
     12 H2          3.4611   -2.1011    1.3869 H         1 <0>         0.0965
     13 O2          3.6091   -0.6112   -0.0397 O.3       1 <0>        -0.2948
     14 C10         5.0145   -2.5810   -0.0306 C.3       1 <0>        -0.0588
     15 H3          5.1593   -2.5253   -1.1095 H         1 <0>         0.1255
     16 C11         5.0503   -4.0471    0.4005 C.3       1 <0>        -0.1613
     17 C12         6.4876   -4.5317    0.3122 C.2       1 <0>         0.3305
     18 O3          6.8066   -5.5054   -0.3275 O.2       1 <0>        -0.3919
     19 C13         7.4842   -3.7066    1.0817 C.2       1 <0>         0.3458
     20 O4          8.4561   -4.2003    1.6175 O.2       1 <0>        -0.4006
     21 C14         7.2047   -2.2609    1.1425 C.2       1 <0>        -0.2224
     22 C15         6.0768   -1.7729    0.6451 C.2       1 <0>        -0.0536
     23 O5          2.7232   -2.4845   -1.8692 O.3       1 <0>        -0.5492
     24 O6          1.1705    3.4515    0.0340 O.3       1 <0>        -0.4928
     25 H4         -0.9527    1.9168    0.0361 H         1 <0>         0.1381
     26 H5          3.3171    1.9602   -0.0019 H         1 <0>         0.1412
     27 H6         -1.5093   -0.8792   -0.8784 H         1 <0>         0.3945
     28 H7          0.9763   -2.5547    0.9873 H         1 <0>         0.0909
     29 H8          0.4189   -2.5398   -0.7022 H         1 <0>         0.0886
     30 H9          4.6940   -4.1377    1.4266 H         1 <0>         0.1150
     31 H10         4.4205   -4.6409   -0.2620 H         1 <0>         0.1107
     32 H11         7.9233   -1.5947    1.5966 H         1 <0>         0.1490
     33 H12         5.9137   -0.7089    0.7331 H         1 <0>         0.1393
     34 H13         2.0536   -2.9055   -2.4256 H         1 <0>         0.3843
     35 H14         1.1740    3.8344    0.9220 H         1 <0>         0.3974
@<TRIPOS>BOND
     1    1    6 ar
     2    1    2 ar
     3    1   25 1
     4    2    3 ar
     5    2   24 1
     6    3    4 ar
     7    3   26 1
     8    4   13 1
     9    4    5 ar
    10    5    6 ar
    11    5    8 1
    12    6    7 1
    13    7   27 1
    14    8    9 1
    15    8   28 1
    16    8   29 1
    17    9   10 1
    18    9   11 1
    19    9   23 1
    20   11   12 1
    21   11   13 1
    22   11   14 1
    23   14   15 1
    24   14   22 1
    25   14   16 1
    26   16   17 1
    27   16   30 1
    28   16   31 1
    29   17   18 2
    30   17   19 1
    31   19   20 2
    32   19   21 1
    33   21   22 2
    34   21   32 1
    35   22   33 1
    36   23   34 1
    37   24   35 1
@<TRIPOS>MOLECULE
ZINC00002101
   19    19     0     0     0
SMALL
USER_CHARGES

@<TRIPOS>ATOM
      1 C1         -0.0168    1.3849    0.0097 C.ar      1 <0>        -0.2192
      2 C2          1.1707    2.0901    0.0021 C.ar      1 <0>         0.0295
      3 C3          2.3774    1.4150   -0.0135 C.ar      1 <0>        -0.7336
      4 C4          2.3998    0.0323   -0.0211 C.ar      1 <0>         0.0295
      5 C5          1.2161   -0.6790   -0.0137 C.ar      1 <0>        -0.2192
      6 C6          0.0021   -0.0041    0.0020 C.ar      1 <0>         0.2713
      7 N1         -1.1970   -0.7204    0.0101 N.pl3     1 <0>        -0.8647
      8 S1          3.8900    2.3186   -0.0243 S.o2      1 <0>         2.7050
      9 O1          4.8717    1.4606   -0.5894 O.2       1 <0>        -0.9693
     10 O2          3.5945    3.5988   -0.5657 O.2       1 <0>        -0.9693
     11 N2          4.3264    2.5618    1.5546 N.pl3     1 <0>        -1.2522
     12 H1         -0.9589    1.9127    0.0260 H         1 <0>         0.1318
     13 H2          1.1567    3.1700    0.0080 H         1 <0>         0.1423
     14 H3          3.3440   -0.4918   -0.0333 H         1 <0>         0.1423
     15 H4          1.2342   -1.7588   -0.0200 H         1 <0>         0.1318
     16 H5         -2.0441   -0.2480    0.0210 H         1 <0>         0.4043
     17 H6         -1.1825   -1.6903    0.0047 H         1 <0>         0.4042
     18 H7          3.7678    2.2202    2.2703 H         1 <0>         0.4159
     19 H8          5.1405    3.0458    1.7638 H         1 <0>         0.4195
@<TRIPOS>BOND
     1    1    6 ar
     2    1    2 ar
     3    1   12 1
     4    2    3 ar
     5    2   13 1
     6    3    4 ar
     7    3    8 1
     8    4    5 ar
     9    4   14 1
    10    5    6 ar
    11    5   15 1
    12    6    7 1
    13    7   16 1
    14    7   17 1
    15    8    9 2
    16    8   10 2
    17    8   11 1
    18   11   18 1
    19   11   19 1
@<TRIPOS>MOLECULE
ZINC01530621
   36    37     0     0     0
SMALL
USER_CHARGES

@<TRIPOS>ATOM
      1 C1         -0.1492    1.5288   -2.3323 C.3       1 <0>        -0.1908
      2 C2         -0.1164   -0.0009   -2.3383 C.3       1 <0>        -0.0181
      3 N1          0.6897   -0.4778   -1.2066 N.4       1 <0>        -0.5107
      4 C3          0.6171   -1.9434   -1.1370 C.3       1 <0>         0.0811
      5 H1         -0.4294   -2.2430   -1.0818 H         1 <0>         0.1707
      6 C4          1.2315   -2.5278   -2.3982 C.3       1 <0>        -0.1422
      7 C5          1.0962   -4.0576   -2.4201 C.3       1 <0>        -0.5404
      8 H2          1.3613   -4.4411   -3.4054 H         1 <0>         0.1747
      9 S1          2.2539   -4.7069   -1.1650 S.o2      1 <0>         2.5047
     10 O1          3.5991   -4.5241   -1.5850 O.2       1 <0>        -0.8957
     11 O2          1.8041   -5.9618   -0.6729 O.2       1 <0>        -0.8922
     12 C6          2.0269   -3.5802    0.1606 C.2       1 <0>        -0.7063
     13 C7          1.3317   -2.4135    0.1206 C.2       1 <0>        -0.0916
     14 C8          1.3152   -1.6792    1.3120 C.2       1 <0>        -0.0530
     15 C9          1.9529   -2.1428    2.4103 C.2       1 <0>        -0.7342
     16 S2          2.6320   -3.6831    1.8188 S.3       1 <0>         0.4502
     17 S3          2.0784   -1.4167    4.0108 S.o2      1 <0>         2.7294
     18 O3          3.2503   -1.9529    4.6093 O.2       1 <0>        -0.9323
     19 O4          1.8813   -0.0198    3.8397 O.2       1 <0>        -0.9386
     20 N2          0.7966   -1.9699    4.9014 N.pl3     1 <0>        -1.2425
     21 C10        -0.3376   -4.4611   -2.0706 C.3       1 <0>        -0.1547
     22 H3         -0.5902    1.8790   -1.3990 H         1 <0>         0.0836
     23 H4          0.8664    1.9144   -2.4215 H         1 <0>         0.0841
     24 H5         -0.7473    1.8826   -3.1720 H         1 <0>         0.1120
     25 H6         -1.1320   -0.3865   -2.2491 H         1 <0>         0.1372
     26 H7          0.3246   -0.3511   -3.2716 H         1 <0>         0.1380
     27 H8          1.6496   -0.1943   -1.3342 H         1 <0>         0.4338
     28 H9          0.7251   -2.1113   -3.2689 H         1 <0>         0.1303
     29 H10         2.2877   -2.2615   -2.4382 H         1 <0>         0.1132
     30 H11         0.7901   -0.7364    1.3541 H         1 <0>         0.1546
     31 H12         0.1572   -2.5812    4.5032 H         1 <0>         0.4194
     32 H13         0.6850   -1.6827    5.8211 H         1 <0>         0.4322
     33 H14        -1.0243   -4.0299   -2.7990 H         1 <0>         0.0942
     34 H15        -0.4240   -5.5475   -2.0887 H         1 <0>         0.0985
     35 H16        -0.5861   -4.0934   -1.0750 H         1 <0>         0.0698
     36 H17         0.3332   -0.0823   -0.3495 H         1 <0>         0.4317
@<TRIPOS>BOND
     1    1    2 1
     2    1   22 1
     3    1   23 1
     4    1   24 1
     5    2    3 1
     6    2   25 1
     7    2   26 1
     8    3    4 1
     9    3   27 1
    10    3   36 1
    11    4    5 1
    12    4   13 1
    13    4    6 1
    14    6    7 1
    15    6   28 1
    16    6   29 1
    17    7    8 1
    18    7    9 1
    19    7   21 1
    20    9   10 2
    21    9   11 2
    22    9   12 1
    23   12   16 1
    24   12   13 2
    25   13   14 1
    26   14   15 2
    27   14   30 1
    28   15   16 1
    29   15   17 1
    30   17   18 2
    31   17   19 2
    32   17   20 1
    33   20   31 1
    34   20   32 1
    35   21   33 1
    36   21   34 1
    37   21   35 1
@<TRIPOS>MOLECULE
ZINC01530621
   35    36     0     0     0
SMALL
USER_CHARGES

@<TRIPOS>ATOM
      1 C1         -0.1492    1.5288   -2.3323 C.3       1 <0>        -0.1899
      2 C2         -0.1164   -0.0009   -2.3383 C.3       1 <0>        -0.0168
      3 N1          0.6897   -0.4778   -1.2066 N.4       1 <0>        -0.5101
      4 C3          0.6171   -1.9434   -1.1370 C.3       1 <0>         0.0836
      5 H1         -0.4294   -2.2430   -1.0818 H         1 <0>         0.1646
      6 C4          1.2315   -2.5278   -2.3982 C.3       1 <0>        -0.1369
      7 C5          1.0962   -4.0576   -2.4201 C.3       1 <0>        -0.5464
      8 H2          1.3613   -4.4411   -3.4054 H         1 <0>         0.1665
      9 S1          2.2539   -4.7069   -1.1650 S.o2      1 <0>         2.5192
     10 O1          3.5991   -4.5241   -1.5850 O.2       1 <0>        -0.9107
     11 O2          1.8041   -5.9618   -0.6729 O.2       1 <0>        -0.9035
     12 C6          2.0269   -3.5802    0.1606 C.2       1 <0>        -0.7471
     13 C7          1.3317   -2.4135    0.1206 C.2       1 <0>        -0.0802
     14 C8          1.3152   -1.6792    1.3120 C.2       1 <0>        -0.1090
     15 C9          1.9529   -2.1428    2.4103 C.2       1 <0>        -0.5881
     16 S2          2.6320   -3.6831    1.8188 S.3       1 <0>         0.3963
     17 S3          2.0784   -1.4167    4.0108 S.o2      1 <0>         2.5827
     18 O3          3.2503   -1.9529    4.6093 O.2       1 <0>        -1.0359
     19 O4          1.8813   -0.0198    3.8397 O.2       1 <0>        -1.0427
     20 N2          0.7966   -1.9699    4.9014 N.2       1 <0>        -1.3223
     21 C10        -0.3376   -4.4611   -2.0706 C.3       1 <0>        -0.1530
     22 H3         -0.5902    1.8790   -1.3990 H         1 <0>         0.0843
     23 H4          0.8664    1.9144   -2.4215 H         1 <0>         0.0823
     24 H5         -0.7473    1.8826   -3.1720 H         1 <0>         0.1074
     25 H6         -1.1320   -0.3865   -2.2491 H         1 <0>         0.1347
     26 H7          0.3246   -0.3511   -3.2716 H         1 <0>         0.1340
     27 H8          1.6496   -0.1943   -1.3342 H         1 <0>         0.4317
     28 H9          0.7251   -2.1113   -3.2689 H         1 <0>         0.1221
     29 H10         2.2877   -2.2615   -2.4382 H         1 <0>         0.1096
     30 H11         0.7901   -0.7364    1.3541 H         1 <0>         0.1443
     31 H12         0.6850   -1.6827    5.8211 H         1 <0>         0.3366
     32 H13        -1.0243   -4.0299   -2.7990 H         1 <0>         0.0883
     33 H14        -0.4240   -5.5475   -2.0887 H         1 <0>         0.0947
     34 H15        -0.5861   -4.0934   -1.0750 H         1 <0>         0.0739
     35 H16         0.3332   -0.0823   -0.3495 H         1 <0>         0.4358
@<TRIPOS>BOND
     1    1    2 1
     2    1   22 1
     3    1   23 1
     4    1   24 1
     5    2    3 1
     6    2   25 1
     7    2   26 1
     8    3    4 1
     9    3   27 1
    10    3   35 1
    11    4    5 1
    12    4   13 1
    13    4    6 1
    14    6    7 1
    15    6   28 1
    16    6   29 1
    17    7    8 1
    18    7    9 1
    19    7   21 1
    20    9   10 2
    21    9   11 2
    22    9   12 1
    23   12   16 1
    24   12   13 2
    25   13   14 1
    26   14   15 2
    27   14   30 1
    28   15   16 1
    29   15   17 1
    30   17   18 2
    31   17   19 2
    32   17   20 1
    33   20   31 1
    34   21   32 1
    35   21   33 1
    36   21   34 1
@<TRIPOS>MOLECULE
ZINC06716957
   61    65     0     0     0
SMALL
USER_CHARGES
4-methyl-N-[3-(4-methylimidazol-1-yl)-5-(trifluoromethyl)phenyl]-3-[4-(3-pyridyl)pyrimidin-2-yl]amino-benzamide
@<TRIPOS>ATOM
      1 C1          4.8797   -3.9669    0.1547 C.3       1 <0>        -0.1225
      2 C2          3.5754   -4.7217    0.1669 C.ar      1 <0>        -0.0869
      3 C3          3.5795   -6.1039    0.1964 C.ar      1 <0>        -0.1014
      4 C4          2.3894   -6.8021    0.2020 C.ar      1 <0>        -0.1034
      5 C5          1.1753   -6.1126    0.1832 C.ar      1 <0>        -0.1270
      6 C6          1.1710   -4.7182    0.1589 C.ar      1 <0>        -0.0590
      7 C7          2.3724   -4.0259    0.1535 C.ar      1 <0>         0.1619
      8 N1          2.3736   -2.6277    0.1286 N.pl3     1 <0>        -0.6325
      9 C8          1.2893   -1.9432   -0.3959 C.ar      1 <0>         0.5614
     10 N2          0.3200   -2.6260   -0.9883 N.ar      1 <0>        -0.5534
     11 C9         -0.7320   -2.0090   -1.5021 C.ar      1 <0>         0.1977
     12 C10        -0.8164   -0.6303   -1.4172 C.ar      1 <0>        -0.2657
     13 C11         0.2206    0.0624   -0.7871 C.ar      1 <0>         0.2658
     14 N3          1.2507   -0.6239   -0.2975 N.ar      1 <0>        -0.5571
     15 C12         0.1772    1.5403   -0.6710 C.ar      1 <0>        -0.1169
     16 C13         1.2145    2.2342   -0.0406 C.ar      1 <0>        -0.0276
     17 C14         1.1266    3.6129    0.0420 C.ar      1 <0>        -0.1784
     18 C15         0.0258    4.2543   -0.4966 C.ar      1 <0>         0.1175
     19 N4         -0.9376    3.5726   -1.0856 N.ar      1 <0>        -0.4841
     20 C16        -0.8952    2.2604   -1.1934 C.ar      1 <0>         0.1340
     21 C17        -0.1012   -6.8583    0.1887 C.2       1 <0>         0.5673
     22 O1         -1.1570   -6.2560    0.1719 O.2       1 <0>        -0.5061
     23 N5         -0.0944   -8.2058    0.2122 N.am      1 <0>        -0.6669
     24 C18        -1.2963   -8.9130    0.1072 C.ar      1 <0>         0.1849
     25 C19        -1.4127  -10.1752    0.6766 C.ar      1 <0>        -0.1112
     26 C20        -2.6011  -10.8720    0.5773 C.ar      1 <0>        -0.1296
     27 C21        -3.6741  -10.3211   -0.0973 C.ar      1 <0>        -0.1084
     28 C22        -3.5624   -9.0626   -0.6729 C.ar      1 <0>         0.1652
     29 C23        -2.3721   -8.3576   -0.5706 C.ar      1 <0>        -0.1152
     30 N6         -4.6520   -8.5044   -1.3568 N.pl3     1 <0>        -0.4135
     31 C24        -4.6878   -7.2792   -1.9710 C.2       1 <0>        -0.0484
     32 C25        -5.9185   -7.1442   -2.5004 C.2       1 <0>         0.0096
     33 N7         -6.6190   -8.2532   -2.2203 N.2       1 <0>        -0.4758
     34 C26        -5.8695   -9.0779   -1.5408 C.2       1 <0>         0.1944
     35 C27        -6.4219   -5.9529   -3.2741 C.3       1 <0>        -0.0703
     36 C28        -2.7260  -12.2385    1.2004 C.3       1 <0>         0.5133
     37 F1         -2.3418  -13.2115    0.2714 F         1 <0>        -0.1709
     38 F2         -1.8981  -12.3154    2.3255 F         1 <0>        -0.1721
     39 F3         -4.0538  -12.4572    1.5826 F         1 <0>        -0.1717
     40 H1          5.1932   -3.7667    1.1793 H         1 <0>         0.0780
     41 H2          5.6404   -4.5642   -0.3479 H         1 <0>         0.0781
     42 H3          4.7488   -3.0240   -0.3761 H         1 <0>         0.0665
     43 H4          4.5175   -6.6391    0.2106 H         1 <0>         0.1366
     44 H5          2.3969   -7.8819    0.2212 H         1 <0>         0.1267
     45 H6          0.2351   -4.1794    0.1439 H         1 <0>         0.1656
     46 H7          3.1337   -2.1370    0.4786 H         1 <0>         0.4259
     47 H8         -1.5163   -2.5753   -1.9823 H         1 <0>         0.1768
     48 H9         -1.6642   -0.1022   -1.8280 H         1 <0>         0.1524
     49 H10         2.0625    1.7077    0.3717 H         1 <0>         0.1463
     50 H11         1.9093    4.1820    0.5216 H         1 <0>         0.1425
     51 H12        -0.0458    5.3301   -0.4343 H         1 <0>         0.1622
     52 H13        -1.7012    1.7376   -1.6869 H         1 <0>         0.1630
     53 H14         0.7441   -8.6851    0.3020 H         1 <0>         0.4178
     54 H15        -0.5744  -10.6101    1.2006 H         1 <0>         0.1488
     55 H16        -4.6008  -10.8701   -0.1765 H         1 <0>         0.1477
     56 H17        -2.2829   -7.3787   -1.0179 H         1 <0>         0.1618
     57 H18        -3.8832   -6.5605   -2.0210 H         1 <0>         0.1795
     58 H19        -6.1682  -10.0519   -1.1825 H         1 <0>         0.2113
     59 H20        -6.2142   -6.0943   -4.3347 H         1 <0>         0.0711
     60 H21        -7.4967   -5.8505   -3.1248 H         1 <0>         0.0731
     61 H22        -5.9187   -5.0522   -2.9223 H         1 <0>         0.0710
@<TRIPOS>BOND
     1    1    2 1
     2    1   40 1
     3    1   41 1
     4    1   42 1
     5    2    7 ar
     6    2    3 ar
     7    3    4 ar
     8    3   43 1
     9    4    5 ar
    10    4   44 1
    11    5    6 ar
    12    5   21 1
    13    6    7 ar
    14    6   45 1
    15    7    8 1
    16    8    9 1
    17    8   46 1
    18    9   14 ar
    19    9   10 ar
    20   10   11 ar
    21   11   12 ar
    22   11   47 1
    23   12   13 ar
    24   12   48 1
    25   13   14 ar
    26   13   15 1
    27   15   20 ar
    28   15   16 ar
    29   16   17 ar
    30   16   49 1
    31   17   18 ar
    32   17   50 1
    33   18   19 ar
    34   18   51 1
    35   19   20 ar
    36   20   52 1
    37   21   22 2
    38   21   23 am
    39   23   24 1
    40   23   53 1
    41   24   29 ar
    42   24   25 ar
    43   25   26 ar
    44   25   54 1
    45   26   27 ar
    46   26   36 1
    47   27   28 ar
    48   27   55 1
    49   28   29 ar
    50   28   30 1
    51   29   56 1
    52   30   34 1
    53   30   31 1
    54   31   32 2
    55   31   57 1
    56   32   33 1
    57   32   35 1
    58   33   34 2
    59   34   58 1
    60   35   59 1
    61   35   60 1
    62   35   61 1
    63   36   37 1
    64   36   38 1
    65   36   39 1
@<TRIPOS>MOLECULE
ZINC01530783
   24    24     0     0     0
SMALL
USER_CHARGES

@<TRIPOS>ATOM
      1 C1         -0.0167    1.3778    0.0096 C.ar      1 <0>        -0.2151
      2 C2          1.1778    2.0868    0.0020 C.ar      1 <0>         0.3679
      3 C3          2.3873    1.4040   -0.0132 C.ar      1 <0>        -0.7704
      4 C4          2.3995    0.0228   -0.0207 C.ar      1 <0>         0.1443
      5 C5          1.2095   -0.6808   -0.0136 C.ar      1 <0>        -0.7462
      6 C6          0.0021   -0.0041    0.0020 C.ar      1 <0>         0.1376
      7 Cl1        -1.4897   -0.8918    0.0121 Cl        1 <0>        -0.0170
      8 S1          1.2298   -2.4427   -0.0244 S.o2      1 <0>         2.7025
      9 O1          0.3289   -2.8530   -1.0439 O.2       1 <0>        -0.9456
     10 O2          2.5961   -2.8332   -0.0128 O.2       1 <0>        -0.9565
     11 N1          0.5807   -2.9487    1.4126 N.pl3     1 <0>        -1.2467
     12 S2          3.9050    2.2991   -0.0235 S.o2      1 <0>         2.7027
     13 O3          3.8097    3.2719    1.0080 O.2       1 <0>        -0.9578
     14 O4          4.9461    1.3329   -0.0656 O.2       1 <0>        -0.9492
     15 N2          3.9732    3.1309   -1.4538 N.pl3     1 <0>        -1.2515
     16 N3          1.1627    3.4834    0.0092 N.pl3     1 <0>        -0.8462
     17 H1         -0.9587    1.9057    0.0259 H         1 <0>         0.1559
     18 H2          3.3399   -0.5082   -0.0326 H         1 <0>         0.1771
     19 H3          0.2785   -2.2970    2.0644 H         1 <0>         0.4160
     20 H4          0.5026   -3.8967    1.6024 H         1 <0>         0.4242
     21 H5          3.2464    3.0584   -2.0921 H         1 <0>         0.4178
     22 H6          4.7398    3.6907   -1.6532 H         1 <0>         0.4259
     23 H7          0.3174    3.9592    0.0195 H         1 <0>         0.4187
     24 H8          1.9974    3.9775    0.0039 H         1 <0>         0.4116
@<TRIPOS>BOND
     1    1    6 ar
     2    1    2 ar
     3    1   17 1
     4    2    3 ar
     5    2   16 1
     6    3    4 ar
     7    3   12 1
     8    4    5 ar
     9    4   18 1
    10    5    6 ar
    11    5    8 1
    12    6    7 1
    13    8    9 2
    14    8   10 2
    15    8   11 1
    16   11   19 1
    17   11   20 1
    18   12   13 2
    19   12   14 2
    20   12   15 1
    21   15   21 1
    22   15   22 1
    23   16   23 1
    24   16   24 1
@<TRIPOS>MOLECULE
ZINC01031283
   19    19     0     0     0
SMALL
USER_CHARGES

@<TRIPOS>ATOM
      1 C1         -0.0167    1.3781    0.0096 C.ar      1 <0>        -0.0767
      2 C2          1.1709    2.0855    0.0021 C.ar      1 <0>        -0.0150
      3 C3          2.3773    1.4107   -0.0130 C.ar      1 <0>        -0.6394
      4 C4          2.3961    0.0285   -0.0201 C.ar      1 <0>        -0.0150
      5 C5          1.2084   -0.6789   -0.0117 C.ar      1 <0>        -0.0767
      6 C6          0.0021   -0.0041    0.0020 C.ar      1 <0>         0.0066
      7 N1         -1.2696   -0.7615    0.0105 N.pl3     1 <0>         0.0214
      8 O1         -2.3247   -0.1714    0.0241 O.2       1 <0>        -0.1403
      9 O2         -1.2532   -1.9704    0.0039 O.3       1 <0>        -0.1404
     10 S1          3.8911    2.3124   -0.0238 S.o2      1 <0>         2.7045
     11 O3          4.8717    1.4529   -0.5884 O.2       1 <0>        -0.9494
     12 O4          3.5973    3.5927   -0.5658 O.2       1 <0>        -0.9494
     13 N2          4.3274    2.5556    1.5551 N.pl3     1 <0>        -1.2463
     14 H1         -0.9591    1.9053    0.0259 H         1 <0>         0.1670
     15 H2          1.1563    3.1654    0.0076 H         1 <0>         0.1689
     16 H3          3.3385   -0.4987   -0.0326 H         1 <0>         0.1689
     17 H4          1.2231   -1.7588   -0.0179 H         1 <0>         0.1670
     18 H5          3.7682    2.2150    2.2708 H         1 <0>         0.4182
     19 H6          5.1421    3.0386    1.7642 H         1 <0>         0.4261
@<TRIPOS>BOND
     1    1    6 ar
     2    1    2 ar
     3    1   14 1
     4    2    3 ar
     5    2   15 1
     6    3    4 ar
     7    3   10 1
     8    4    5 ar
     9    4   16 1
    10    5    6 ar
    11    5   17 1
    12    6    7 1
    13    7    8 2
    14    7    9 1
    15   10   11 2
    16   10   12 2
    17   10   13 1
    18   13   18 1
    19   13   19 1
@<TRIPOS>MOLECULE
ZINC00001504
   17    17     0     0     0
SMALL
USER_CHARGES

@<TRIPOS>ATOM
      1 C1         -0.0167    1.3773    0.0096 C.ar      1 <0>        -0.1008
      2 C2          1.1859    2.0916    0.0020 C.ar      1 <0>        -0.1093
      3 C3          2.4041    1.4044   -0.0134 C.ar      1 <0>        -0.1008
      4 C4          2.4161    0.0229   -0.0209 C.ar      1 <0>         0.0731
      5 C5          1.2168   -0.6855   -0.0137 C.ar      1 <0>         0.0424
      6 C6          0.0021   -0.0041    0.0020 C.ar      1 <0>         0.0741
      7 O1         -1.1668   -0.6993    0.0099 O.3       1 <0>        -0.4936
      8 O2          1.2319   -2.0439   -0.0216 O.3       1 <0>        -0.4848
      9 O3          3.6001   -0.6461   -0.0358 O.3       1 <0>        -0.4884
     10 C7          1.1695    3.5640    0.0095 C.2       1 <0>         0.5214
     11 O4          0.1034    4.1638    0.0225 O.co2     1 <0>        -0.6808
     12 O5          2.2221    4.1875    0.0028 O.co2     1 <0>        -0.6809
     13 H1         -0.9588    1.9051    0.0260 H         1 <0>         0.1414
     14 H2          3.3343    1.9531   -0.0196 H         1 <0>         0.1412
     15 H3         -1.5136   -0.8957   -0.8712 H         1 <0>         0.3861
     16 H4          1.2445   -2.4422    0.8595 H         1 <0>         0.3793
     17 H5          3.9509   -0.8443    0.8433 H         1 <0>         0.3804
@<TRIPOS>BOND
     1    1    6 ar
     2    1    2 ar
     3    1   13 1
     4    2    3 ar
     5    2   10 1
     6    3    4 ar
     7    3   14 1
     8    4    5 ar
     9    4    9 1
    10    5    6 ar
    11    5    8 1
    12    6    7 1
    13    7   15 1
    14    8   16 1
    15    9   17 1
    16   10   11 2
    17   10   12 1
@<TRIPOS>MOLECULE
ZINC01543408
   26    25     0     0     0
SMALL
USER_CHARGES

@<TRIPOS>ATOM
      1 C1         -0.0187    1.5258    0.0104 C.3       1 <0>        -0.1207
      2 C2          0.0021   -0.0041    0.0020 C.3       1 <0>        -0.1207
      3 C3         -1.4333   -0.5336    0.0129 C.3       1 <0>        -0.1546
      4 C4         -1.4126   -2.0635    0.0045 C.3       1 <0>        -0.0098
      5 N1         -2.7907   -2.5720    0.0149 N.4       1 <0>        -0.6391
      6 C5          1.4167    2.0553   -0.0004 C.3       1 <0>        -0.1546
      7 C6          1.3960    3.5852    0.0080 C.3       1 <0>        -0.0098
      8 N2          2.7741    4.0937   -0.0024 N.4       1 <0>        -0.6392
      9 H1         -0.5459    1.8868   -0.8726 H         1 <0>         0.0793
     10 H2         -0.5289    1.8773    0.9072 H         1 <0>         0.0793
     11 H3          0.5123   -0.3556   -0.8948 H         1 <0>         0.0793
     12 H4          0.5293   -0.3651    0.8851 H         1 <0>         0.0793
     13 H5         -1.9435   -0.1821    0.9097 H         1 <0>         0.0904
     14 H6         -1.9605   -0.1726   -0.8702 H         1 <0>         0.0904
     15 H7         -0.9024   -2.4150   -0.8923 H         1 <0>         0.1344
     16 H8         -0.8854   -2.4246    0.8875 H         1 <0>         0.1344
     17 H9         -3.2630   -2.2466    0.8450 H         1 <0>         0.4368
     18 H10        -3.2787   -2.2377   -0.8025 H         1 <0>         0.4368
     19 H11         1.9439    1.6943    0.8826 H         1 <0>         0.0904
     20 H12         1.9269    1.7038   -0.8972 H         1 <0>         0.0904
     21 H13         0.8688    3.9463   -0.8751 H         1 <0>         0.1345
     22 H14         0.8858    3.9367    0.9048 H         1 <0>         0.1344
     23 H15         3.2621    3.7594    0.8150 H         1 <0>         0.4368
     24 H16         3.2464    3.7683   -0.8326 H         1 <0>         0.4368
     25 H17        -2.7770   -3.5808    0.0093 H         1 <0>         0.4425
     26 H18         2.7604    5.1025    0.0031 H         1 <0>         0.4425
@<TRIPOS>BOND
     1    1    2 1
     2    1    6 1
     3    1    9 1
     4    1   10 1
     5    2    3 1
     6    2   11 1
     7    2   12 1
     8    3    4 1
     9    3   13 1
    10    3   14 1
    11    4    5 1
    12    4   15 1
    13    4   16 1
    14    5   17 1
    15    5   18 1
    16    5   25 1
    17    6    7 1
    18    6   19 1
    19    6   20 1
    20    7    8 1
    21    7   21 1
    22    7   22 1
    23    8   23 1
    24    8   24 1
    25    8   26 1
@<TRIPOS>MOLECULE
ZINC00128953
   22    22     0     0     0
SMALL
USER_CHARGES

@<TRIPOS>ATOM
      1 C1         -0.0178    1.4608    0.0101 C.3       1 <0>         0.0784
      2 N1          0.0021   -0.0041    0.0020 N.pl3     1 <0>        -1.1153
      3 S1          0.7184   -0.8155   -1.2513 S.o2      1 <0>         2.6972
      4 O1          0.5990   -2.2010   -0.9591 O.2       1 <0>        -0.9447
      5 O2          0.2109   -0.2430   -2.4487 O.2       1 <0>        -0.9408
      6 C2          2.4385   -0.4369   -1.2016 C.ar      1 <0>        -0.6406
      7 C3          2.9259    0.6561   -1.8936 C.ar      1 <0>        -0.0198
      8 C4          4.2754    0.9532   -1.8547 C.ar      1 <0>        -0.0757
      9 C5          5.1374    0.1575   -1.1234 C.ar      1 <0>         0.0033
     10 C6          4.6499   -0.9349   -0.4307 C.ar      1 <0>        -0.0757
     11 C7          3.2998   -1.2295   -0.4662 C.ar      1 <0>        -0.0157
     12 N2          6.5826    0.4751   -1.0825 N.pl3     1 <0>         0.0223
     13 O3          7.0090    1.4303   -1.6887 O.2       1 <0>        -0.1417
     14 O4          7.3365   -0.2208   -0.4430 O.3       1 <0>        -0.1418
     15 H1          1.0048    1.8381    0.0023 H         1 <0>         0.0594
     16 H2         -0.5450    1.8219   -0.8730 H         1 <0>         0.0742
     17 H3         -0.5280    1.8123    0.9069 H         1 <0>         0.0893
     18 H4         -0.4044   -0.4986    0.7308 H         1 <0>         0.4241
     19 H5          2.2524    1.2777   -2.4649 H         1 <0>         0.1662
     20 H6          4.6562    1.8067   -2.3958 H         1 <0>         0.1659
     21 H7          5.3235   -1.5567    0.1403 H         1 <0>         0.1658
     22 H8          2.9184   -2.0808    0.0780 H         1 <0>         0.1661
@<TRIPOS>BOND
     1    1    2 1
     2    1   15 1
     3    1   16 1
     4    1   17 1
     5    2    3 1
     6    2   18 1
     7    3    4 2
     8    3    5 2
     9    3    6 1
    10    6   11 ar
    11    6    7 ar
    12    7    8 ar
    13    7   19 1
    14    8    9 ar
    15    8   20 1
    16    9   10 ar
    17    9   12 1
    18   10   11 ar
    19   10   21 1
    20   11   22 1
    21   12   13 2
    22   12   14 1
@<TRIPOS>MOLECULE
ZINC29253676
   22    22     0     0     0
SMALL
USER_CHARGES

@<TRIPOS>ATOM
      1 C1         -0.0184    1.5028    0.0103 C.3       1 <0>        -0.1669
      2 C2          0.0021   -0.0041    0.0020 C.2       1 <0>         0.5049
      3 O1          1.0605   -0.5961   -0.0113 O.2       1 <0>        -0.4606
      4 N1         -1.1558   -0.6938    0.0094 N.am      1 <0>        -0.6132
      5 C3         -1.1370   -2.0844    0.0017 C.2       1 <0>         0.2581
      6 N2         -0.1026   -2.9019   -0.0067 N.2       1 <0>        -0.3111
      7 N3         -0.2439   -4.1575   -0.0130 N.2       1 <0>        -0.1111
      8 C4         -1.4599   -4.6659   -0.0111 C.2       1 <0>        -0.5785
      9 S1         -2.4308   -3.1653    0.0083 S.3       1 <0>         0.2280
     10 S2         -1.9811   -6.3490   -0.0183 S.o2      1 <0>         2.7363
     11 O2         -1.9574   -6.7873    1.3333 O.2       1 <0>        -0.9253
     12 O3         -3.1545   -6.4075   -0.8177 O.2       1 <0>        -0.9368
     13 N4         -0.8199   -7.2178   -0.8179 N.pl3     1 <0>        -1.1010
     14 C5          0.5287   -7.3282   -0.2564 C.3       1 <0>         0.0757
     15 H1          1.0042    1.8801    0.0026 H         1 <0>         0.1074
     16 H2         -0.5455    1.8639   -0.8728 H         1 <0>         0.0999
     17 H3         -0.5286    1.8543    0.9071 H         1 <0>         0.1000
     18 H4         -2.0023   -0.2203    0.0200 H         1 <0>         0.4343
     19 H5         -1.0327   -7.6534   -1.6580 H         1 <0>         0.4247
     20 H6          0.4762   -7.7997    0.7249 H         1 <0>         0.0722
     21 H7          1.1491   -7.9334   -0.9176 H         1 <0>         0.0879
     22 H8          0.9643   -6.3338   -0.1589 H         1 <0>         0.0749
@<TRIPOS>BOND
     1    1    2 1
     2    1   15 1
     3    1   16 1
     4    1   17 1
     5    2    3 2
     6    2    4 am
     7    4    5 1
     8    4   18 1
     9    5    9 1
    10    5    6 2
    11    6    7 1
    12    7    8 2
    13    8    9 1
    14    8   10 1
    15   10   11 2
    16   10   12 2
    17   10   13 1
    18   13   14 1
    19   13   19 1
    20   14   20 1
    21   14   21 1
    22   14   22 1
@<TRIPOS>MOLECULE
ZINC01661527
   20    20     0     0     0
SMALL
USER_CHARGES

@<TRIPOS>ATOM
      1 C1         -0.0178    1.4608    0.0101 C.3       1 <0>         0.0808
      2 N1          0.0021   -0.0041    0.0020 N.pl3     1 <0>        -1.1190
      3 S1         -1.4206   -0.8515    0.0111 S.o2      1 <0>         2.6983
      4 O1         -1.0732   -2.2289   -0.0267 O.2       1 <0>        -0.9539
      5 O2         -2.2182   -0.2952    1.0472 O.2       1 <0>        -0.9507
      6 C2         -2.2468   -0.4988   -1.5048 C.ar      1 <0>        -0.6783
      7 C3         -3.1168    0.5726   -1.5844 C.ar      1 <0>        -0.0090
      8 C4         -3.7652    0.8498   -2.7732 C.ar      1 <0>        -0.1317
      9 C5         -3.5432    0.0548   -3.8836 C.ar      1 <0>         0.0178
     10 C6         -2.6723   -1.0172   -3.8032 C.ar      1 <0>        -0.1318
     11 C7         -2.0203   -1.2900   -2.6155 C.ar      1 <0>        -0.0053
     12 Cl1        -4.3576    0.4020   -5.3769 Cl        1 <0>        -0.0510
     13 H1          1.0048    1.8381    0.0023 H         1 <0>         0.0861
     14 H2         -0.5450    1.8219   -0.8730 H         1 <0>         0.0598
     15 H3         -0.5280    1.8123    0.9069 H         1 <0>         0.0713
     16 H4          0.8486   -0.4776   -0.0086 H         1 <0>         0.4214
     17 H5         -3.2903    1.1928   -0.7175 H         1 <0>         0.1515
     18 H6         -4.4451    1.6865   -2.8352 H         1 <0>         0.1461
     19 H7         -2.4989   -1.6383   -4.6696 H         1 <0>         0.1460
     20 H8         -1.3368   -2.1240   -2.5540 H         1 <0>         0.1515
@<TRIPOS>BOND
     1    1    2 1
     2    1   13 1
     3    1   14 1
     4    1   15 1
     5    2    3 1
     6    2   16 1
     7    3    4 2
     8    3    5 2
     9    3    6 1
    10    6   11 ar
    11    6    7 ar
    12    7    8 ar
    13    7   17 1
    14    8    9 ar
    15    8   18 1
    16    9   10 ar
    17    9   12 1
    18   10   11 ar
    19   10   19 1
    20   11   20 1
@<TRIPOS>MOLECULE
ZINC00332752
   15    15     0     0     0
SMALL
USER_CHARGES

@<TRIPOS>ATOM
      1 C1         -0.0169    1.3948    0.0097 C.ar      1 <0>        -0.0719
      2 C2          1.1668    2.0970    0.0022 C.ar      1 <0>        -0.1621
      3 C3          2.3803    1.4181   -0.0135 C.ar      1 <0>         0.0845
      4 C4          2.4040    0.0278   -0.0217 C.ar      1 <0>        -0.1621
      5 C5          1.2254   -0.6827   -0.0142 C.ar      1 <0>        -0.0719
      6 C6          0.0021   -0.0041    0.0020 C.ar      1 <0>        -0.1403
      7 C7         -1.2616   -0.7598    0.0105 C.2       1 <0>         0.5192
      8 O1         -2.3302   -0.1645    0.0243 O.co2     1 <0>        -0.6869
      9 O2         -1.2429   -1.9830    0.0038 O.co2     1 <0>        -0.6870
     10 O3          3.5446    2.1144   -0.0213 O.3       1 <0>        -0.5035
     11 H1         -0.9589    1.9228    0.0260 H         1 <0>         0.1309
     12 H2          1.1531    3.1769    0.0081 H         1 <0>         0.1198
     13 H3          3.3488   -0.4952   -0.0342 H         1 <0>         0.1198
     14 H4          1.2447   -1.7625   -0.0213 H         1 <0>         0.1309
     15 H5          3.8909    2.3116    0.8597 H         1 <0>         0.3806
@<TRIPOS>BOND
     1    1    6 ar
     2    1    2 ar
     3    1   11 1
     4    2    3 ar
     5    2   12 1
     6    3    4 ar
     7    3   10 1
     8    4    5 ar
     9    4   13 1
    10    5    6 ar
    11    5   14 1
    12    6    7 1
    13    7    8 2
    14    7    9 1
    15   10   15 1
@<TRIPOS>MOLECULE
ZINC03869685
   32    34     0     0     0
SMALL
USER_CHARGES

@<TRIPOS>ATOM
      1 C1          0.9741   -0.2755   -0.9644 C.ar      1 <0>        -0.0748
      2 C2          2.1569    0.4329   -0.9701 C.ar      1 <0>        -0.1346
      3 C3          2.3856    1.4156   -0.0177 C.ar      1 <0>         0.1032
      4 C4          1.4203    1.6918    0.9495 C.ar      1 <0>         0.0788
      5 C5          0.2328    0.9863    0.9617 C.ar      1 <0>        -0.0762
      6 C6          0.0021   -0.0041    0.0020 C.ar      1 <0>        -0.0447
      7 C7         -1.2637   -0.7605    0.0100 C.2       1 <0>         0.1350
      8 C8         -2.4363   -0.0759    0.1235 C.2       1 <0>        -0.0429
      9 C9         -3.6628   -0.7894    0.1327 C.2       1 <0>         0.4011
     10 O1         -4.7327   -0.2102    0.2323 O.2       1 <0>        -0.4484
     11 C10        -3.5946   -2.2549    0.0170 C.ar      1 <0>        -0.2690
     12 C11        -4.7561   -3.0387    0.0170 C.ar      1 <0>         0.2244
     13 C12        -4.6504   -4.4123   -0.0941 C.ar      1 <0>        -0.2081
     14 C13        -3.3994   -5.0103   -0.2044 C.ar      1 <0>         0.2000
     15 C14        -2.2463   -4.2416   -0.2047 C.ar      1 <0>        -0.1854
     16 C15        -2.3316   -2.8618   -0.0952 C.ar      1 <0>         0.1876
     17 O2         -1.2182   -2.0992   -0.1003 O.3       1 <0>        -0.1970
     18 O3         -3.3070   -6.3605   -0.3125 O.3       1 <0>        -0.4866
     19 O4         -5.9758   -2.4535    0.1257 O.3       1 <0>        -0.4726
     20 O5         -2.4312    1.2810    0.2275 O.3       1 <0>        -0.4502
     21 O6          1.6480    2.6557    1.8815 O.3       1 <0>        -0.4836
     22 O7          3.5534    2.1101   -0.0273 O.3       1 <0>        -0.4861
     23 H1          0.7971   -1.0371   -1.7094 H         1 <0>         0.1379
     24 H2          2.9075    0.2221   -1.7176 H         1 <0>         0.1421
     25 H3         -0.5155    1.1988    1.7108 H         1 <0>         0.1429
     26 H4         -5.5413   -5.0229   -0.0948 H         1 <0>         0.1515
     27 H5         -1.2805   -4.7174   -0.2903 H         1 <0>         0.1559
     28 H6         -3.3257   -6.6843   -1.2235 H         1 <0>         0.4050
     29 H7         -6.3751   -2.2160   -0.7224 H         1 <0>         0.4036
     30 H8         -3.3120    1.6729    0.3033 H         1 <0>         0.4079
     31 H9          1.3508    3.5370    1.6166 H         1 <0>         0.3905
     32 H10         3.5287    2.9137   -0.5647 H         1 <0>         0.3924
@<TRIPOS>BOND
     1    1    6 ar
     2    1    2 ar
     3    1   23 1
     4    2    3 ar
     5    2   24 1
     6    3    4 ar
     7    3   22 1
     8    4    5 ar
     9    4   21 1
    10    5    6 ar
    11    5   25 1
    12    6    7 1
    13    7   17 1
    14    7    8 2
    15    8    9 1
    16    8   20 1
    17    9   10 2
    18    9   11 1
    19   11   16 ar
    20   11   12 ar
    21   12   13 ar
    22   12   19 1
    23   13   14 ar
    24   13   26 1
    25   14   15 ar
    26   14   18 1
    27   15   16 ar
    28   15   27 1
    29   16   17 1
    30   18   28 1
    31   19   29 1
    32   20   30 1
    33   21   31 1
    34   22   32 1
@<TRIPOS>MOLECULE
ZINC03869685
   31    33     0     0     0
SMALL
USER_CHARGES

@<TRIPOS>ATOM
      1 C1          0.1390    1.1246   -0.8120 C.ar      1 <0>        -0.0626
      2 C2          1.3229    1.8301   -0.8179 C.ar      1 <0>        -0.1333
      3 C3          2.3812    1.4233   -0.0172 C.ar      1 <0>         0.0878
      4 C4          2.2522    0.2984    0.7970 C.ar      1 <0>         0.0757
      5 C5          1.0694   -0.4139    0.8086 C.ar      1 <0>        -0.0997
      6 C6          0.0021   -0.0041    0.0020 C.ar      1 <0>        -0.0194
      7 C7         -1.2620   -0.7597    0.0100 C.2       1 <0>         0.1007
      8 C8         -2.4587   -0.0763    0.1245 C.2       1 <0>        -0.0038
      9 C9         -3.6655   -0.7872    0.1324 C.2       1 <0>         0.3349
     10 C10        -3.6167   -2.1939    0.0219 C.2       1 <0>        -0.3331
     11 C11        -4.8018   -2.9593    0.0240 C.2       1 <0>         0.2664
     12 C12        -4.7326   -4.3182   -0.0844 C.2       1 <0>        -0.3749
     13 C13        -3.4871   -4.9570   -0.1979 C.2       1 <0>         0.3648
     14 O1         -3.4307   -6.2860   -0.3033 O.2       1 <0>        -0.6598
     15 C14        -2.3054   -4.2086   -0.2016 C.2       1 <0>        -0.3143
     16 C15        -2.3616   -2.8325   -0.0921 C.2       1 <0>         0.2118
     17 O2         -1.2290   -2.0988   -0.0996 O.3       1 <0>        -0.2018
     18 O3         -6.0073   -2.3463    0.1339 O.3       1 <0>        -0.4482
     19 O4         -4.8484   -0.1420    0.2437 O.3       1 <0>        -0.5747
     20 O5         -2.4638    1.2803    0.2294 O.3       1 <0>        -0.4649
     21 O6          3.2919   -0.0973    1.5794 O.3       1 <0>        -0.4856
     22 O7          3.5458    2.1225   -0.0269 O.3       1 <0>        -0.4881
     23 H1         -0.6843    1.4460   -1.4327 H         1 <0>         0.1397
     24 H2          1.4276    2.7014   -1.4473 H         1 <0>         0.1381
     25 H3          0.9685   -1.2854    1.4384 H         1 <0>         0.1410
     26 H4         -5.6395   -4.9047   -0.0825 H         1 <0>         0.1180
     27 H5         -1.3506   -4.7057   -0.2895 H         1 <0>         0.1230
     28 H6         -6.7597   -2.9537    0.1258 H         1 <0>         0.3847
     29 H7         -3.3475    1.6656    0.3047 H         1 <0>         0.4058
     30 H8          3.2925    0.2977    2.4620 H         1 <0>         0.3855
     31 H9          3.5825    2.8346    0.6263 H         1 <0>         0.3863
@<TRIPOS>BOND
     1    1    6 ar
     2    1    2 ar
     3    1   23 1
     4    2    3 ar
     5    2   24 1
     6    3    4 ar
     7    3   22 1
     8    4    5 ar
     9    4   21 1
    10    5    6 ar
    11    5   25 1
    12    6    7 1
    13    7   17 1
    14    7    8 2
    15    8    9 1
    16    8   20 1
    17    9   10 2
    18    9   19 1
    19   10   16 1
    20   10   11 1
    21   11   12 2
    22   11   18 1
    23   12   13 1
    24   12   26 1
    25   13   14 2
    26   13   15 1
    27   15   16 2
    28   15   27 1
    29   16   17 1
    30   18   28 1
    31   20   29 1
    32   21   30 1
    33   22   31 1
@<TRIPOS>MOLECULE
ZINC05133378
   14    14     0     0     0
SMALL
USER_CHARGES

@<TRIPOS>ATOM
      1 C1         -0.0167    1.3828    0.0096 C.ar      1 <0>        -0.1290
      2 C2          1.1700    2.0896    0.0021 C.ar      1 <0>        -0.1290
      3 C3          2.3804    1.4126   -0.0130 C.ar      1 <0>         0.0956
      4 C4          2.3992    0.0257   -0.0202 C.ar      1 <0>        -0.1290
      5 C5          1.2125   -0.6811   -0.0117 C.ar      1 <0>        -0.1290
      6 C6          0.0021   -0.0041    0.0020 C.ar      1 <0>         0.0956
      7 O1         -1.1662   -0.6999    0.0098 O.3       1 <0>        -0.4988
      8 O2          3.5486    2.1084   -0.0214 O.3       1 <0>        -0.4988
      9 H1         -0.9592    1.9099    0.0260 H         1 <0>         0.1343
     10 H2          1.1553    3.1695    0.0077 H         1 <0>         0.1342
     11 H3          3.3417   -0.5015   -0.0327 H         1 <0>         0.1343
     12 H4          1.2271   -1.7610   -0.0180 H         1 <0>         0.1342
     13 H5         -1.5128   -0.8965   -0.8712 H         1 <0>         0.3927
     14 H6          3.8953    2.3056    0.8596 H         1 <0>         0.3927
@<TRIPOS>BOND
     1    1    6 ar
     2    1    2 ar
     3    1    9 1
     4    2    3 ar
     5    2   10 1
     6    3    4 ar
     7    3    8 1
     8    4    5 ar
     9    4   11 1
    10    5    6 ar
    11    5   12 1
    12    6    7 1
    13    7   13 1
    14    8   14 1
@<TRIPOS>MOLECULE
ZINC00103684
   23    24     0     0     0
SMALL
USER_CHARGES

@<TRIPOS>ATOM
      1 C1         -0.0173    1.4248    0.0099 C.3       1 <0>         0.0269
      2 O1          0.0021   -0.0041    0.0020 O.3       1 <0>        -0.3160
      3 C2         -1.2008   -0.6377    0.0101 C.ar      1 <0>         0.1026
      4 C3         -2.3772    0.1082    0.0195 C.ar      1 <0>        -0.1710
      5 C4         -3.6049   -0.5185    0.0401 C.ar      1 <0>        -0.0924
      6 C5         -3.6781   -1.9049    0.0452 C.ar      1 <0>         0.0944
      7 C6         -2.4941   -2.6655    0.0068 C.ar      1 <0>        -0.0827
      8 C7         -1.2505   -2.0162    0.0032 C.ar      1 <0>        -0.1014
      9 C8         -2.5647   -4.0803   -0.0533 C.2       1 <0>        -0.0407
     10 C9         -3.8085   -4.6648   -0.2685 C.2       1 <0>        -0.2094
     11 C10        -4.9588   -3.7600   -0.4521 C.2       1 <0>         0.5094
     12 O2         -5.9433   -4.1125   -1.0741 O.2       1 <0>        -0.4143
     13 O3         -4.8823   -2.5253    0.0951 O.3       1 <0>        -0.2899
     14 C11        -3.9697   -6.1237   -0.3118 C.2       1 <0>         0.5324
     15 O4         -2.9980   -6.8516   -0.1568 O.co2     1 <0>        -0.6776
     16 O5         -5.0756   -6.6118   -0.5029 O.co2     1 <0>        -0.6590
     17 H1          1.0053    1.8021    0.0021 H         1 <0>         0.0987
     18 H2         -0.5445    1.7859   -0.8732 H         1 <0>         0.0548
     19 H3         -0.5275    1.7763    0.9067 H         1 <0>         0.0551
     20 H4         -2.3270    1.1870    0.0110 H         1 <0>         0.1378
     21 H5         -4.5107    0.0695    0.0527 H         1 <0>         0.1412
     22 H6         -0.3371   -2.5925   -0.0009 H         1 <0>         0.1452
     23 H7         -1.6786   -4.6864    0.0643 H         1 <0>         0.1560
@<TRIPOS>BOND
     1    1    2 1
     2    1   17 1
     3    1   18 1
     4    1   19 1
     5    2    3 1
     6    3    8 ar
     7    3    4 ar
     8    4    5 ar
     9    4   20 1
    10    5    6 ar
    11    5   21 1
    12    6   13 1
    13    6    7 ar
    14    7    8 ar
    15    7    9 1
    16    8   22 1
    17    9   10 2
    18    9   23 1
    19   10   11 1
    20   10   14 1
    21   11   12 2
    22   11   13 1
    23   14   15 2
    24   14   16 1
@<TRIPOS>MOLECULE
ZINC02950199
   30    31     0     0     0
SMALL
USER_CHARGES
7-butoxychromen-2-one
@<TRIPOS>ATOM
      1 C1          1.3960    3.5852    0.0080 C.3       1 <0>        -0.1536
      2 C2          1.4167    2.0553   -0.0004 C.3       1 <0>        -0.1214
      3 C3         -0.0187    1.5258    0.0104 C.3       1 <0>        -0.1216
      4 C4          0.0021   -0.0041    0.0020 C.3       1 <0>         0.0552
      5 O1         -1.3386   -0.4987    0.0122 O.3       1 <0>        -0.3044
      6 C5         -1.4981   -1.8467    0.0064 C.ar      1 <0>         0.1920
      7 C6         -0.3776   -2.6752   -0.0144 C.ar      1 <0>        -0.2282
      8 C7         -0.5214   -4.0322   -0.0142 C.ar      1 <0>        -0.0098
      9 C8         -1.8026   -4.5959   -0.0054 C.ar      1 <0>        -0.2019
     10 C9         -1.9870   -6.0486   -0.0113 C.2       1 <0>         0.0111
     11 C10        -3.2556   -6.5345   -0.0018 C.2       1 <0>        -0.2573
     12 C11        -4.3479   -5.6429    0.0134 C.2       1 <0>         0.5094
     13 O2         -5.4801   -6.0918    0.0218 O.2       1 <0>        -0.4613
     14 O3         -4.1719   -4.3123    0.0192 O.3       1 <0>        -0.2700
     15 C12        -2.9379   -3.7645    0.0099 C.ar      1 <0>         0.1899
     16 C13        -2.7734   -2.3875    0.0157 C.ar      1 <0>        -0.1780
     17 H1          0.8858    3.9367    0.9048 H         1 <0>         0.0568
     18 H2          2.4186    3.9625    0.0002 H         1 <0>         0.0585
     19 H3          0.8688    3.9463   -0.8751 H         1 <0>         0.0568
     20 H4          1.9439    1.6943    0.8826 H         1 <0>         0.0657
     21 H5          1.9269    1.7038   -0.8972 H         1 <0>         0.0657
     22 H6         -0.5459    1.8868   -0.8726 H         1 <0>         0.0764
     23 H7         -0.5289    1.8773    0.9072 H         1 <0>         0.0764
     24 H8          0.5123   -0.3556   -0.8948 H         1 <0>         0.0685
     25 H9          0.5293   -0.3651    0.8851 H         1 <0>         0.0685
     26 H10         0.6109   -2.2404   -0.0260 H         1 <0>         0.1414
     27 H11         0.3506   -4.6693   -0.0263 H         1 <0>         0.1441
     28 H12        -1.1376   -6.7155   -0.0227 H         1 <0>         0.1539
     29 H13        -3.4270   -7.6008   -0.0062 H         1 <0>         0.1646
     30 H14        -3.6368   -1.7388    0.0271 H         1 <0>         0.1528
@<TRIPOS>BOND
     1    1    2 1
     2    1   17 1
     3    1   18 1
     4    1   19 1
     5    2    3 1
     6    2   20 1
     7    2   21 1
     8    3    4 1
     9    3   22 1
    10    3   23 1
    11    4    5 1
    12    4   24 1
    13    4   25 1
    14    5    6 1
    15    6   16 ar
    16    6    7 ar
    17    7    8 ar
    18    7   26 1
    19    8    9 ar
    20    8   27 1
    21    9   15 ar
    22    9   10 1
    23   10   11 2
    24   10   28 1
    25   11   12 1
    26   11   29 1
    27   12   13 2
    28   12   14 1
    29   14   15 1
    30   15   16 ar
    31   16   30 1
@<TRIPOS>MOLECULE
ZINC00388056
   20    20     0     0     0
SMALL
USER_CHARGES

@<TRIPOS>ATOM
      1 C1         -0.0184    1.5028    0.0103 C.3       1 <0>        -0.1275
      2 C2          0.0021   -0.0041    0.0020 C.ar      1 <0>        -0.0241
      3 C3          0.0057   -0.6887   -1.1989 C.ar      1 <0>        -0.1437
      4 C4          0.0245   -2.0709   -1.2065 C.ar      1 <0>        -0.0144
      5 C5          0.0400   -2.7685   -0.0132 C.ar      1 <0>        -0.6833
      6 C6          0.0373   -2.0839    1.1877 C.ar      1 <0>        -0.0144
      7 C7          0.0229   -0.7016    1.1953 C.ar      1 <0>        -0.1437
      8 S1          0.0628   -4.5303   -0.0229 S.o2      1 <0>         2.7023
      9 O1         -0.4759   -4.9503    1.2232 O.2       1 <0>        -0.9636
     10 O2         -0.4897   -4.9367   -1.2674 O.2       1 <0>        -0.9636
     11 N1          1.6509   -4.9994   -0.0343 N.pl3     1 <0>        -1.2501
     12 H1          1.0042    1.8801    0.0026 H         1 <0>         0.0812
     13 H2         -0.5455    1.8639   -0.8728 H         1 <0>         0.0745
     14 H3         -0.5286    1.8543    0.9071 H         1 <0>         0.0745
     15 H4         -0.0064   -0.1436   -2.1312 H         1 <0>         0.1350
     16 H5          0.0266   -2.6057   -2.1448 H         1 <0>         0.1438
     17 H6          0.0491   -2.6289    2.1200 H         1 <0>         0.1438
     18 H7          0.0245   -0.1667    2.1335 H         1 <0>         0.1350
     19 H8          2.3540   -4.3312   -0.0345 H         1 <0>         0.4166
     20 H9          1.8780   -5.9424   -0.0406 H         1 <0>         0.4215
@<TRIPOS>BOND
     1    1    2 1
     2    1   12 1
     3    1   13 1
     4    1   14 1
     5    2    7 ar
     6    2    3 ar
     7    3    4 ar
     8    3   15 1
     9    4    5 ar
    10    4   16 1
    11    5    6 ar
    12    5    8 1
    13    6    7 ar
    14    6   17 1
    15    7   18 1
    16    8    9 2
    17    8   10 2
    18    8   11 1
    19   11   19 1
    20   11   20 1
@<TRIPOS>MOLECULE
ZINC00007673
   36    36     0     0     0
SMALL
USER_CHARGES
2-acetylamino-N-benzyl-3-methoxy-propanamide
@<TRIPOS>ATOM
      1 C1          2.4620    0.9199   -0.0165 C.3       1 <0>        -0.1732
      2 C2          1.1468    1.6555   -0.0000 C.2       1 <0>         0.5157
      3 O1          1.1304    2.8682    0.0067 O.2       1 <0>        -0.5493
      4 N1         -0.0111    0.9658    0.0074 N.am      1 <0>        -0.7083
      5 C3         -1.2896    1.6810    0.0173 C.3       1 <0>         0.1310
      6 H1         -1.1985    2.5963   -0.5676 H         1 <0>         0.1287
      7 C4         -1.6665    2.0319    1.4580 C.3       1 <0>         0.0518
      8 O2         -1.8997    0.8303    2.1955 O.3       1 <0>        -0.3837
      9 C5         -2.2603    1.0472    3.5611 C.3       1 <0>         0.0319
     10 C6         -2.3595    0.8057   -0.5829 C.2       1 <0>         0.5232
     11 O3         -2.0814   -0.3061   -0.9798 O.2       1 <0>        -0.5278
     12 N2         -3.6254    1.2583   -0.6785 N.am      1 <0>        -0.7204
     13 C7         -4.6655    0.4074   -1.2619 C.3       1 <0>         0.1634
     14 C8         -5.9806    1.1431   -1.2517 C.ar      1 <0>        -0.1131
     15 C9         -6.8282    1.0286   -0.1657 C.ar      1 <0>        -0.0996
     16 C10        -8.0323    1.7076   -0.1540 C.ar      1 <0>        -0.1216
     17 C11        -8.3936    2.4925   -1.2331 C.ar      1 <0>        -0.1101
     18 C12        -7.5486    2.6024   -2.3215 C.ar      1 <0>        -0.1213
     19 C13        -6.3420    1.9279   -2.3307 C.ar      1 <0>        -0.1002
     20 H2          2.5197    0.2988   -0.9104 H         1 <0>         0.0912
     21 H3          3.2807    1.6394   -0.0205 H         1 <0>         0.0948
     22 H4          2.5367    0.2893    0.8694 H         1 <0>         0.0907
     23 H5          0.0021   -0.0041    0.0020 H         1 <0>         0.4151
     24 H6         -0.8527    2.5901    1.9208 H         1 <0>         0.0698
     25 H7         -2.5710    2.6402    1.4591 H         1 <0>         0.0632
     26 H8         -3.1771    1.6351    3.6059 H         1 <0>         0.0426
     27 H9         -2.4202    0.0870    4.0516 H         1 <0>         0.0886
     28 H10        -1.4588    1.5850    4.0676 H         1 <0>         0.0432
     29 H11        -3.8478    2.1475   -0.3610 H         1 <0>         0.4023
     30 H12        -4.3970    0.1574   -2.2883 H         1 <0>         0.0786
     31 H13        -4.7565   -0.5078   -0.6770 H         1 <0>         0.0794
     32 H14        -6.5479    0.4118    0.6754 H         1 <0>         0.1243
     33 H15        -8.6923    1.6219    0.6965 H         1 <0>         0.1250
     34 H16        -9.3360    3.0200   -1.2255 H         1 <0>         0.1243
     35 H17        -7.8309    3.2156   -3.1645 H         1 <0>         0.1253
     36 H18        -5.6818    2.0139   -3.1811 H         1 <0>         0.1245
@<TRIPOS>BOND
     1    1    2 1
     2    1   20 1
     3    1   21 1
     4    1   22 1
     5    2    3 2
     6    2    4 am
     7    4    5 1
     8    4   23 1
     9    5    6 1
    10    5    7 1
    11    5   10 1
    12    7    8 1
    13    7   24 1
    14    7   25 1
    15    8    9 1
    16    9   26 1
    17    9   27 1
    18    9   28 1
    19   10   11 2
    20   10   12 am
    21   12   13 1
    22   12   29 1
    23   13   14 1
    24   13   30 1
    25   13   31 1
    26   14   19 ar
    27   14   15 ar
    28   15   16 ar
    29   15   32 1
    30   16   17 ar
    31   16   33 1
    32   17   18 ar
    33   17   34 1
    34   18   19 ar
    35   18   35 1
    36   19   36 1
@<TRIPOS>MOLECULE
ZINC00074709
   17    18     0     0     0
SMALL
USER_CHARGES

@<TRIPOS>ATOM
      1 C1         -0.0165    1.3624    0.0095 C.ar      1 <0>        -0.1419
      2 C2          1.1694    2.0828    0.0021 C.ar      1 <0>        -0.0622
      3 C3          2.3864    1.4343   -0.0130 C.ar      1 <0>        -0.1344
      4 C4          2.4291    0.0458   -0.0209 C.ar      1 <0>         0.1445
      5 C5          1.2257   -0.6807   -0.0133 C.ar      1 <0>        -0.1626
      6 C6          0.0021   -0.0041    0.0020 C.ar      1 <0>        -0.0545
      7 C7          1.2797   -2.1458   -0.0218 C.2       1 <0>         0.0000
      8 C8          2.4988   -2.7419   -0.0367 C.2       1 <0>        -0.2457
      9 C9          3.6673   -1.9496   -0.0436 C.2       1 <0>         0.5065
     10 O1          4.7551   -2.4967   -0.0571 O.2       1 <0>        -0.4613
     11 O2          3.6097   -0.6089   -0.0361 O.3       1 <0>        -0.2712
     12 H1         -0.9612    1.8855    0.0259 H         1 <0>         0.1364
     13 H2          1.1390    3.1624    0.0078 H         1 <0>         0.1414
     14 H3          3.3037    2.0043   -0.0191 H         1 <0>         0.1449
     15 H4         -0.9244   -0.5590    0.0083 H         1 <0>         0.1397
     16 H5          0.3743   -2.7344   -0.0160 H         1 <0>         0.1550
     17 H6          2.5748   -3.8192   -0.0430 H         1 <0>         0.1655
@<TRIPOS>BOND
     1    1    6 ar
     2    1    2 ar
     3    1   12 1
     4    2    3 ar
     5    2   13 1
     6    3    4 ar
     7    3   14 1
     8    4   11 1
     9    4    5 ar
    10    5    6 ar
    11    5    7 1
    12    6   15 1
    13    7    8 2
    14    7   16 1
    15    8    9 1
    16    8   17 1
    17    9   10 2
    18    9   11 1
@<TRIPOS>MOLECULE
ZINC00388759
   14    14     0     0     0
SMALL
USER_CHARGES
4-hydroxybenzonitrile
@<TRIPOS>ATOM
      1 C1          0.0021   -0.0041    0.0020 C.ar      1 <0>        -0.0522
      2 C2         -0.0166    1.3731    0.0096 C.ar      1 <0>        -0.1475
      3 C3          1.1761    2.0862    0.0020 C.ar      1 <0>         0.1383
      4 C4          2.3922    1.4139   -0.0131 C.ar      1 <0>        -0.1475
      5 C5          2.4200    0.0369   -0.0208 C.ar      1 <0>        -0.0523
      6 C6          1.2228   -0.6843   -0.0133 C.ar      1 <0>        -0.0397
      7 C7          1.2470   -2.1160   -0.0207 C.1       1 <0>         0.2507
      8 N1          1.2662   -3.2519   -0.0266 N.1       1 <0>        -0.4110
      9 O1          1.1532    3.4436    0.0095 O.3       1 <0>        -0.4971
     10 H1         -0.9253   -0.5575    0.0075 H         1 <0>         0.1386
     11 H2         -0.9596    1.8996    0.0169 H         1 <0>         0.1411
     12 H3          3.3168    1.9719   -0.0190 H         1 <0>         0.1411
     13 H4          3.3655   -0.4849   -0.0323 H         1 <0>         0.1386
     14 H5          1.1550    3.8321    0.8950 H         1 <0>         0.3989
@<TRIPOS>BOND
     1    1    6 ar
     2    1    2 ar
     3    1   10 1
     4    2    3 ar
     5    2   11 1
     6    3    4 ar
     7    3    9 1
     8    4    5 ar
     9    4   12 1
    10    5    6 ar
    11    5   13 1
    12    6    7 1
    13    7    8 3
    14    9   14 1
@<TRIPOS>MOLECULE
ZINC00039811
   19    19     0     0     0
SMALL
USER_CHARGES
(E)-3-(4-hydroxyphenyl)prop-2-enoic acid
@<TRIPOS>ATOM
      1 C1         -0.0126    1.0758    0.0080 C.ar      1 <0>        -0.0999
      2 C2         -1.2132    1.7490    0.0173 C.ar      1 <0>        -0.1432
      3 C3         -1.2334    3.1391    0.0297 C.ar      1 <0>         0.0845
      4 C4         -0.0425    3.8566    0.0222 C.ar      1 <0>        -0.1404
      5 C5          1.1634    3.1931    0.0076 C.ar      1 <0>        -0.1038
      6 C6          1.1894    1.7934    0.0003 C.ar      1 <0>        -0.0427
      7 C7          2.4741    1.0799   -0.0157 C.2       1 <0>        -0.1166
      8 C8          3.6326    1.7747   -0.0231 C.2       1 <0>        -0.1396
      9 C9          4.8720    1.0864   -0.0386 C.2       1 <0>         0.4685
     10 O1          4.8921   -0.1299   -0.0453 O.co2     1 <0>        -0.6366
     11 O2         -2.4199    3.7981    0.0441 O.3       1 <0>        -0.5013
     12 H1          0.0021   -0.0041    0.0020 H         1 <0>         0.1293
     13 H2         -2.1411    1.1964    0.0190 H         1 <0>         0.1255
     14 H3         -0.0637    4.9364    0.0282 H         1 <0>         0.1262
     15 H4          2.0879    3.7514    0.0014 H         1 <0>         0.1329
     16 H5          2.4920    0.0001   -0.0217 H         1 <0>         0.1299
     17 H6          3.6147    2.8546   -0.0171 H         1 <0>         0.1070
     18 H7         -2.7720    3.9936   -0.8350 H         1 <0>         0.3846
     19 O3          6.0291    1.7803   -0.0459 O.co2     1 <0>        -0.7643
@<TRIPOS>BOND
     1    1    6 ar
     2    1    2 ar
     3    1   12 1
     4    2    3 ar
     5    2   13 1
     6    3    4 ar
     7    3   11 1
     8    4    5 ar
     9    4   14 1
    10    5    6 ar
    11    5   15 1
    12    6    7 1
    13    7    8 2
    14    7   16 1
    15    8    9 1
    16    8   17 1
    17    9   10 2
    18    9   19 1
    19   11   18 1
@<TRIPOS>MOLECULE
ZINC00004726
   17    17     0     0     0
SMALL
USER_CHARGES

@<TRIPOS>ATOM
      1 C1         -0.0167    1.3782    0.0096 C.ar      1 <0>        -0.0084
      2 C2          1.1706    2.0858    0.0021 C.ar      1 <0>        -0.1323
      3 C3          2.3780    1.4104   -0.0130 C.ar      1 <0>         0.0197
      4 C4          2.3961    0.0270   -0.0206 C.ar      1 <0>        -0.1325
      5 C5          1.2082   -0.6795   -0.0130 C.ar      1 <0>        -0.0032
      6 C6          0.0021   -0.0041    0.0020 C.ar      1 <0>        -0.6784
      7 S1         -1.5119   -0.9054    0.0122 S.o2      1 <0>         2.7042
      8 O1         -1.2185   -2.1862    0.5533 O.2       1 <0>        -0.9587
      9 O2         -2.4924   -0.0460    0.5773 O.2       1 <0>        -0.9564
     10 N1         -1.9483   -1.1474   -1.5669 N.pl3     1 <0>        -1.2469
     11 Cl1         3.8696    2.2984   -0.0231 Cl        1 <0>        -0.0495
     12 H1         -0.9592    1.9053    0.0259 H         1 <0>         0.1538
     13 H2          1.1558    3.1656    0.0076 H         1 <0>         0.1469
     14 H3          3.3383   -0.5007   -0.0327 H         1 <0>         0.1469
     15 H4          1.2222   -1.7594   -0.0193 H         1 <0>         0.1535
     16 H5         -2.4563   -1.9358   -1.8143 H         1 <0>         0.4234
     17 H6         -1.6959   -0.5007   -2.2444 H         1 <0>         0.4178
@<TRIPOS>BOND
     1    1    6 ar
     2    1    2 ar
     3    1   12 1
     4    2    3 ar
     5    2   13 1
     6    3    4 ar
     7    3   11 1
     8    4    5 ar
     9    4   14 1
    10    5    6 ar
    11    5   15 1
    12    6    7 1
    13    7    8 2
    14    7    9 2
    15    7   10 1
    16   10   16 1
    17   10   17 1
@<TRIPOS>MOLECULE
ZINC00067688
   19    20     0     0     0
SMALL
USER_CHARGES

@<TRIPOS>ATOM
      1 C1         -0.0164    1.3609    0.0095 C.ar      1 <0>        -0.1450
      2 C2          1.1691    2.0833    0.0021 C.ar      1 <0>        -0.0853
      3 C3          2.3867    1.4355   -0.0258 C.ar      1 <0>        -0.1341
      4 C4          2.4310    0.0479   -0.0396 C.ar      1 <0>         0.1293
      5 C5          1.2291   -0.6843   -0.0031 C.ar      1 <0>        -0.1265
      6 C6          0.0021   -0.0041    0.0020 C.ar      1 <0>        -0.0663
      7 C7          1.2662   -2.1006    0.0481 C.2       1 <0>        -0.0356
      8 C8          2.4964   -2.7156    0.2564 C.2       1 <0>        -0.2198
      9 C9          3.6684   -1.8395    0.4426 C.2       1 <0>         0.5100
     10 O1          4.6460   -2.2195    1.0591 O.2       1 <0>        -0.4147
     11 O2          3.6197   -0.5992   -0.0959 O.3       1 <0>        -0.2919
     12 C10         2.6232   -4.1781    0.2900 C.2       1 <0>         0.5329
     13 O3          1.6343   -4.8818    0.1330 O.co2     1 <0>        -0.6794
     14 O4          3.7178   -4.6934    0.4750 O.co2     1 <0>        -0.6603
     15 H1         -0.9615    1.8833    0.0259 H         1 <0>         0.1281
     16 H2          1.1378    3.1627    0.0179 H         1 <0>         0.1320
     17 H3          3.3034    2.0064   -0.0373 H         1 <0>         0.1372
     18 H4         -0.9248   -0.5585    0.0004 H         1 <0>         0.1357
     19 H5          0.3657   -2.6849   -0.0708 H         1 <0>         0.1537
@<TRIPOS>BOND
     1    1    6 ar
     2    1    2 ar
     3    1   15 1
     4    2    3 ar
     5    2   16 1
     6    3    4 ar
     7    3   17 1
     8    4   11 1
     9    4    5 ar
    10    5    6 ar
    11    5    7 1
    12    6   18 1
    13    7    8 2
    14    7   19 1
    15    8    9 1
    16    8   12 1
    17    9   10 2
    18    9   11 1
    19   12   13 2
    20   12   14 1
@<TRIPOS>MOLECULE
ZINC05925089
   24    24     0     0     0
SMALL
USER_CHARGES

@<TRIPOS>ATOM
      1 C1         -0.0187    1.5258    0.0104 C.3       1 <0>        -0.1032
      2 C2          0.0021   -0.0041    0.0020 C.3       1 <0>        -0.1711
      3 C3         -1.4117   -0.5257    0.0127 C.2       1 <0>         0.4927
      4 O1         -2.3491    0.2539    0.0259 O.co2     1 <0>        -0.7004
      5 O2         -1.6182   -1.7273    0.0082 O.co2     1 <0>        -0.6962
      6 C4          1.3951    2.0474   -0.0003 C.2       1 <0>         0.5020
      7 O3          2.3275    1.2719   -0.0133 O.2       1 <0>        -0.4556
      8 N1          1.6234    3.3757    0.0047 N.am      1 <0>        -0.6108
      9 C5          2.9281    3.8570   -0.0052 C.2       1 <0>         0.2778
     10 N2          4.0623    3.1849   -0.0254 N.2       1 <0>        -0.3125
     11 N3          5.1835    3.7674   -0.0321 N.2       1 <0>        -0.1069
     12 C6          5.2219    5.0848   -0.0184 C.2       1 <0>        -0.5986
     13 S1          3.4728    5.4526   -0.0018 S.3       1 <0>         0.2204
     14 S2          6.6060    6.1752   -0.0227 S.o2      1 <0>         2.7554
     15 O4          6.9991    6.3271   -1.3797 O.2       1 <0>        -0.9398
     16 O5          6.2540    7.2814    0.7969 O.2       1 <0>        -0.9446
     17 N4          7.8476    5.3934    0.7451 N.pl3     1 <0>        -1.2384
     18 H1         -0.5459    1.8868   -0.8726 H         1 <0>         0.1048
     19 H2         -0.5289    1.8773    0.9072 H         1 <0>         0.1048
     20 H3          0.5123   -0.3556   -0.8948 H         1 <0>         0.0681
     21 H4          0.5293   -0.3651    0.8851 H         1 <0>         0.0680
     22 H5          0.8777    3.9959    0.0151 H         1 <0>         0.4346
     23 H6          7.7154    4.4975    1.0927 H         1 <0>         0.4246
     24 H7          8.7070    5.8313    0.8473 H         1 <0>         0.4251
@<TRIPOS>BOND
     1    1    2 1
     2    1    6 1
     3    1   18 1
     4    1   19 1
     5    2    3 1
     6    2   20 1
     7    2   21 1
     8    3    4 2
     9    3    5 1
    10    6    7 2
    11    6    8 am
    12    8    9 1
    13    8   22 1
    14    9   13 1
    15    9   10 2
    16   10   11 1
    17   11   12 2
    18   12   13 1
    19   12   14 1
    20   14   15 2
    21   14   16 2
    22   14   17 1
    23   17   23 1
    24   17   24 1
@<TRIPOS>MOLECULE
ZINC05925089
   23    23     0     0     0
SMALL
USER_CHARGES

@<TRIPOS>ATOM
      1 C1         -0.0187    1.5258    0.0104 C.3       1 <0>        -0.1022
      2 C2          0.0021   -0.0041    0.0020 C.3       1 <0>        -0.1696
      3 C3         -1.4117   -0.5257    0.0127 C.2       1 <0>         0.4939
      4 O1         -2.3491    0.2539    0.0259 O.co2     1 <0>        -0.7025
      5 O2         -1.6182   -1.7273    0.0082 O.co2     1 <0>        -0.7022
      6 C4          1.3951    2.0474   -0.0003 C.2       1 <0>         0.5000
      7 O3          2.3275    1.2719   -0.0133 O.2       1 <0>        -0.4657
      8 N1          1.6234    3.3757    0.0047 N.am      1 <0>        -0.6175
      9 C5          2.9281    3.8570   -0.0052 C.2       1 <0>         0.2446
     10 N2          4.0623    3.1849   -0.0254 N.2       1 <0>        -0.3184
     11 N3          5.1835    3.7674   -0.0321 N.2       1 <0>        -0.1267
     12 C6          5.2219    5.0848   -0.0184 C.2       1 <0>        -0.4438
     13 S1          3.4728    5.4526   -0.0018 S.3       1 <0>         0.1198
     14 S2          6.6060    6.1752   -0.0227 S.o2      1 <0>         2.6097
     15 O4          6.9991    6.3271   -1.3797 O.2       1 <0>        -1.0420
     16 O5          6.2540    7.2814    0.7969 O.2       1 <0>        -1.0465
     17 N4          7.8476    5.3934    0.7451 N.2       1 <0>        -1.3163
     18 H1         -0.5459    1.8868   -0.8726 H         1 <0>         0.0988
     19 H2         -0.5289    1.8773    0.9072 H         1 <0>         0.0990
     20 H3          0.5123   -0.3556   -0.8948 H         1 <0>         0.0672
     21 H4          0.5293   -0.3651    0.8851 H         1 <0>         0.0674
     22 H5          0.8777    3.9959    0.0151 H         1 <0>         0.4266
     23 H6          8.7070    5.8313    0.8473 H         1 <0>         0.3264
@<TRIPOS>BOND
     1    1    2 1
     2    1    6 1
     3    1   18 1
     4    1   19 1
     5    2    3 1
     6    2   20 1
     7    2   21 1
     8    3    4 2
     9    3    5 1
    10    6    7 2
    11    6    8 am
    12    8    9 1
    13    8   22 1
    14    9   13 1
    15    9   10 2
    16   10   11 1
    17   11   12 2
    18   12   13 1
    19   12   14 1
    20   14   15 2
    21   14   16 2
    22   14   17 1
    23   17   23 1
@<TRIPOS>MOLECULE
ZINC00003911
   46    47     0     0     0
SMALL
USER_CHARGES

@<TRIPOS>ATOM
      1 C1         -0.0187    1.5258    0.0104 C.3       1 <0>        -0.1843
      2 C2          0.0021   -0.0041    0.0020 C.3       1 <0>         0.0265
      3 H1          0.5123   -0.3556   -0.8948 H         1 <0>         0.1412
      4 C3         -1.4333   -0.5336    0.0129 C.3       1 <0>        -0.1429
      5 C4         -1.4157   -2.0577   -0.1212 C.3       1 <0>        -0.0877
      6 C5         -2.8295   -2.5793   -0.1105 C.ar      1 <0>        -0.1130
      7 C6         -3.4314   -2.9172    1.0875 C.ar      1 <0>        -0.0989
      8 C7         -4.7271   -3.3960    1.1000 C.ar      1 <0>        -0.1426
      9 C8         -5.4247   -3.5373   -0.0909 C.ar      1 <0>         0.1182
     10 C9         -4.8186   -3.1971   -1.2916 C.ar      1 <0>        -0.1411
     11 C10        -3.5245   -2.7138   -1.2982 C.ar      1 <0>        -0.0940
     12 O1         -6.6993   -4.0085   -0.0813 O.3       1 <0>        -0.4977
     13 N1          0.7126   -0.4907    1.1921 N.4       1 <0>        -0.5104
     14 C11         2.1220   -0.0825    1.1220 C.3       1 <0>        -0.0106
     15 C12         2.8620   -0.5894    2.3615 C.3       1 <0>        -0.0997
     16 C13         4.3078   -0.1706    2.2896 C.ar      1 <0>        -0.1013
     17 C14         5.2346   -0.9936    1.6770 C.ar      1 <0>        -0.1008
     18 C15         6.5621   -0.6140    1.6084 C.ar      1 <0>        -0.1260
     19 C16         6.9663    0.5939    2.1541 C.ar      1 <0>         0.0988
     20 C17         6.0335    1.4224    2.7703 C.ar      1 <0>         0.0875
     21 C18         4.7036    1.0381    2.8314 C.ar      1 <0>        -0.1217
     22 O2          6.4254    2.6087    3.3074 O.3       1 <0>        -0.4839
     23 O3          8.2720    0.9686    2.0879 O.3       1 <0>        -0.4847
     24 H2          1.0039    1.9031    0.0027 H         1 <0>         0.0822
     25 H3         -0.5459    1.8868   -0.8726 H         1 <0>         0.1069
     26 H4         -0.5289    1.8773    0.9072 H         1 <0>         0.0827
     27 H5         -1.9156   -0.2570    0.9504 H         1 <0>         0.0915
     28 H6         -1.9862   -0.1019   -0.8214 H         1 <0>         0.1153
     29 H7         -0.9334   -2.3344   -1.0587 H         1 <0>         0.0885
     30 H8         -0.8628   -2.4894    0.7131 H         1 <0>         0.0663
     31 H9         -2.8879   -2.8071    2.0143 H         1 <0>         0.1240
     32 H10        -5.1966   -3.6605    2.0359 H         1 <0>         0.1333
     33 H11        -5.3596   -3.3061   -2.2200 H         1 <0>         0.1342
     34 H12        -3.0538   -2.4447   -2.2322 H         1 <0>         0.1283
     35 H13        -7.3727   -3.3195    0.0019 H         1 <0>         0.3978
     36 H14         0.2896   -0.0986    2.0201 H         1 <0>         0.4266
     37 H15         2.5788   -0.5061    0.2276 H         1 <0>         0.1345
     38 H16         2.1837    1.0050    1.0814 H         1 <0>         0.1352
     39 H17         2.4051   -0.1658    3.2560 H         1 <0>         0.0977
     40 H18         2.8002   -1.6769    2.4022 H         1 <0>         0.0986
     41 H19         4.9208   -1.9352    1.2513 H         1 <0>         0.1331
     42 H20         7.2841   -1.2590    1.1299 H         1 <0>         0.1413
     43 H21         3.9769    1.6810    3.3058 H         1 <0>         0.1357
     44 H22         6.3843    3.3524    2.6906 H         1 <0>         0.3933
     45 H23         8.4955    1.4774    1.2965 H         1 <0>         0.3958
     46 H24         0.6554   -1.4974    1.2298 H         1 <0>         0.4262
@<TRIPOS>BOND
     1    1    2 1
     2    1   24 1
     3    1   25 1
     4    1   26 1
     5    2    3 1
     6    2    4 1
     7    2   13 1
     8    4    5 1
     9    4   27 1
    10    4   28 1
    11    5    6 1
    12    5   29 1
    13    5   30 1
    14    6   11 ar
    15    6    7 ar
    16    7    8 ar
    17    7   31 1
    18    8    9 ar
    19    8   32 1
    20    9   10 ar
    21    9   12 1
    22   10   11 ar
    23   10   33 1
    24   11   34 1
    25   12   35 1
    26   13   14 1
    27   13   36 1
    28   13   46 1
    29   14   15 1
    30   14   37 1
    31   14   38 1
    32   15   16 1
    33   15   39 1
    34   15   40 1
    35   16   21 ar
    36   16   17 ar
    37   17   18 ar
    38   17   41 1
    39   18   19 ar
    40   18   42 1
    41   19   20 ar
    42   19   23 1
    43   20   21 ar
    44   20   22 1
    45   21   43 1
    46   22   44 1
    47   23   45 1
@<TRIPOS>MOLECULE
ZINC00057278
   46    47     0     0     0
SMALL
USER_CHARGES

@<TRIPOS>ATOM
      1 C1         -0.0187    1.5258    0.0104 C.3       1 <0>        -0.1843
      2 C2          0.0021   -0.0041    0.0020 C.3       1 <0>         0.0265
      3 H1          0.5123   -0.3556   -0.8948 H         1 <0>         0.1410
      4 C3          0.7421   -0.5109    1.2415 C.3       1 <0>        -0.1428
      5 C4          0.8719   -2.0337    1.1708 C.3       1 <0>        -0.0878
      6 C5          1.6008   -2.5330    2.3917 C.ar      1 <0>        -0.1130
      7 C6          2.9792   -2.6404    2.3768 C.ar      1 <0>        -0.0940
      8 C7          3.6497   -3.0982    3.4945 C.ar      1 <0>        -0.1411
      9 C8          2.9388   -3.4498    4.6328 C.ar      1 <0>         0.1182
     10 C9          1.5558   -3.3406    4.6454 C.ar      1 <0>        -0.1425
     11 C10         0.8905   -2.8774    3.5269 C.ar      1 <0>        -0.0989
     12 O1          3.5960   -3.9008    5.7335 O.3       1 <0>        -0.4977
     13 N1         -1.3761   -0.5125    0.0124 N.4       1 <0>        -0.5104
     14 C11        -2.0500   -0.1262   -1.2343 C.3       1 <0>        -0.0107
     15 C12        -3.4854   -0.6557   -1.2235 C.3       1 <0>        -0.0997
     16 C13        -4.1768   -0.2594   -2.5025 C.ar      1 <0>        -0.1013
     17 C14        -4.8594    0.9408   -2.5743 C.ar      1 <0>        -0.1009
     18 C15        -5.4952    1.3089   -3.7453 C.ar      1 <0>        -0.1261
     19 C16        -5.4488    0.4746   -4.8506 C.ar      1 <0>         0.0988
     20 C17        -4.7614   -0.7332   -4.7785 C.ar      1 <0>         0.0877
     21 C18        -4.1222   -1.0939   -3.6032 C.ar      1 <0>        -0.1216
     22 O2         -4.7131   -1.5554   -5.8607 O.3       1 <0>        -0.4839
     23 O3         -6.0742    0.8350   -6.0032 O.3       1 <0>        -0.4847
     24 H2          1.0039    1.9031    0.0027 H         1 <0>         0.1068
     25 H3         -0.5459    1.8868   -0.8726 H         1 <0>         0.0825
     26 H4         -0.5289    1.8773    0.9072 H         1 <0>         0.0828
     27 H5          1.7350   -0.0630    1.2804 H         1 <0>         0.1153
     28 H6          0.1838   -0.2350    2.1361 H         1 <0>         0.0915
     29 H7         -0.1210   -2.4817    1.1320 H         1 <0>         0.0662
     30 H8          1.4302   -2.3096    0.2763 H         1 <0>         0.0884
     31 H9          3.5321   -2.3666    1.4904 H         1 <0>         0.1283
     32 H10         4.7263   -3.1827    3.4821 H         1 <0>         0.1342
     33 H11         1.0002   -3.6137    5.5303 H         1 <0>         0.1333
     34 H12        -0.1858   -2.7880    3.5377 H         1 <0>         0.1240
     35 H13         3.8546   -3.2028    6.3507 H         1 <0>         0.3978
     36 H14        -1.3629   -1.5185    0.0898 H         1 <0>         0.4262
     37 H15        -2.0643    0.9605   -1.3179 H         1 <0>         0.1362
     38 H16        -1.5132   -0.5489   -2.0836 H         1 <0>         0.1335
     39 H17        -3.4711   -1.7424   -1.1399 H         1 <0>         0.0974
     40 H18        -4.0222   -0.2330   -0.3742 H         1 <0>         0.0989
     41 H19        -4.8962    1.5920   -1.7135 H         1 <0>         0.1330
     42 H20        -6.0283    2.2466   -3.7985 H         1 <0>         0.1412
     43 H21        -3.5849   -2.0290   -3.5458 H         1 <0>         0.1358
     44 H22        -3.9621   -1.3901   -6.4470 H         1 <0>         0.3934
     45 H23        -5.5183    1.3426   -6.6102 H         1 <0>         0.3958
     46 H24        -1.8730   -0.1212    0.7986 H         1 <0>         0.4266
@<TRIPOS>BOND
     1    1    2 1
     2    1   24 1
     3    1   25 1
     4    1   26 1
     5    2    3 1
     6    2    4 1
     7    2   13 1
     8    4    5 1
     9    4   27 1
    10    4   28 1
    11    5    6 1
    12    5   29 1
    13    5   30 1
    14    6   11 ar
    15    6    7 ar
    16    7    8 ar
    17    7   31 1
    18    8    9 ar
    19    8   32 1
    20    9   10 ar
    21    9   12 1
    22   10   11 ar
    23   10   33 1
    24   11   34 1
    25   12   35 1
    26   13   14 1
    27   13   36 1
    28   13   46 1
    29   14   15 1
    30   14   37 1
    31   14   38 1
    32   15   16 1
    33   15   39 1
    34   15   40 1
    35   16   21 ar
    36   16   17 ar
    37   17   18 ar
    38   17   41 1
    39   18   19 ar
    40   18   42 1
    41   19   20 ar
    42   19   23 1
    43   20   21 ar
    44   20   22 1
    45   21   43 1
    46   22   44 1
    47   23   45 1
@<TRIPOS>MOLECULE
ZINC19632618
   69    73     0     0     0
SMALL
USER_CHARGES

@<TRIPOS>ATOM
      1 C1         -0.1643    1.5374    0.2772 C.3       1 <0>        -0.1166
      2 C2          0.0708    0.1281   -0.2021 C.ar      1 <0>        -0.1228
      3 C3         -0.6192   -0.3521   -1.2987 C.ar      1 <0>        -0.0806
      4 C4         -0.4070   -1.6434   -1.7410 C.ar      1 <0>        -0.1294
      5 C5          0.5017   -2.4641   -1.0837 C.ar      1 <0>         0.1504
      6 C6          1.1965   -1.9850    0.0175 C.ar      1 <0>        -0.1394
      7 C7          0.9852   -0.6852    0.4558 C.ar      1 <0>         0.1826
      8 N1          1.6874   -0.1967    1.5617 N.pl3     1 <0>        -0.6314
      9 C8          2.1285   -1.0695    2.5429 C.ar      1 <0>         0.5659
     10 N2          1.7764   -2.3456    2.4776 N.ar      1 <0>        -0.5577
     11 C9          2.1776   -3.2107    3.3953 C.ar      1 <0>         0.1910
     12 C10         2.9764   -2.7714    4.4364 C.ar      1 <0>        -0.2706
     13 C11         3.3313   -1.4207    4.4789 C.ar      1 <0>         0.2697
     14 N3          2.8950   -0.6087    3.5185 N.ar      1 <0>        -0.5576
     15 C12         4.1856   -0.9008    5.5740 C.ar      1 <0>        -0.1200
     16 C13         4.4510    0.4679    5.6793 C.ar      1 <0>        -0.0267
     17 C14         5.2541    0.9026    6.7193 C.ar      1 <0>        -0.1772
     18 C15         5.7636   -0.0222    7.6129 C.ar      1 <0>         0.1192
     19 N4          5.4957   -1.3077    7.4879 N.ar      1 <0>        -0.4844
     20 C16         4.7320   -1.7677    6.5181 C.ar      1 <0>         0.1336
     21 N5          0.7153   -3.7716   -1.5315 N.am      1 <0>        -0.6649
     22 C17         0.7404   -4.0356   -2.8529 C.2       1 <0>         0.5545
     23 O1          0.4912   -3.1555   -3.6535 O.2       1 <0>        -0.5086
     24 C18         1.0709   -5.3955   -3.3287 C.ar      1 <0>        -0.1216
     25 C19         1.3519   -6.4100   -2.4119 C.ar      1 <0>        -0.0841
     26 C20         1.6592   -7.6771   -2.8626 C.ar      1 <0>        -0.1244
     27 C21         1.6892   -7.9435   -4.2200 C.ar      1 <0>        -0.0692
     28 C22         1.4117   -6.9425   -5.1341 C.ar      1 <0>        -0.0994
     29 C23         1.0978   -5.6724   -4.6966 C.ar      1 <0>        -0.0536
     30 C24         2.0262   -9.3299   -4.7050 C.3       1 <0>         0.0939
     31 N6          0.7933  -10.1196   -4.8258 N.3       1 <0>        -0.5345
     32 C25         0.1866  -10.3538   -3.5078 C.3       1 <0>         0.0185
     33 C26        -1.1228  -11.1262   -3.6823 C.3       1 <0>        -0.0025
     34 N7         -0.8513  -12.4061   -4.3498 N.4       1 <0>        -0.3884
     35 C27        -0.2685  -12.1554   -5.6746 C.3       1 <0>        -0.0024
     36 C28         1.0481  -11.3916   -5.5166 C.3       1 <0>         0.0250
     37 C29        -2.1059  -13.1551   -4.5009 C.3       1 <0>        -0.0460
     38 H1          0.5251    2.2130   -0.2290 H         1 <0>         0.0728
     39 H2         -1.1901    1.8307    0.0540 H         1 <0>         0.0743
     40 H3          0.0021    1.5877    1.3533 H         1 <0>         0.0627
     41 H4         -1.3262    0.2836   -1.8111 H         1 <0>         0.1320
     42 H5         -0.9481   -2.0158   -2.5982 H         1 <0>         0.1349
     43 H6          1.9030   -2.6209    0.5302 H         1 <0>         0.1479
     44 H7          1.8658    0.7534    1.6418 H         1 <0>         0.4260
     45 H8          1.8844   -4.2483    3.3325 H         1 <0>         0.1734
     46 H9          3.3172   -3.4566    5.1985 H         1 <0>         0.1507
     47 H10         4.0401    1.1680    4.9670 H         1 <0>         0.1466
     48 H11         5.4807    1.9525    6.8318 H         1 <0>         0.1437
     49 H12         6.3909    0.3135    8.4254 H         1 <0>         0.1633
     50 H13         4.5316   -2.8268    6.4514 H         1 <0>         0.1617
     51 H14         0.8453   -4.4884   -0.8911 H         1 <0>         0.4084
     52 H15         1.3291   -6.2032   -1.3521 H         1 <0>         0.1294
     53 H16         1.8771   -8.4627   -2.1544 H         1 <0>         0.1265
     54 H17         1.4372   -7.1570   -6.1922 H         1 <0>         0.1340
     55 H18         0.8770   -4.8931   -5.4110 H         1 <0>         0.1424
     56 H19         2.5135   -9.2661   -5.6779 H         1 <0>         0.1008
     57 H20         2.6973   -9.8107   -3.9933 H         1 <0>         0.0595
     58 H21         0.8718  -10.9344   -2.8900 H         1 <0>         0.0618
     59 H22        -0.0167   -9.3975   -3.0259 H         1 <0>         0.1265
     60 H23        -1.5673  -11.3133   -2.7048 H         1 <0>         0.1359
     61 H24        -1.8127  -10.5393   -4.2887 H         1 <0>         0.1379
     62 H25        -0.0795  -13.1056   -6.1741 H         1 <0>         0.1367
     63 H26        -0.9627  -11.5633   -6.2708 H         1 <0>         0.1381
     64 H27         1.4733  -11.1924   -6.5003 H         1 <0>         0.1253
     65 H28         1.7474  -11.9892   -4.9320 H         1 <0>         0.0621
     66 H29        -2.8061  -12.5737   -5.1008 H         1 <0>         0.1233
     67 H30        -1.9046  -14.1049   -4.9963 H         1 <0>         0.1246
     68 H31        -2.5379  -13.3423   -3.5179 H         1 <0>         0.1243
     69 H32        -0.2036  -12.9443   -3.7940 H         1 <0>         0.4222
@<TRIPOS>BOND
     1    1    2 1
     2    1   38 1
     3    1   39 1
     4    1   40 1
     5    2    7 ar
     6    2    3 ar
     7    3    4 ar
     8    3   41 1
     9    4    5 ar
    10    4   42 1
    11    5    6 ar
    12    5   21 1
    13    6    7 ar
    14    6   43 1
    15    7    8 1
    16    8    9 1
    17    8   44 1
    18    9   14 ar
    19    9   10 ar
    20   10   11 ar
    21   11   12 ar
    22   11   45 1
    23   12   13 ar
    24   12   46 1
    25   13   14 ar
    26   13   15 1
    27   15   20 ar
    28   15   16 ar
    29   16   17 ar
    30   16   47 1
    31   17   18 ar
    32   17   48 1
    33   18   19 ar
    34   18   49 1
    35   19   20 ar
    36   20   50 1
    37   21   22 am
    38   21   51 1
    39   22   23 2
    40   22   24 1
    41   24   29 ar
    42   24   25 ar
    43   25   26 ar
    44   25   52 1
    45   26   27 ar
    46   26   53 1
    47   27   28 ar
    48   27   30 1
    49   28   29 ar
    50   28   54 1
    51   29   55 1
    52   30   31 1
    53   30   56 1
    54   30   57 1
    55   31   36 1
    56   31   32 1
    57   32   33 1
    58   32   58 1
    59   32   59 1
    60   33   34 1
    61   33   60 1
    62   33   61 1
    63   34   35 1
    64   34   37 1
    65   34   69 1
    66   35   36 1
    67   35   62 1
    68   35   63 1
    69   36   64 1
    70   36   65 1
    71   37   66 1
    72   37   67 1
    73   37   68 1
@<TRIPOS>MOLECULE
ZINC19632618
   69    73     0     0     0
SMALL
USER_CHARGES

@<TRIPOS>ATOM
      1 C1         -0.1643    1.5374    0.2772 C.3       1 <0>        -0.1179
      2 C2          0.0708    0.1281   -0.2021 C.ar      1 <0>        -0.1195
      3 C3         -0.6192   -0.3521   -1.2987 C.ar      1 <0>        -0.0803
      4 C4         -0.4070   -1.6434   -1.7410 C.ar      1 <0>        -0.1287
      5 C5          0.5017   -2.4641   -1.0837 C.ar      1 <0>         0.1452
      6 C6          1.1965   -1.9850    0.0175 C.ar      1 <0>        -0.1374
      7 C7          0.9852   -0.6852    0.4558 C.ar      1 <0>         0.1839
      8 N1          1.6874   -0.1967    1.5617 N.pl3     1 <0>        -0.6318
      9 C8          2.1285   -1.0695    2.5429 C.ar      1 <0>         0.5654
     10 N2          1.7764   -2.3456    2.4776 N.ar      1 <0>        -0.5590
     11 C9          2.1776   -3.2107    3.3953 C.ar      1 <0>         0.1907
     12 C10         2.9764   -2.7714    4.4364 C.ar      1 <0>        -0.2695
     13 C11         3.3313   -1.4207    4.4789 C.ar      1 <0>         0.2707
     14 N3          2.8950   -0.6087    3.5185 N.ar      1 <0>        -0.5571
     15 C12         4.1856   -0.9008    5.5740 C.ar      1 <0>        -0.1213
     16 C13         4.4510    0.4679    5.6793 C.ar      1 <0>        -0.0264
     17 C14         5.2541    0.9026    6.7193 C.ar      1 <0>        -0.1772
     18 C15         5.7636   -0.0222    7.6129 C.ar      1 <0>         0.1201
     19 N4          5.4957   -1.3077    7.4879 N.ar      1 <0>        -0.4842
     20 C16         4.7320   -1.7677    6.5181 C.ar      1 <0>         0.1342
     21 N5          0.7153   -3.7716   -1.5315 N.am      1 <0>        -0.6603
     22 C17         0.7404   -4.0356   -2.8529 C.2       1 <0>         0.5491
     23 O1          0.4912   -3.1555   -3.6535 O.2       1 <0>        -0.5015
     24 C18         1.0709   -5.3955   -3.3287 C.ar      1 <0>        -0.0938
     25 C19         1.3519   -6.4100   -2.4119 C.ar      1 <0>        -0.0834
     26 C20         1.6592   -7.6771   -2.8626 C.ar      1 <0>        -0.1009
     27 C21         1.6892   -7.9435   -4.2200 C.ar      1 <0>        -0.1382
     28 C22         1.4117   -6.9425   -5.1341 C.ar      1 <0>        -0.0966
     29 C23         1.0978   -5.6724   -4.6966 C.ar      1 <0>        -0.0538
     30 C24         2.0262   -9.3299   -4.7050 C.3       1 <0>         0.0425
     31 N6          0.7933  -10.1196   -4.8258 N.4       1 <0>        -0.3856
     32 C25         0.1989  -10.3052   -3.4955 C.3       1 <0>        -0.0078
     33 C26        -1.0954  -11.1117   -3.6230 C.3       1 <0>         0.0256
     34 N7         -0.7986  -12.4159   -4.2323 N.3       1 <0>        -0.5431
     35 C27        -0.1799  -12.2456   -5.5546 C.3       1 <0>         0.0239
     36 C28         1.1068  -11.4297   -5.4112 C.3       1 <0>        -0.0024
     37 C29        -2.0090  -13.2436   -4.3201 C.3       1 <0>         0.0192
     38 H1          0.5251    2.2130   -0.2290 H         1 <0>         0.0738
     39 H2         -1.1901    1.8307    0.0540 H         1 <0>         0.0752
     40 H3          0.0021    1.5877    1.3533 H         1 <0>         0.0636
     41 H4         -1.3262    0.2836   -1.8111 H         1 <0>         0.1330
     42 H5         -0.9481   -2.0158   -2.5982 H         1 <0>         0.1345
     43 H6          1.9030   -2.6209    0.5302 H         1 <0>         0.1487
     44 H7          1.8658    0.7534    1.6418 H         1 <0>         0.4265
     45 H8          1.8844   -4.2483    3.3325 H         1 <0>         0.1737
     46 H9          3.3172   -3.4566    5.1985 H         1 <0>         0.1513
     47 H10         4.0401    1.1680    4.9670 H         1 <0>         0.1465
     48 H11         5.4807    1.9525    6.8318 H         1 <0>         0.1439
     49 H12         6.3909    0.3135    8.4254 H         1 <0>         0.1636
     50 H13         4.5316   -2.8268    6.4514 H         1 <0>         0.1618
     51 H14         0.8453   -4.4884   -0.8911 H         1 <0>         0.4091
     52 H15         1.3291   -6.2032   -1.3521 H         1 <0>         0.1399
     53 H16         1.8771   -8.4627   -2.1544 H         1 <0>         0.1405
     54 H17         1.4372   -7.1570   -6.1922 H         1 <0>         0.1409
     55 H18         0.8770   -4.8931   -5.4110 H         1 <0>         0.1513
     56 H19         2.5135   -9.2661   -5.6779 H         1 <0>         0.1411
     57 H20         2.6973   -9.8107   -3.9933 H         1 <0>         0.1402
     58 H21         0.8998  -10.8418   -2.8560 H         1 <0>         0.1385
     59 H22        -0.0212   -9.3320   -3.0568 H         1 <0>         0.1352
     60 H23        -1.5289  -11.2624   -2.6343 H         1 <0>         0.1235
     61 H24        -1.8016  -10.5690   -4.2513 H         1 <0>         0.0601
     62 H25         0.0544  -13.2235   -5.9751 H         1 <0>         0.1247
     63 H26        -0.8711  -11.7216   -6.2147 H         1 <0>         0.0606
     64 H27         1.5598  -11.2902   -6.3927 H         1 <0>         0.1372
     65 H28         1.8030  -11.9606   -4.7619 H         1 <0>         0.1392
     66 H29        -2.7542  -12.7340   -4.9308 H         1 <0>         0.0396
     67 H30        -1.7610  -14.2028   -4.7745 H         1 <0>         0.0842
     68 H31        -2.4099  -13.4082   -3.3199 H         1 <0>         0.0844
     69 H32         0.1396   -9.6332   -5.4209 H         1 <0>         0.4206
@<TRIPOS>BOND
     1    1    2 1
     2    1   38 1
     3    1   39 1
     4    1   40 1
     5    2    7 ar
     6    2    3 ar
     7    3    4 ar
     8    3   41 1
     9    4    5 ar
    10    4   42 1
    11    5    6 ar
    12    5   21 1
    13    6    7 ar
    14    6   43 1
    15    7    8 1
    16    8    9 1
    17    8   44 1
    18    9   14 ar
    19    9   10 ar
    20   10   11 ar
    21   11   12 ar
    22   11   45 1
    23   12   13 ar
    24   12   46 1
    25   13   14 ar
    26   13   15 1
    27   15   20 ar
    28   15   16 ar
    29   16   17 ar
    30   16   47 1
    31   17   18 ar
    32   17   48 1
    33   18   19 ar
    34   18   49 1
    35   19   20 ar
    36   20   50 1
    37   21   22 am
    38   21   51 1
    39   22   23 2
    40   22   24 1
    41   24   29 ar
    42   24   25 ar
    43   25   26 ar
    44   25   52 1
    45   26   27 ar
    46   26   53 1
    47   27   28 ar
    48   27   30 1
    49   28   29 ar
    50   28   54 1
    51   29   55 1
    52   30   31 1
    53   30   56 1
    54   30   57 1
    55   31   36 1
    56   31   32 1
    57   31   69 1
    58   32   33 1
    59   32   58 1
    60   32   59 1
    61   33   34 1
    62   33   60 1
    63   33   61 1
    64   34   35 1
    65   34   37 1
    66   35   36 1
    67   35   62 1
    68   35   63 1
    69   36   64 1
    70   36   65 1
    71   37   66 1
    72   37   67 1
    73   37   68 1
@<TRIPOS>MOLECULE
ZINC19632618
   68    72     0     0     0
SMALL
USER_CHARGES

@<TRIPOS>ATOM
      1 C1         -0.1643    1.5374    0.2772 C.3       1 <0>        -0.1139
      2 C2          0.0708    0.1281   -0.2021 C.ar      1 <0>        -0.1276
      3 C3         -0.6192   -0.3521   -1.2987 C.ar      1 <0>        -0.0809
      4 C4         -0.4070   -1.6434   -1.7410 C.ar      1 <0>        -0.1296
      5 C5          0.5017   -2.4641   -1.0837 C.ar      1 <0>         0.1575
      6 C6          1.1965   -1.9850    0.0175 C.ar      1 <0>        -0.1408
      7 C7          0.9852   -0.6852    0.4558 C.ar      1 <0>         0.1805
      8 N1          1.6874   -0.1967    1.5617 N.pl3     1 <0>        -0.6310
      9 C8          2.1285   -1.0695    2.5429 C.ar      1 <0>         0.5658
     10 N2          1.7764   -2.3456    2.4776 N.ar      1 <0>        -0.5548
     11 C9          2.1776   -3.2107    3.3953 C.ar      1 <0>         0.1930
     12 C10         2.9764   -2.7714    4.4364 C.ar      1 <0>        -0.2707
     13 C11         3.3313   -1.4207    4.4789 C.ar      1 <0>         0.2660
     14 N3          2.8950   -0.6087    3.5185 N.ar      1 <0>        -0.5591
     15 C12         4.1856   -0.9008    5.5740 C.ar      1 <0>        -0.1161
     16 C13         4.4510    0.4679    5.6793 C.ar      1 <0>        -0.0277
     17 C14         5.2541    0.9026    6.7193 C.ar      1 <0>        -0.1780
     18 C15         5.7636   -0.0222    7.6129 C.ar      1 <0>         0.1167
     19 N4          5.4957   -1.3077    7.4879 N.ar      1 <0>        -0.4846
     20 C16         4.7320   -1.7677    6.5181 C.ar      1 <0>         0.1331
     21 N5          0.7153   -3.7716   -1.5315 N.am      1 <0>        -0.6684
     22 C17         0.7404   -4.0356   -2.8529 C.2       1 <0>         0.5607
     23 O1          0.4912   -3.1555   -3.6535 O.2       1 <0>        -0.5149
     24 C18         1.0709   -5.3955   -3.3287 C.ar      1 <0>        -0.1367
     25 C19         1.3519   -6.4100   -2.4119 C.ar      1 <0>        -0.0845
     26 C20         1.6592   -7.6771   -2.8626 C.ar      1 <0>        -0.1214
     27 C21         1.6892   -7.9435   -4.2200 C.ar      1 <0>        -0.0481
     28 C22         1.4117   -6.9425   -5.1341 C.ar      1 <0>        -0.1045
     29 C23         1.0978   -5.6724   -4.6966 C.ar      1 <0>        -0.0549
     30 C24         2.0262   -9.3299   -4.7050 C.3       1 <0>         0.0887
     31 N6          0.7933  -10.1196   -4.8258 N.3       1 <0>        -0.5346
     32 C25         0.1854  -10.3517   -3.5082 C.3       1 <0>         0.0528
     33 C26        -1.1341  -11.1069   -3.6840 C.3       1 <0>         0.0560
     34 N7         -0.8794  -12.3787   -4.3748 N.3       1 <0>        -0.5467
     35 C27        -0.2715  -12.1466   -5.6924 C.3       1 <0>         0.0557
     36 C28         1.0481  -11.3914   -5.5165 C.3       1 <0>         0.0569
     37 C29        -2.1122  -13.1683   -4.4955 C.3       1 <0>         0.0243
     38 H1          0.5251    2.2130   -0.2290 H         1 <0>         0.0707
     39 H2         -1.1901    1.8307    0.0540 H         1 <0>         0.0727
     40 H3          0.0021    1.5877    1.3533 H         1 <0>         0.0612
     41 H4         -1.3262    0.2836   -1.8111 H         1 <0>         0.1306
     42 H5         -0.9481   -2.0158   -2.5982 H         1 <0>         0.1361
     43 H6          1.9030   -2.6209    0.5302 H         1 <0>         0.1478
     44 H7          1.8658    0.7534    1.6418 H         1 <0>         0.4247
     45 H8          1.8844   -4.2483    3.3325 H         1 <0>         0.1749
     46 H9          3.3172   -3.4566    5.1985 H         1 <0>         0.1504
     47 H10         4.0401    1.1680    4.9670 H         1 <0>         0.1465
     48 H11         5.4807    1.9525    6.8318 H         1 <0>         0.1424
     49 H12         6.3909    0.3135    8.4254 H         1 <0>         0.1620
     50 H13         4.5316   -2.8268    6.4514 H         1 <0>         0.1624
     51 H14         0.8453   -4.4884   -0.8911 H         1 <0>         0.4098
     52 H15         1.3291   -6.2032   -1.3521 H         1 <0>         0.1256
     53 H16         1.8771   -8.4627   -2.1544 H         1 <0>         0.1277
     54 H17         1.4372   -7.1570   -6.1922 H         1 <0>         0.1323
     55 H18         0.8770   -4.8931   -5.4110 H         1 <0>         0.1380
     56 H19         2.5135   -9.2661   -5.6779 H         1 <0>         0.0885
     57 H20         2.6973   -9.8107   -3.9933 H         1 <0>         0.0490
     58 H21         0.8640  -10.9435   -2.8938 H         1 <0>         0.0436
     59 H22        -0.0051   -9.3950   -3.0219 H         1 <0>         0.0840
     60 H23        -1.5725  -11.3056   -2.7060 H         1 <0>         0.0799
     61 H24        -1.8225  -10.5033   -4.2756 H         1 <0>         0.0432
     62 H25        -0.0810  -13.1033   -6.1787 H         1 <0>         0.0811
     63 H26        -0.9501  -11.5548   -6.3068 H         1 <0>         0.0437
     64 H27         1.4864  -11.1926   -6.4945 H         1 <0>         0.0821
     65 H28         1.7364  -11.9950   -4.9250 H         1 <0>         0.0450
     66 H29        -2.8511  -12.6037   -5.0641 H         1 <0>         0.0271
     67 H30        -1.8953  -14.1043   -5.0104 H         1 <0>         0.0693
     68 H31        -2.5051  -13.3830   -3.5017 H         1 <0>         0.0693
@<TRIPOS>BOND
     1    1    2 1
     2    1   38 1
     3    1   39 1
     4    1   40 1
     5    2    7 ar
     6    2    3 ar
     7    3    4 ar
     8    3   41 1
     9    4    5 ar
    10    4   42 1
    11    5    6 ar
    12    5   21 1
    13    6    7 ar
    14    6   43 1
    15    7    8 1
    16    8    9 1
    17    8   44 1
    18    9   14 ar
    19    9   10 ar
    20   10   11 ar
    21   11   12 ar
    22   11   45 1
    23   12   13 ar
    24   12   46 1
    25   13   14 ar
    26   13   15 1
    27   15   20 ar
    28   15   16 ar
    29   16   17 ar
    30   16   47 1
    31   17   18 ar
    32   17   48 1
    33   18   19 ar
    34   18   49 1
    35   19   20 ar
    36   20   50 1
    37   21   22 am
    38   21   51 1
    39   22   23 2
    40   22   24 1
    41   24   29 ar
    42   24   25 ar
    43   25   26 ar
    44   25   52 1
    45   26   27 ar
    46   26   53 1
    47   27   28 ar
    48   27   30 1
    49   28   29 ar
    50   28   54 1
    51   29   55 1
    52   30   31 1
    53   30   56 1
    54   30   57 1
    55   31   36 1
    56   31   32 1
    57   32   33 1
    58   32   58 1
    59   32   59 1
    60   33   34 1
    61   33   60 1
    62   33   61 1
    63   34   35 1
    64   34   37 1
    65   35   36 1
    66   35   62 1
    67   35   63 1
    68   36   64 1
    69   36   65 1
    70   37   66 1
    71   37   67 1
    72   37   68 1
@<TRIPOS>MOLECULE
ZINC01530850
   57    61     0     0     0
SMALL
USER_CHARGES
3,5,7-trihydroxy-2-[8-(4-hydroxy-3-methoxy-phenyl)-9-(hydroxymethyl)-7,10-dioxabicyclo[4.4.0]deca-2,4,11-trien-4-yl]-chroman-4-one
@<TRIPOS>ATOM
      1 C1         -7.9774    3.9194    2.6408 C.3       1 <0>         0.0225
      2 O1         -8.0994    4.6500    1.4187 O.3       1 <0>        -0.3040
      3 C2         -7.0353    4.6195    0.5723 C.ar      1 <0>         0.1059
      4 C3         -5.8991    3.9022    0.9109 C.ar      1 <0>        -0.1804
      5 C4         -4.8186    3.8719    0.0492 C.ar      1 <0>        -0.0627
      6 C5         -4.8661    4.5608   -1.1485 C.ar      1 <0>        -0.1081
      7 C6         -5.9987    5.2737   -1.4949 C.ar      1 <0>        -0.1041
      8 C7         -7.0853    5.3082   -0.6358 C.ar      1 <0>         0.0884
      9 O2         -8.1980    6.0140   -0.9723 O.3       1 <0>        -0.4850
     10 C8         -3.5837    3.0913    0.4191 C.3       1 <0>         0.1075
     11 H1         -3.5697    2.9135    1.4944 H         1 <0>         0.0963
     12 C9         -3.5752    1.7504   -0.3273 C.3       1 <0>         0.0636
     13 H2         -3.5832    1.9282   -1.4027 H         1 <0>         0.0968
     14 O3         -2.3848    1.0427    0.0362 O.3       1 <0>        -0.2904
     15 C10        -1.2234    1.7522    0.0174 C.ar      1 <0>         0.0642
     16 C11        -0.0126    1.0758    0.0080 C.ar      1 <0>        -0.1130
     17 C12         1.1751    1.7823    0.0004 C.ar      1 <0>        -0.0849
     18 C13         1.1599    3.1648    0.0079 C.ar      1 <0>        -0.0856
     19 C14        -0.0431    3.8448    0.0214 C.ar      1 <0>        -0.0735
     20 C15        -1.2388    3.1418    0.0276 C.ar      1 <0>         0.0471
     21 O4         -2.4157    3.8254    0.0359 O.3       1 <0>        -0.2911
     22 C16         2.4573    3.9314    0.0018 C.3       1 <0>         0.1564
     23 H3          2.3004    4.9154    0.4435 H         1 <0>         0.0995
     24 C17         2.9514    4.0911   -1.4434 C.3       1 <0>         0.0553
     25 H4          3.0700    3.1883   -1.8568 H         1 <0>         0.0940
     26 C18         4.2727    4.8367   -1.3865 C.2       1 <0>         0.3737
     27 O5          4.5558    5.6957   -2.1959 O.2       1 <0>        -0.4202
     28 C19         5.1894    4.4660   -0.3029 C.ar      1 <0>        -0.2943
     29 C20         6.5227    4.9054   -0.3108 C.ar      1 <0>         0.2247
     30 C21         7.3632    4.5510    0.7292 C.ar      1 <0>        -0.2183
     31 C22         6.8876    3.7641    1.7712 C.ar      1 <0>         0.2005
     32 C23         5.5711    3.3219    1.7817 C.ar      1 <0>        -0.1972
     33 C24         4.7139    3.6628    0.7501 C.ar      1 <0>         0.2104
     34 O6          3.4351    3.2190    0.7595 O.3       1 <0>        -0.2875
     35 O7          7.7182    3.4238    2.7886 O.3       1 <0>        -0.4893
     36 O8          6.9835    5.6712   -1.3308 O.3       1 <0>        -0.4788
     37 O9          2.0014    4.8418   -2.2023 O.3       1 <0>        -0.5331
     38 C25        -4.8050    0.9312    0.0693 C.3       1 <0>         0.0867
     39 O10        -4.8543   -0.2634   -0.7132 O.3       1 <0>        -0.5611
     40 H5         -7.8098    2.8655    2.4188 H         1 <0>         0.0563
     41 H6         -7.1359    4.3083    3.2141 H         1 <0>         0.0573
     42 H7         -8.8935    4.0272    3.2215 H         1 <0>         0.1048
     43 H8         -5.8579    3.3665    1.8478 H         1 <0>         0.1365
     44 H9         -4.0180    4.5386   -1.8169 H         1 <0>         0.1355
     45 H10        -6.0349    5.8076   -2.4330 H         1 <0>         0.1428
     46 H11        -8.1849    6.9341   -0.6753 H         1 <0>         0.3910
     47 H12         0.0021   -0.0041    0.0020 H         1 <0>         0.1406
     48 H13         2.1168    1.2537   -0.0110 H         1 <0>         0.1388
     49 H14        -0.0522    4.9248    0.0267 H         1 <0>         0.1404
     50 H15         8.3897    4.8866    0.7316 H         1 <0>         0.1476
     51 H16         5.2152    2.7099    2.5972 H         1 <0>         0.1514
     52 H17         7.7185    4.0527    3.5232 H         1 <0>         0.4038
     53 H18         6.8797    6.6218   -1.1869 H         1 <0>         0.4044
     54 H19         2.2549    4.9781   -3.1254 H         1 <0>         0.3957
     55 H20        -4.7430    0.6711    1.1260 H         1 <0>         0.0601
     56 H21        -5.7057    1.5190   -0.1079 H         1 <0>         0.0750
     57 H22        -5.6102   -0.8328   -0.5147 H         1 <0>         0.3867
@<TRIPOS>BOND
     1    1    2 1
     2    1   40 1
     3    1   41 1
     4    1   42 1
     5    2    3 1
     6    3    8 ar
     7    3    4 ar
     8    4    5 ar
     9    4   43 1
    10    5    6 ar
    11    5   10 1
    12    6    7 ar
    13    6   44 1
    14    7    8 ar
    15    7   45 1
    16    8    9 1
    17    9   46 1
    18   10   11 1
    19   10   21 1
    20   10   12 1
    21   12   13 1
    22   12   14 1
    23   12   38 1
    24   14   15 1
    25   15   20 ar
    26   15   16 ar
    27   16   17 ar
    28   16   47 1
    29   17   18 ar
    30   17   48 1
    31   18   19 ar
    32   18   22 1
    33   19   20 ar
    34   19   49 1
    35   20   21 1
    36   22   23 1
    37   22   34 1
    38   22   24 1
    39   24   25 1
    40   24   26 1
    41   24   37 1
    42   26   27 2
    43   26   28 1
    44   28   33 ar
    45   28   29 ar
    46   29   30 ar
    47   29   36 1
    48   30   31 ar
    49   30   50 1
    50   31   32 ar
    51   31   35 1
    52   32   33 ar
    53   32   51 1
    54   33   34 1
    55   35   52 1
    56   36   53 1
    57   37   54 1
    58   38   39 1
    59   38   55 1
    60   38   56 1
    61   39   57 1
@<TRIPOS>MOLECULE
ZINC02033588
   57    61     0     0     0
SMALL
USER_CHARGES
3,5,7-trihydroxy-2-[8-(4-hydroxy-3-methoxy-phenyl)-9-(hydroxymethyl)-7,10-dioxabicyclo[4.4.0]deca-2,4,11-trien-4-yl]-chroman-4-one
@<TRIPOS>ATOM
      1 C1          6.8028    4.0795    9.0138 C.3       1 <0>         0.0222
      2 O1          5.4817    4.2482    9.5317 O.3       1 <0>        -0.3041
      3 C2          4.4595    3.7377    8.7942 C.ar      1 <0>         0.1072
      4 C3          4.7230    3.0846    7.6008 C.ar      1 <0>        -0.1760
      5 C4          3.6823    2.5709    6.8497 C.ar      1 <0>        -0.0623
      6 C5          2.3784    2.6978    7.2915 C.ar      1 <0>        -0.1146
      7 C6          2.1091    3.3440    8.4835 C.ar      1 <0>        -0.1058
      8 C7          3.1471    3.8658    9.2386 C.ar      1 <0>         0.0885
      9 O2          2.8838    4.5022   10.4113 O.3       1 <0>        -0.4845
     10 C8          3.9702    1.8655    5.5495 C.3       1 <0>         0.1076
     11 H1          4.9506    2.1638    5.1780 H         1 <0>         0.1019
     12 C9          3.9393    0.3466    5.7667 C.3       1 <0>         0.0641
     13 H2          4.7028    0.0626    6.4909 H         1 <0>         0.1377
     14 O3          4.2026   -0.2913    4.5123 O.3       1 <0>        -0.2864
     15 C10         3.5252    0.1822    3.4309 C.ar      1 <0>         0.0643
     16 C11         3.4524   -0.5903    2.2813 C.ar      1 <0>        -0.1134
     17 C12         2.7721   -0.1211    1.1737 C.ar      1 <0>        -0.0852
     18 C13         2.1629    1.1195    1.2080 C.ar      1 <0>        -0.0851
     19 C14         2.2352    1.8961    2.3488 C.ar      1 <0>        -0.0741
     20 C15         2.9107    1.4282    3.4662 C.ar      1 <0>         0.0469
     21 O4          2.9661    2.2007    4.5855 O.3       1 <0>        -0.2935
     22 C16         1.4239    1.6284   -0.0028 C.3       1 <0>         0.1553
     23 H3          1.4014    2.7180    0.0161 H         1 <0>         0.0996
     24 C17        -0.0127    1.0858    0.0080 C.3       1 <0>         0.0559
     25 H4          0.0087    0.0861    0.0160 H         1 <0>         0.0938
     26 C18        -0.6964    1.6005   -1.2460 C.2       1 <0>         0.3691
     27 O5         -1.8484    1.9825   -1.2335 O.2       1 <0>        -0.4137
     28 C19         0.1063    1.6115   -2.4739 C.ar      1 <0>        -0.2928
     29 C20        -0.4975    1.8282   -3.7226 C.ar      1 <0>         0.2236
     30 C21         0.2847    1.8487   -4.8633 C.ar      1 <0>        -0.2176
     31 C22         1.6574    1.6537   -4.7697 C.ar      1 <0>         0.2003
     32 C23         2.2596    1.4340   -3.5376 C.ar      1 <0>        -0.1979
     33 C24         1.4957    1.4072   -2.3841 C.ar      1 <0>         0.2100
     34 O6          2.0871    1.1854   -1.1867 O.3       1 <0>        -0.2881
     35 O7          2.4173    1.6785   -5.8934 O.3       1 <0>        -0.4895
     36 O8         -1.8378    2.0151   -3.8100 O.3       1 <0>        -0.4752
     37 O9         -0.7019    1.5565    1.1680 O.3       1 <0>        -0.5329
     38 C25         2.5603   -0.0733    6.2796 C.3       1 <0>         0.0481
     39 O10         2.5639   -1.4737    6.5640 O.3       1 <0>        -0.5611
     40 H5          7.5216    4.5314    9.6974 H         1 <0>         0.1049
     41 H6          7.0192    3.0163    8.9097 H         1 <0>         0.0574
     42 H7          6.8753    4.5622    8.0392 H         1 <0>         0.0579
     43 H8          5.7409    2.9805    7.2554 H         1 <0>         0.1379
     44 H9          1.5685    2.2915    6.7039 H         1 <0>         0.1353
     45 H10         1.0897    3.4418    8.8264 H         1 <0>         0.1425
     46 H11         2.8789    3.9192   11.1827 H         1 <0>         0.3905
     47 H12         3.9282   -1.5594    2.2515 H         1 <0>         0.1401
     48 H13         2.7166   -0.7244    0.2796 H         1 <0>         0.1380
     49 H14         1.7621    2.8667    2.3716 H         1 <0>         0.1403
     50 H15        -0.1718    2.0162   -5.8276 H         1 <0>         0.1476
     51 H16         3.3275    1.2831   -3.4796 H         1 <0>         0.1514
     52 H17         2.5209    0.8156   -6.3173 H         1 <0>         0.4038
     53 H18        -2.3418    1.1987   -3.9300 H         1 <0>         0.4008
     54 H19        -1.6212    1.2622    1.2257 H         1 <0>         0.3948
     55 H20         2.3262    0.4814    7.1882 H         1 <0>         0.0742
     56 H21         1.8092    0.1412    5.5194 H         1 <0>         0.0561
     57 H22         1.7196   -1.8102    6.8942 H         1 <0>         0.3843
@<TRIPOS>BOND
     1    1    2 1
     2    1   40 1
     3    1   41 1
     4    1   42 1
     5    2    3 1
     6    3    8 ar
     7    3    4 ar
     8    4    5 ar
     9    4   43 1
    10    5    6 ar
    11    5   10 1
    12    6    7 ar
    13    6   44 1
    14    7    8 ar
    15    7   45 1
    16    8    9 1
    17    9   46 1
    18   10   11 1
    19   10   21 1
    20   10   12 1
    21   12   13 1
    22   12   14 1
    23   12   38 1
    24   14   15 1
    25   15   20 ar
    26   15   16 ar
    27   16   17 ar
    28   16   47 1
    29   17   18 ar
    30   17   48 1
    31   18   19 ar
    32   18   22 1
    33   19   20 ar
    34   19   49 1
    35   20   21 1
    36   22   23 1
    37   22   34 1
    38   22   24 1
    39   24   25 1
    40   24   26 1
    41   24   37 1
    42   26   27 2
    43   26   28 1
    44   28   33 ar
    45   28   29 ar
    46   29   30 ar
    47   29   36 1
    48   30   31 ar
    49   30   50 1
    50   31   32 ar
    51   31   35 1
    52   32   33 ar
    53   32   51 1
    54   33   34 1
    55   35   52 1
    56   36   53 1
    57   37   54 1
    58   38   39 1
    59   38   55 1
    60   38   56 1
    61   39   57 1
@<TRIPOS>MOLECULE
ZINC02033589
   57    61     0     0     0
SMALL
USER_CHARGES

@<TRIPOS>ATOM
      1 C1         -0.0173    1.4248    0.0099 C.3       1 <0>         0.0225
      2 O1          0.0021   -0.0041    0.0020 O.3       1 <0>        -0.3038
      3 C2          0.6062   -0.6075   -1.0564 C.ar      1 <0>         0.1065
      4 C3          1.1729    0.1590   -2.0621 C.ar      1 <0>        -0.1822
      5 C4          1.7870   -0.4560   -3.1371 C.ar      1 <0>        -0.0620
      6 C5          1.8372   -1.8356   -3.2121 C.ar      1 <0>        -0.1086
      7 C6          1.2734   -2.6062   -2.2124 C.ar      1 <0>        -0.1040
      8 C7          0.6617   -1.9961   -1.1290 C.ar      1 <0>         0.0878
      9 O2          0.1119   -2.7526   -0.1417 O.3       1 <0>        -0.4845
     10 C8          2.4028    0.3792   -4.2300 C.3       1 <0>         0.1075
     11 H1          2.6720    1.3592   -3.8361 H         1 <0>         0.0970
     12 C9          1.4028    0.5417   -5.3828 C.3       1 <0>         0.0640
     13 H2          1.1374   -0.4380   -5.7801 H         1 <0>         0.0968
     14 O3          2.0234    1.3263   -6.4071 O.3       1 <0>        -0.2907
     15 C10         3.2959    0.9871   -6.7507 C.ar      1 <0>         0.0642
     16 C11         3.8219    1.4437   -7.9501 C.ar      1 <0>        -0.1132
     17 C12         5.1136    1.1104   -8.3112 C.ar      1 <0>        -0.0849
     18 C13         5.8848    0.3211   -7.4784 C.ar      1 <0>        -0.0844
     19 C14         5.3663   -0.1384   -6.2826 C.ar      1 <0>        -0.0740
     20 C15         4.0700    0.1907   -5.9152 C.ar      1 <0>         0.0473
     21 O4          3.5710   -0.2748   -4.7373 O.3       1 <0>        -0.2911
     22 C16         7.2932   -0.0392   -7.8755 C.3       1 <0>         0.1588
     23 H3          7.5838   -0.9673   -7.3832 H         1 <0>         0.0991
     24 C17         8.2487    1.0861   -7.4527 C.3       1 <0>         0.0431
     25 H4          7.9559    2.0208   -7.9310 H         1 <0>         0.1058
     26 C18         9.6414    0.6873   -7.9067 C.2       1 <0>         0.3741
     27 O5         10.6187    0.8832   -7.2141 O.2       1 <0>        -0.4215
     28 C19         9.7454    0.0524   -9.2252 C.ar      1 <0>        -0.2941
     29 C20        10.9953   -0.1195   -9.8408 C.ar      1 <0>         0.2243
     30 C21        11.0664   -0.7321  -11.0791 C.ar      1 <0>        -0.2184
     31 C22         9.9065   -1.1704  -11.7065 C.ar      1 <0>         0.2003
     32 C23         8.6667   -0.9978  -11.1048 C.ar      1 <0>        -0.1973
     33 C24         8.5725   -0.3856   -9.8674 C.ar      1 <0>         0.2104
     34 O6          7.3601   -0.2098   -9.2911 O.3       1 <0>        -0.2876
     35 O7          9.9860   -1.7729  -12.9195 O.3       1 <0>        -0.4894
     36 O8         12.1246    0.3121   -9.2263 O.3       1 <0>        -0.4789
     37 O9          8.2233    1.2380   -6.0320 O.3       1 <0>        -0.5314
     38 C25         0.1450    1.2519   -4.8784 C.3       1 <0>         0.0859
     39 O10        -0.8281    1.2970   -5.9239 O.3       1 <0>        -0.5609
     40 H5          1.0053    1.8021    0.0021 H         1 <0>         0.0579
     41 H6         -0.5445    1.7859   -0.8732 H         1 <0>         0.0557
     42 H7         -0.5275    1.7763    0.9067 H         1 <0>         0.1049
     43 H8          1.1344    1.2368   -2.0063 H         1 <0>         0.1363
     44 H9          2.3175   -2.3124   -4.0537 H         1 <0>         0.1363
     45 H10         1.3136   -3.6837   -2.2735 H         1 <0>         0.1427
     46 H11        -0.8162   -2.9794   -0.2906 H         1 <0>         0.3903
     47 H12         3.2213    2.0599   -8.6027 H         1 <0>         0.1405
     48 H13         5.5211    1.4669   -9.2457 H         1 <0>         0.1390
     49 H14         5.9709   -0.7547   -5.6338 H         1 <0>         0.1403
     50 H15        12.0242   -0.8694  -11.5588 H         1 <0>         0.1474
     51 H16         7.7733   -1.3421  -11.6045 H         1 <0>         0.1514
     52 H17        10.0920   -2.7330  -12.8756 H         1 <0>         0.4038
     53 H18        12.5380   -0.3487   -8.6541 H         1 <0>         0.4043
     54 H19         8.8065    1.9343   -5.7004 H         1 <0>         0.3950
     55 H20        -0.2624    0.7080   -4.0262 H         1 <0>         0.0750
     56 H21         0.3984    2.2673   -4.5739 H         1 <0>         0.0602
     57 H22        -1.6536    1.7345   -5.6743 H         1 <0>         0.3864
@<TRIPOS>BOND
     1    1    2 1
     2    1   40 1
     3    1   41 1
     4    1   42 1
     5    2    3 1
     6    3    8 ar
     7    3    4 ar
     8    4    5 ar
     9    4   43 1
    10    5    6 ar
    11    5   10 1
    12    6    7 ar
    13    6   44 1
    14    7    8 ar
    15    7   45 1
    16    8    9 1
    17    9   46 1
    18   10   11 1
    19   10   21 1
    20   10   12 1
    21   12   13 1
    22   12   14 1
    23   12   38 1
    24   14   15 1
    25   15   20 ar
    26   15   16 ar
    27   16   17 ar
    28   16   47 1
    29   17   18 ar
    30   17   48 1
    31   18   19 ar
    32   18   22 1
    33   19   20 ar
    34   19   49 1
    35   20   21 1
    36   22   23 1
    37   22   34 1
    38   22   24 1
    39   24   25 1
    40   24   26 1
    41   24   37 1
    42   26   27 2
    43   26   28 1
    44   28   33 ar
    45   28   29 ar
    46   29   30 ar
    47   29   36 1
    48   30   31 ar
    49   30   50 1
    50   31   32 ar
    51   31   35 1
    52   32   33 ar
    53   32   51 1
    54   33   34 1
    55   35   52 1
    56   36   53 1
    57   37   54 1
    58   38   39 1
    59   38   55 1
    60   38   56 1
    61   39   57 1
@<TRIPOS>MOLECULE
ZINC25995973
   57    61     0     0     0
SMALL
USER_CHARGES
(2R,3R)-3,5,7-trihydroxy-2-[(2S,3R)-3-(4-hydroxy-3-methoxy-phenyl)-2-(hydroxymethyl)-2,3-dihydro-1,4-benzodioxin-6-yl]chroman-4-one
@<TRIPOS>ATOM
      1 C1         -7.9682    3.5929    5.8719 C.3       1 <0>         0.0204
      2 O1         -8.2741    4.6102    4.9161 O.3       1 <0>        -0.3039
      3 C2         -7.2505    5.0552    4.1390 C.ar      1 <0>         0.0921
      4 C3         -5.9800    4.5243    4.2934 C.ar      1 <0>        -0.1516
      5 C4         -4.9405    4.9781    3.5030 C.ar      1 <0>        -0.0984
      6 C5         -5.1642    5.9653    2.5613 C.ar      1 <0>        -0.0864
      7 C6         -6.4305    6.4955    2.3986 C.ar      1 <0>        -0.1806
      8 C7         -7.4767    6.0451    3.1875 C.ar      1 <0>         0.1425
      9 O2         -8.7221    6.5690    3.0320 O.3       1 <0>        -0.4972
     10 C8         -3.5592    4.3999    3.6726 C.3       1 <0>         0.1145
     11 H1         -3.6350    3.3623    4.0298 H         1 <0>         0.1014
     12 C9         -2.7391    5.2877    4.6184 C.3       1 <0>         0.0662
     13 H2         -3.1686    5.3202    5.6306 H         1 <0>         0.1371
     14 O3         -1.4315    4.7187    4.7457 O.3       1 <0>        -0.2902
     15 C10        -0.8186    4.3310    3.5940 C.ar      1 <0>         0.0622
     16 C11         0.5516    4.1158    3.5910 C.ar      1 <0>        -0.1144
     17 C12         1.1864    3.7112    2.4320 C.ar      1 <0>        -0.0870
     18 C13         0.4594    3.5295    1.2702 C.ar      1 <0>        -0.0823
     19 C14        -0.9060    3.7431    1.2661 C.ar      1 <0>        -0.0760
     20 C15        -1.5498    4.1458    2.4268 C.ar      1 <0>         0.0480
     21 O4         -2.8938    4.3596    2.4056 O.3       1 <0>        -0.2983
     22 C16         1.1561    3.0919    0.0076 C.3       1 <0>         0.1612
     23 H3          0.6158    3.4652   -0.8748 H         1 <0>         0.0977
     24 C17         1.2864    1.5618   -0.0018 C.3       1 <0>         0.0556
     25 H4          1.7823    1.1668    0.8971 H         1 <0>         0.1018
     26 C18         2.0223    1.1817   -1.2742 C.2       1 <0>         0.3772
     27 O5          1.7022    0.2125   -1.9311 O.2       1 <0>        -0.4257
     28 C19         3.1404    2.0456   -1.6688 C.ar      1 <0>        -0.3360
     29 C20         4.0330    1.6466   -2.6762 C.ar      1 <0>         0.2898
     30 C21         5.0695    2.4873   -3.0403 C.ar      1 <0>        -0.3066
     31 C22         5.2241    3.7156   -2.4089 C.ar      1 <0>         0.2669
     32 C23         4.3475    4.1131   -1.4077 C.ar      1 <0>        -0.2972
     33 C24         3.3046    3.2870   -1.0270 C.ar      1 <0>         0.2528
     34 O6          2.4570    3.6769   -0.0460 O.3       1 <0>        -0.2934
     35 O7          6.2416    4.5350   -2.7746 O.3       1 <0>        -0.4969
     36 O8          3.8804    0.4459   -3.2878 O.3       1 <0>        -0.4744
     37 O9         -0.0110    0.9628    0.0073 O.3       1 <0>        -0.5711
     38 C25        -2.6333    6.6996    4.0387 C.3       1 <0>         0.0620
     39 O10        -1.9450    7.5439    4.9636 O.3       1 <0>        -0.5907
     40 H5         -8.8789    3.3272    6.4288 H         1 <0>         0.1045
     41 H6         -7.2057    3.9650    6.5720 H         1 <0>         0.0566
     42 H7         -7.5846    2.7035    5.3506 H         1 <0>         0.0567
     43 H8         -5.8018    3.7557    5.0309 H         1 <0>         0.1387
     44 H9         -4.3486    6.3201    1.9486 H         1 <0>         0.1317
     45 H10        -6.6034    7.2636    1.6594 H         1 <0>         0.1389
     46 H11        -8.8996    7.3515    2.2795 H         1 <0>         0.4344
     47 H12         1.1224    4.2605    4.4964 H         1 <0>         0.1387
     48 H13         2.2528    3.5405    2.4329 H         1 <0>         0.1371
     49 H14        -1.4722    3.5966    0.3582 H         1 <0>         0.1386
     50 H15         5.7593    2.1887   -3.8157 H         1 <0>         0.1421
     51 H16         4.4799    5.0701   -0.9249 H         1 <0>         0.1451
     52 H17         6.3692    5.5085   -2.2786 H         1 <0>         0.4452
     53 H18         4.5822    0.1373   -4.0767 H         1 <0>         0.4414
     54 H19        -0.1111   -0.1326    0.0024 H         1 <0>         0.4259
     55 H20        -2.0779    6.6657    3.0898 H         1 <0>         0.0512
     56 H21        -3.6424    7.0987    3.8588 H         1 <0>         0.0686
     57 H22        -1.7724    8.6023    4.7188 H         1 <0>         0.4135
@<TRIPOS>BOND
     1    1    2 1
     2    1   40 1
     3    1   41 1
     4    1   42 1
     5    2    3 1
     6    3    8 ar
     7    3    4 ar
     8    4    5 ar
     9    4   43 1
    10    5    6 ar
    11    5   10 1
    12    6    7 ar
    13    6   44 1
    14    7    8 ar
    15    7   45 1
    16    8    9 1
    17    9   46 1
    18   10   11 1
    19   10   21 1
    20   10   12 1
    21   12   13 1
    22   12   14 1
    23   12   38 1
    24   14   15 1
    25   15   20 ar
    26   15   16 ar
    27   16   17 ar
    28   16   47 1
    29   17   18 ar
    30   17   48 1
    31   18   19 ar
    32   18   22 1
    33   19   20 ar
    34   19   49 1
    35   20   21 1
    36   22   23 1
    37   22   34 1
    38   22   24 1
    39   24   25 1
    40   24   26 1
    41   24   37 1
    42   26   27 2
    43   26   28 1
    44   28   33 ar
    45   28   29 ar
    46   29   30 ar
    47   29   36 1
    48   30   31 ar
    49   30   50 1
    50   31   32 ar
    51   31   35 1
    52   32   33 ar
    53   32   51 1
    54   33   34 1
    55   35   52 1
    56   36   53 1
    57   37   54 1
    58   38   39 1
    59   38   55 1
    60   38   56 1
    61   39   57 1
