@<TRIPOS>MOLECULE
ZINC03813042
   19    19     0     0     0
SMALL
USER_CHARGES

@<TRIPOS>ATOM
      1 C1         -0.0184    1.5028    0.0103 C.3       1 <0>        -0.1669
      2 C2          0.0021   -0.0041    0.0020 C.2       1 <0>         0.5048
      3 O1          1.0605   -0.5961   -0.0113 O.2       1 <0>        -0.4597
      4 N1         -1.1558   -0.6938    0.0094 N.am      1 <0>        -0.6127
      5 C3         -1.1370   -2.0844    0.0017 C.2       1 <0>         0.2593
      6 N2         -0.1026   -2.9019   -0.0067 N.2       1 <0>        -0.3105
      7 N3         -0.2439   -4.1575   -0.0130 N.2       1 <0>        -0.1075
      8 C4         -1.4599   -4.6659   -0.0111 C.2       1 <0>        -0.5832
      9 S1         -2.4308   -3.1653    0.0083 S.3       1 <0>         0.2359
     10 S2         -1.9811   -6.3490   -0.0183 S.o2      1 <0>         2.7480
     11 O2         -1.9574   -6.7873    1.3333 O.2       1 <0>        -0.9356
     12 O3         -3.1545   -6.4075   -0.8177 O.2       1 <0>        -0.9350
     13 N4         -0.8199   -7.2178   -0.8179 N.pl3     1 <0>        -1.2313
     14 H1          1.0042    1.8801    0.0026 H         1 <0>         0.1076
     15 H2         -0.5455    1.8639   -0.8728 H         1 <0>         0.1002
     16 H3         -0.5286    1.8543    0.9071 H         1 <0>         0.1002
     17 H4         -2.0023   -0.2203    0.0200 H         1 <0>         0.4348
     18 H5         -0.6611   -8.1456   -0.5837 H         1 <0>         0.4284
     19 H6         -0.2986   -6.7988   -1.5204 H         1 <0>         0.4232
@<TRIPOS>BOND
     1    1    2 1
     2    1   14 1
     3    1   15 1
     4    1   16 1
     5    2    3 2
     6    2    4 am
     7    4    5 1
     8    4   17 1
     9    5    9 1
    10    5    6 2
    11    6    7 1
    12    7    8 2
    13    8    9 1
    14    8   10 1
    15   10   11 2
    16   10   12 2
    17   10   13 1
    18   13   18 1
    19   13   19 1
@<TRIPOS>MOLECULE
ZINC03813042
   18    18     0     0     0
SMALL
USER_CHARGES

@<TRIPOS>ATOM
      1 C1         -0.0184    1.5028    0.0103 C.3       1 <0>        -0.1624
      2 C2          0.0021   -0.0041    0.0020 C.2       1 <0>         0.5010
      3 O1          0.0203   -0.6161    1.0490 O.2       1 <0>        -0.4698
      4 N1          0.0001   -0.6716   -1.1688 N.am      1 <0>        -0.6150
      5 C3          0.0189   -2.0622   -1.1765 C.2       1 <0>         0.2229
      6 N2          0.0342   -2.8992   -0.1578 N.2       1 <0>        -0.3133
      7 N3          0.0506   -4.1518   -0.3231 N.2       1 <0>        -0.1306
      8 C4          0.0525   -4.6369   -1.5486 C.2       1 <0>        -0.4261
      9 S1          0.0209   -3.1183   -2.4906 S.3       1 <0>         0.1375
     10 S2          0.0731   -6.3097   -2.1017 S.o2      1 <0>         2.6009
     11 O2         -1.2748   -6.7592   -2.0864 O.2       1 <0>        -1.0365
     12 O3          0.8728   -6.3393   -3.2760 O.2       1 <0>        -1.0415
     13 N4          0.8799   -7.1939   -0.9573 N.2       1 <0>        -1.3126
     14 H1          1.0042    1.8801    0.0026 H         1 <0>         0.1013
     15 H2         -0.5455    1.8639   -0.8728 H         1 <0>         0.0851
     16 H3         -0.5286    1.8543    0.9071 H         1 <0>         0.1022
     17 H4         -0.0145   -0.1822   -2.0061 H         1 <0>         0.4269
     18 H5          0.9999   -8.1489   -1.0779 H         1 <0>         0.3298
@<TRIPOS>BOND
     1    1    2 1
     2    1   14 1
     3    1   15 1
     4    1   16 1
     5    2    3 2
     6    2    4 am
     7    4    5 1
     8    4   17 1
     9    5    9 1
    10    5    6 2
    11    6    7 1
    12    7    8 2
    13    8    9 1
    14    8   10 1
    15   10   11 2
    16   10   12 2
    17   10   13 1
    18   13   18 1
@<TRIPOS>MOLECULE
ZINC01530804
   42    44     0     0     0
SMALL
USER_CHARGES

@<TRIPOS>ATOM
      1 C1         -0.1414    1.1782    1.1025 C.3       1 <0>        -0.1657
      2 C2         -0.0047   -0.3406    0.9788 C.3       1 <0>         0.2393
      3 O1          0.4336   -0.6809   -0.3520 O.3       1 <0>        -0.3486
      4 C3          1.8586   -0.8253   -0.2194 C.3       1 <0>         0.0180
      5 H1          2.3279    0.1582   -0.1959 H         1 <0>         0.0955
      6 C4          2.4671   -1.6561   -1.3282 C.3       1 <0>         0.0615
      7 O2          1.9135   -2.9701   -1.3154 O.3       1 <0>        -0.3068
      8 C5          2.1315   -3.6952   -0.1268 C.3       1 <0>         0.2582
      9 C6          1.5886   -2.9749    1.1170 C.3       1 <0>         0.0223
     10 H2          0.5124   -3.1112    1.2238 H         1 <0>         0.1391
     11 C7          1.9968   -1.5000    1.1552 C.3       1 <0>         0.0492
     12 H3          2.9929   -1.3657    1.5768 H         1 <0>         0.1317
     13 O3          0.9684   -0.8158    1.9209 O.3       1 <0>        -0.3662
     14 O4          2.3254   -3.6306    2.1835 O.3       1 <0>        -0.3622
     15 C8          3.5307   -4.1478    1.6005 C.3       1 <0>         0.2431
     16 O5          3.5253   -3.8561    0.1888 O.3       1 <0>        -0.3666
     17 C9          4.7443   -3.4871    2.2574 C.3       1 <0>        -0.1505
     18 C10         3.5958   -5.6617    1.8124 C.3       1 <0>        -0.1864
     19 C11         1.4685   -5.0698   -0.2356 C.3       1 <0>         0.0825
     20 O6          2.1389   -5.8445   -1.2317 O.3       1 <0>        -0.7265
     21 S1          1.5597   -7.2386   -1.4254 S.o2      1 <0>         2.6826
     22 O7          2.4548   -7.9350   -2.2815 O.2       1 <0>        -1.0652
     23 O8          1.2135   -7.7177   -0.1332 O.2       1 <0>        -1.0999
     24 N1          0.1411   -7.0674   -2.2625 N.2       1 <0>        -1.3687
     25 C12        -1.3558   -1.0027    1.2569 C.3       1 <0>        -0.1582
     26 H4          0.8207    1.6475    0.8968 H         1 <0>         0.0616
     27 H5         -0.8808    1.5361    0.3860 H         1 <0>         0.0773
     28 H6         -0.4614    1.4331    2.1128 H         1 <0>         0.0749
     29 H7          2.2585   -1.1852   -2.2889 H         1 <0>         0.1202
     30 H8          3.5458   -1.7168   -1.1842 H         1 <0>         0.0862
     31 H9          4.7535   -3.7210    3.3219 H         1 <0>         0.0808
     32 H10         5.6571   -3.8626    1.7950 H         1 <0>         0.0792
     33 H11         4.6869   -2.4069    2.1231 H         1 <0>         0.0625
     34 H12         2.5933   -6.0827    1.7363 H         1 <0>         0.0832
     35 H13         4.2360   -6.1079    1.0514 H         1 <0>         0.0832
     36 H14         4.0046   -5.8730    2.8005 H         1 <0>         0.0768
     37 H15         1.5314   -5.5806    0.7253 H         1 <0>         0.1099
     38 H16         0.4218   -4.9473   -0.5141 H         1 <0>         0.1013
     39 H17        -0.3863   -7.8495   -2.4881 H         1 <0>         0.3260
     40 H18        -2.0938   -0.6361    0.5434 H         1 <0>         0.0779
     41 H19        -1.2583   -2.0836    1.1559 H         1 <0>         0.0696
     42 H20        -1.6777   -0.7600    2.2696 H         1 <0>         0.0781
@<TRIPOS>BOND
     1    1    2 1
     2    1   26 1
     3    1   27 1
     4    1   28 1
     5    2   13 1
     6    2    3 1
     7    2   25 1
     8    3    4 1
     9    4    5 1
    10    4   11 1
    11    4    6 1
    12    6    7 1
    13    6   29 1
    14    6   30 1
    15    7    8 1
    16    8   16 1
    17    8    9 1
    18    8   19 1
    19    9   10 1
    20    9   11 1
    21    9   14 1
    22   11   12 1
    23   11   13 1
    24   14   15 1
    25   15   16 1
    26   15   17 1
    27   15   18 1
    28   17   31 1
    29   17   32 1
    30   17   33 1
    31   18   34 1
    32   18   35 1
    33   18   36 1
    34   19   20 1
    35   19   37 1
    36   19   38 1
    37   20   21 1
    38   21   22 2
    39   21   23 2
    40   21   24 1
    41   24   39 1
    42   25   40 1
    43   25   41 1
    44   25   42 1
@<TRIPOS>MOLECULE
ZINC01530804
   43    45     0     0     0
SMALL
USER_CHARGES

@<TRIPOS>ATOM
      1 C1         -0.1414    1.1782    1.1025 C.3       1 <0>        -0.1689
      2 C2         -0.0047   -0.3406    0.9788 C.3       1 <0>         0.2400
      3 O1          0.4336   -0.6809   -0.3520 O.3       1 <0>        -0.3516
      4 C3          1.8586   -0.8253   -0.2194 C.3       1 <0>         0.0156
      5 H1          2.3279    0.1582   -0.1959 H         1 <0>         0.1022
      6 C4          2.4671   -1.6561   -1.3282 C.3       1 <0>         0.0660
      7 O2          1.9135   -2.9701   -1.3154 O.3       1 <0>        -0.3195
      8 C5          2.1315   -3.6952   -0.1268 C.3       1 <0>         0.2579
      9 C6          1.5886   -2.9749    1.1170 C.3       1 <0>         0.0224
     10 H2          0.5124   -3.1112    1.2238 H         1 <0>         0.1406
     11 C7          1.9968   -1.5000    1.1552 C.3       1 <0>         0.0483
     12 H3          2.9929   -1.3657    1.5768 H         1 <0>         0.1355
     13 O3          0.9684   -0.8158    1.9209 O.3       1 <0>        -0.3615
     14 O4          2.3254   -3.6306    2.1835 O.3       1 <0>        -0.3573
     15 C8          3.5307   -4.1478    1.6005 C.3       1 <0>         0.2406
     16 O5          3.5253   -3.8561    0.1888 O.3       1 <0>        -0.3608
     17 C9          4.7443   -3.4871    2.2574 C.3       1 <0>        -0.1549
     18 C10         3.5958   -5.6617    1.8124 C.3       1 <0>        -0.1875
     19 C11         1.4685   -5.0698   -0.2356 C.3       1 <0>         0.0540
     20 O6          2.1389   -5.8445   -1.2317 O.3       1 <0>        -0.7190
     21 S1          1.5597   -7.2386   -1.4254 S.o2      1 <0>         2.7922
     22 O7          2.4548   -7.9350   -2.2815 O.2       1 <0>        -0.9521
     23 O8          1.2135   -7.7177   -0.1332 O.2       1 <0>        -0.9902
     24 N1          0.1411   -7.0674   -2.2625 N.pl3     1 <0>        -1.2682
     25 C12        -1.3558   -1.0027    1.2569 C.3       1 <0>        -0.1570
     26 H4          0.8207    1.6475    0.8968 H         1 <0>         0.0640
     27 H5         -0.8808    1.5361    0.3860 H         1 <0>         0.0795
     28 H6         -0.4614    1.4331    2.1128 H         1 <0>         0.0783
     29 H7          2.2585   -1.1852   -2.2889 H         1 <0>         0.1264
     30 H8          3.5458   -1.7168   -1.1842 H         1 <0>         0.0924
     31 H9          4.7535   -3.7210    3.3219 H         1 <0>         0.0862
     32 H10         5.6571   -3.8626    1.7950 H         1 <0>         0.0829
     33 H11         4.6869   -2.4069    2.1231 H         1 <0>         0.0666
     34 H12         2.5933   -6.0827    1.7363 H         1 <0>         0.0754
     35 H13         4.2360   -6.1079    1.0514 H         1 <0>         0.0857
     36 H14         4.0046   -5.8730    2.8005 H         1 <0>         0.0871
     37 H15         1.5314   -5.5806    0.7253 H         1 <0>         0.1339
     38 H16         0.4218   -4.9473   -0.5141 H         1 <0>         0.1071
     39 H17        -0.1624   -6.1849   -2.5271 H         1 <0>         0.4163
     40 H18        -2.0938   -0.6361    0.5434 H         1 <0>         0.0797
     41 H19        -1.2583   -2.0836    1.1559 H         1 <0>         0.0641
     42 H20        -1.6777   -0.7600    2.2696 H         1 <0>         0.0821
     43 H21        -0.3863   -7.8495   -2.4881 H         1 <0>         0.4258
@<TRIPOS>BOND
     1    1    2 1
     2    1   26 1
     3    1   27 1
     4    1   28 1
     5    2   13 1
     6    2    3 1
     7    2   25 1
     8    3    4 1
     9    4    5 1
    10    4   11 1
    11    4    6 1
    12    6    7 1
    13    6   29 1
    14    6   30 1
    15    7    8 1
    16    8   16 1
    17    8    9 1
    18    8   19 1
    19    9   10 1
    20    9   11 1
    21    9   14 1
    22   11   12 1
    23   11   13 1
    24   14   15 1
    25   15   16 1
    26   15   17 1
    27   15   18 1
    28   17   31 1
    29   17   32 1
    30   17   33 1
    31   18   34 1
    32   18   35 1
    33   18   36 1
    34   19   20 1
    35   19   37 1
    36   19   38 1
    37   20   21 1
    38   21   22 2
    39   21   23 2
    40   21   24 1
    41   24   39 1
    42   24   43 1
    43   25   40 1
    44   25   41 1
    45   25   42 1
