@<TRIPOS>MOLECULE
ZINC00897234
   28    29     0     0     0
SMALL
USER_CHARGES

@<TRIPOS>ATOM
      1 C1         -0.0166    1.3759    0.0096 C.ar      1 <0>        -0.1949
      2 C2          1.1783    2.0936    0.0021 C.ar      1 <0>         0.3458
      3 C3          2.3808    1.4000   -0.0226 C.ar      1 <0>        -0.7434
      4 C4          2.3964    0.0207   -0.0201 C.ar      1 <0>         0.1333
      5 C5          1.2072   -0.6851   -0.0088 C.ar      1 <0>        -0.7302
      6 C6          0.0021   -0.0041    0.0020 C.ar      1 <0>         0.1337
      7 Cl1        -1.4913   -0.8891    0.0060 Cl        1 <0>        -0.0137
      8 S1          1.2260   -2.4470   -0.0082 S.o2      1 <0>         2.7016
      9 O1          0.3250   -2.8631   -1.0253 O.2       1 <0>        -0.9417
     10 O2          2.5919   -2.8386    0.0064 O.2       1 <0>        -0.9529
     11 N1          0.5759   -2.9431    1.4318 N.pl3     1 <0>        -1.2432
     12 S2          3.9028    2.2971   -0.0763 S.o2      1 <0>         2.6801
     13 O3          4.3733    2.2366   -1.4158 O.2       1 <0>        -0.9287
     14 O4          4.6796    1.8636    1.0318 O.2       1 <0>        -0.9302
     15 N2          3.4725    3.8817    0.2181 N.pl3     1 <0>        -1.1055
     16 C7          2.2211    4.3393   -0.4192 C.3       1 <0>         0.3697
     17 H1          2.0212    5.3718   -0.1326 H         1 <0>         0.1559
     18 N3          1.1259    3.4846    0.0324 N.pl3     1 <0>        -0.7331
     19 C8          2.3558    4.2457   -1.9404 C.3       1 <0>         0.0047
     20 Cl2         0.8266    4.8050   -2.7146 Cl        1 <0>        -0.1025
     21 Cl3         3.7224    5.2867   -2.4879 Cl        1 <0>        -0.0892
     22 H2         -0.9601    1.9014    0.0260 H         1 <0>         0.1584
     23 H3          3.3379   -0.5083   -0.0273 H         1 <0>         0.1669
     24 H4          0.0997   -3.7866    1.4840 H         1 <0>         0.4253
     25 H5          0.6713   -2.3902    2.2231 H         1 <0>         0.4183
     26 H6          4.0112    4.4668    0.7734 H         1 <0>         0.4414
     27 H7          0.3211    3.9077    0.3703 H         1 <0>         0.4286
     28 H8          2.5501    3.2117   -2.2250 H         1 <0>         0.1453
@<TRIPOS>BOND
     1    1    6 ar
     2    1    2 ar
     3    1   22 1
     4    2   18 1
     5    2    3 ar
     6    3    4 ar
     7    3   12 1
     8    4    5 ar
     9    4   23 1
    10    5    6 ar
    11    5    8 1
    12    6    7 1
    13    8    9 2
    14    8   10 2
    15    8   11 1
    16   11   24 1
    17   11   25 1
    18   12   13 2
    19   12   14 2
    20   12   15 1
    21   15   16 1
    22   15   26 1
    23   16   17 1
    24   16   18 1
    25   16   19 1
    26   18   27 1
    27   19   20 1
    28   19   21 1
    29   19   28 1
@<TRIPOS>MOLECULE
ZINC00897234
   27    28     0     0     0
SMALL
USER_CHARGES

@<TRIPOS>ATOM
      1 C1         -0.0166    1.3759    0.0096 C.ar      1 <0>        -0.2182
      2 C2          1.1783    2.0936    0.0021 C.ar      1 <0>         0.3666
      3 C3          2.3810    1.3999   -0.0038 C.ar      1 <0>        -0.7297
      4 C4          2.3964    0.0208   -0.0214 C.ar      1 <0>         0.1173
      5 C5          1.2071   -0.6851   -0.0176 C.ar      1 <0>        -0.7492
      6 C6          0.0021   -0.0041    0.0020 C.ar      1 <0>         0.1156
      7 Cl1        -1.4912   -0.8892    0.0171 Cl        1 <0>        -0.0510
      8 S1          1.2257   -2.4469   -0.0375 S.o2      1 <0>         2.7044
      9 O1          0.3240   -2.8510   -1.0587 O.2       1 <0>        -0.9572
     10 O2          2.5915   -2.8387   -0.0283 O.2       1 <0>        -0.9676
     11 N1          0.5765   -2.9596    1.3971 N.pl3     1 <0>        -1.2491
     12 S2          3.9039    2.2965    0.0305 S.o2      1 <0>         2.5613
     13 O3          4.6586    1.8762   -1.0977 O.2       1 <0>        -0.9938
     14 O4          4.4006    2.2204    1.3597 O.2       1 <0>        -1.0319
     15 N2          3.4681    3.8842   -0.2385 N.2       1 <0>        -1.0605
     16 C7          2.2292    4.3347    0.4274 C.3       1 <0>         0.3386
     17 H1          2.3449    4.2538    1.5082 H         1 <0>         0.0643
     18 N3          1.1255    3.4848   -0.0123 N.pl3     1 <0>        -0.7365
     19 C8          1.9433    5.7895    0.0494 C.3       1 <0>         0.0974
     20 Cl2         3.3189    6.8290    0.5766 Cl        1 <0>        -0.1226
     21 Cl3         1.7435    5.9179   -1.7379 Cl        1 <0>        -0.1352
     22 H2         -0.9601    1.9014    0.0260 H         1 <0>         0.1407
     23 H3          3.3378   -0.5082   -0.0387 H         1 <0>         0.1498
     24 H4          0.2752   -2.3110    2.0524 H         1 <0>         0.4155
     25 H5          0.4976   -3.9085    1.5821 H         1 <0>         0.4179
     26 H6          0.3146    3.9114   -0.3308 H         1 <0>         0.3923
     27 H7          1.0287    6.1198    0.5419 H         1 <0>         0.1210
@<TRIPOS>BOND
     1    1    6 ar
     2    1    2 ar
     3    1   22 1
     4    2   18 1
     5    2    3 ar
     6    3    4 ar
     7    3   12 1
     8    4    5 ar
     9    4   23 1
    10    5    6 ar
    11    5    8 1
    12    6    7 1
    13    8    9 2
    14    8   10 2
    15    8   11 1
    16   11   24 1
    17   11   25 1
    18   12   13 2
    19   12   14 2
    20   12   15 1
    21   15   16 1
    22   16   17 1
    23   16   18 1
    24   16   19 1
    25   18   26 1
    26   19   20 1
    27   19   21 1
    28   19   27 1
@<TRIPOS>MOLECULE
ZINC00897236
   28    29     0     0     0
SMALL
USER_CHARGES

@<TRIPOS>ATOM
      1 C1         -0.0880    1.4298    0.0212 C.ar      1 <0>        -0.1953
      2 C2          1.1239    2.1185    0.0097 C.ar      1 <0>         0.3454
      3 C3          2.3095    1.3960    0.0037 C.ar      1 <0>        -0.7433
      4 C4          2.2916    0.0168   -0.0104 C.ar      1 <0>         0.1334
      5 C5          1.0857   -0.6601   -0.0027 C.ar      1 <0>        -0.7301
      6 C6         -0.1025    0.0498    0.0172 C.ar      1 <0>         0.1339
      7 Cl1        -1.6167   -0.7991    0.0372 Cl        1 <0>        -0.0139
      8 S1          1.0618   -2.4219   -0.0180 S.o2      1 <0>         2.7020
      9 O1          0.1489   -2.8068   -1.0366 O.2       1 <0>        -0.9422
     10 O2          2.4179   -2.8465   -0.0101 O.2       1 <0>        -0.9529
     11 N1          0.4031   -2.9152    1.4190 N.pl3     1 <0>        -1.2432
     12 S2          3.8536    2.2557    0.0330 S.o2      1 <0>         2.6800
     13 O3          4.5960    1.8145   -1.0954 O.2       1 <0>        -0.9299
     14 O4          4.3507    2.1711    1.3615 O.2       1 <0>        -0.9283
     15 N2          3.4557    3.8528   -0.2394 N.pl3     1 <0>        -1.1055
     16 C7          2.2292    4.3347    0.4274 C.3       1 <0>         0.3692
     17 H1          2.0485    5.3742    0.1535 H         1 <0>         0.1558
     18 N3          1.1045    3.5105   -0.0082 N.pl3     1 <0>        -0.7334
     19 C8          2.3930    4.2248    1.9447 C.3       1 <0>         0.0063
     20 Cl2         3.8576    5.1418    2.4591 Cl        1 <0>        -0.0877
     21 Cl3         0.9376    4.9117    2.7575 Cl        1 <0>        -0.1033
     22 H2         -1.0184    1.9779    0.0378 H         1 <0>         0.1583
     23 H3          3.2200   -0.5347   -0.0279 H         1 <0>         0.1669
     24 H4         -0.0932   -3.7473    1.4648 H         1 <0>         0.4254
     25 H5          0.5135   -2.3719    2.2150 H         1 <0>         0.4185
     26 H6          3.9969    4.4295   -0.8011 H         1 <0>         0.4415
     27 H7          0.3036    3.9557   -0.3264 H         1 <0>         0.4288
     28 H8          2.5040    3.1769    2.2231 H         1 <0>         0.1438
@<TRIPOS>BOND
     1    1    6 ar
     2    1    2 ar
     3    1   22 1
     4    2   18 1
     5    2    3 ar
     6    3    4 ar
     7    3   12 1
     8    4    5 ar
     9    4   23 1
    10    5    6 ar
    11    5    8 1
    12    6    7 1
    13    8    9 2
    14    8   10 2
    15    8   11 1
    16   11   24 1
    17   11   25 1
    18   12   13 2
    19   12   14 2
    20   12   15 1
    21   15   16 1
    22   15   26 1
    23   16   17 1
    24   16   18 1
    25   16   19 1
    26   18   27 1
    27   19   20 1
    28   19   21 1
    29   19   28 1
@<TRIPOS>MOLECULE
ZINC00897236
   27    28     0     0     0
SMALL
USER_CHARGES

@<TRIPOS>ATOM
      1 C1         -0.0166    1.3759    0.0096 C.ar      1 <0>        -0.2165
      2 C2          1.1783    2.0936    0.0021 C.ar      1 <0>         0.3657
      3 C3          2.3808    1.4000   -0.0226 C.ar      1 <0>        -0.7331
      4 C4          2.3964    0.0207   -0.0201 C.ar      1 <0>         0.1186
      5 C5          1.2072   -0.6851   -0.0088 C.ar      1 <0>        -0.7489
      6 C6          0.0021   -0.0041    0.0020 C.ar      1 <0>         0.1160
      7 Cl1        -1.4913   -0.8891    0.0060 Cl        1 <0>        -0.0495
      8 S1          1.2260   -2.4470   -0.0082 S.o2      1 <0>         2.7044
      9 O1          0.3250   -2.8631   -1.0253 O.2       1 <0>        -0.9569
     10 O2          2.5919   -2.8386    0.0064 O.2       1 <0>        -0.9674
     11 N1          0.5759   -2.9431    1.4318 N.pl3     1 <0>        -1.2487
     12 S2          3.9028    2.2971   -0.0763 S.o2      1 <0>         2.5709
     13 O3          4.3733    2.2366   -1.4158 O.2       1 <0>        -1.0262
     14 O4          4.6796    1.8636    1.0318 O.2       1 <0>        -0.9934
     15 N2          3.4725    3.8817    0.2181 N.2       1 <0>        -1.0786
     16 C7          2.2211    4.3393   -0.4192 C.3       1 <0>         0.3464
     17 H1          2.3161    4.2700   -1.5028 H         1 <0>         0.0596
     18 N3          1.1259    3.4846    0.0324 N.pl3     1 <0>        -0.7380
     19 C8          1.9426    5.7898   -0.0201 C.3       1 <0>         0.0996
     20 Cl2         3.3080    6.8351   -0.5623 Cl        1 <0>        -0.1137
     21 Cl3         0.4145    6.3448   -0.7998 Cl        1 <0>        -0.1689
     22 H2         -0.9601    1.9014    0.0260 H         1 <0>         0.1419
     23 H3          3.3379   -0.5083   -0.0273 H         1 <0>         0.1509
     24 H4          0.2741   -2.2870    2.0793 H         1 <0>         0.4157
     25 H5          0.4969   -3.8898    1.6277 H         1 <0>         0.4181
     26 H6          0.3211    3.9077    0.3703 H         1 <0>         0.3938
     27 H7          1.8425    5.8558    1.0633 H         1 <0>         0.1384
@<TRIPOS>BOND
     1    1    6 ar
     2    1    2 ar
     3    1   22 1
     4    2   18 1
     5    2    3 ar
     6    3    4 ar
     7    3   12 1
     8    4    5 ar
     9    4   23 1
    10    5    6 ar
    11    5    8 1
    12    6    7 1
    13    8    9 2
    14    8   10 2
    15    8   11 1
    16   11   24 1
    17   11   25 1
    18   12   13 2
    19   12   14 2
    20   12   15 1
    21   15   16 1
    22   16   17 1
    23   16   18 1
    24   16   19 1
    25   18   26 1
    26   19   20 1
    27   19   21 1
    28   19   27 1
@<TRIPOS>MOLECULE
ZINC00020253
   33    35     0     0     0
SMALL
USER_CHARGES

@<TRIPOS>ATOM
      1 C1         -0.0166    1.3752    0.0096 C.ar      1 <0>        -0.1128
      2 C2          1.1683    2.0900    0.0021 C.ar      1 <0>        -0.0853
      3 C3          2.3827    1.4248   -0.0135 C.ar      1 <0>        -0.0801
      4 C4          2.4125    0.0494   -0.0211 C.ar      1 <0>        -0.0699
      5 C5          1.2226   -0.6819   -0.0132 C.ar      1 <0>        -0.1506
      6 C6          0.0021   -0.0041    0.0020 C.ar      1 <0>        -0.0457
      7 C7          1.5619   -2.1178   -0.0242 C.2       1 <0>         0.5711
      8 O1          0.7510   -3.0233   -0.0214 O.2       1 <0>        -0.5059
      9 N1          2.8961   -2.2814   -0.0383 N.am      1 <0>        -0.7333
     10 C8          3.5334   -0.9597   -0.0376 C.3       1 <0>         0.4302
     11 C9          4.3679   -0.7865   -1.2804 C.ar      1 <0>        -0.1501
     12 C10         4.0419   -1.4766   -2.4333 C.ar      1 <0>        -0.0234
     13 C11         4.8071   -1.3185   -3.5732 C.ar      1 <0>        -0.1256
     14 C12         5.8993   -0.4690   -3.5607 C.ar      1 <0>         0.0634
     15 C13         6.2246    0.2215   -2.4071 C.ar      1 <0>        -0.6749
     16 C14         5.4554    0.0665   -1.2690 C.ar      1 <0>         0.0181
     17 S1          7.6152    1.3034   -2.3902 S.o2      1 <0>         2.6988
     18 O2          7.5000    2.1308   -3.5397 O.2       1 <0>        -0.9422
     19 O3          7.7008    1.8343   -1.0749 O.2       1 <0>        -0.9520
     20 N2          8.9647    0.3697   -2.6124 N.pl3     1 <0>        -1.2428
     21 Cl1         6.8613   -0.2704   -4.9921 Cl        1 <0>        -0.0261
     22 O4          4.3479   -0.8079    1.1267 O.3       1 <0>        -0.5328
     23 H1         -0.9606    1.8997    0.0259 H         1 <0>         0.1398
     24 H2          1.1458    3.1698    0.0081 H         1 <0>         0.1405
     25 H3          3.3058    1.9854   -0.0200 H         1 <0>         0.1355
     26 H4         -0.9249   -0.5581    0.0082 H         1 <0>         0.1386
     27 H5          3.3608   -3.1327   -0.0474 H         1 <0>         0.4250
     28 H6          3.1894   -2.1396   -2.4430 H         1 <0>         0.1437
     29 H7          4.5528   -1.8582   -4.4735 H         1 <0>         0.1513
     30 H8          5.7069    0.6087   -0.3694 H         1 <0>         0.1653
     31 H9          9.7436    0.7408   -3.0557 H         1 <0>         0.4253
     32 H10         8.9763   -0.5484   -2.2994 H         1 <0>         0.4177
     33 H11         5.0869   -1.4298    1.1735 H         1 <0>         0.3890
@<TRIPOS>BOND
     1    1    6 ar
     2    1    2 ar
     3    1   23 1
     4    2    3 ar
     5    2   24 1
     6    3    4 ar
     7    3   25 1
     8    4   10 1
     9    4    5 ar
    10    5    6 ar
    11    5    7 1
    12    6   26 1
    13    7    8 2
    14    7    9 am
    15    9   10 1
    16    9   27 1
    17   10   11 1
    18   10   22 1
    19   11   16 ar
    20   11   12 ar
    21   12   13 ar
    22   12   28 1
    23   13   14 ar
    24   13   29 1
    25   14   15 ar
    26   14   21 1
    27   15   16 ar
    28   15   17 1
    29   16   30 1
    30   17   18 2
    31   17   19 2
    32   17   20 1
    33   20   31 1
    34   20   32 1
    35   22   33 1
@<TRIPOS>MOLECULE
ZINC00057255
   33    35     0     0     0
SMALL
USER_CHARGES

@<TRIPOS>ATOM
      1 C1         -0.0166    1.3752    0.0096 C.ar      1 <0>        -0.1124
      2 C2          1.1683    2.0900    0.0021 C.ar      1 <0>        -0.0872
      3 C3          2.3827    1.4248   -0.0135 C.ar      1 <0>        -0.0799
      4 C4          2.4125    0.0494   -0.0211 C.ar      1 <0>        -0.0709
      5 C5          1.2226   -0.6819   -0.0132 C.ar      1 <0>        -0.1485
      6 C6          0.0021   -0.0041    0.0020 C.ar      1 <0>        -0.0451
      7 C7          1.5619   -2.1178   -0.0242 C.2       1 <0>         0.5701
      8 O1          0.7510   -3.0233   -0.0214 O.2       1 <0>        -0.5012
      9 N1          2.8961   -2.2814   -0.0383 N.am      1 <0>        -0.7354
     10 C8          3.5334   -0.9597   -0.0376 C.3       1 <0>         0.4314
     11 C9          4.3923   -0.7996    1.1903 C.ar      1 <0>        -0.1506
     12 C10         5.4128    0.1332    1.2029 C.ar      1 <0>        -0.0205
     13 C11         6.2011    0.2801    2.3284 C.ar      1 <0>        -0.1261
     14 C12         5.9687   -0.5063    3.4430 C.ar      1 <0>         0.0632
     15 C13         4.9474   -1.4391    3.4299 C.ar      1 <0>        -0.6746
     16 C14         4.1561   -1.5815    2.3053 C.ar      1 <0>         0.0154
     17 S1          4.6507   -2.4410    4.8487 S.o2      1 <0>         2.6964
     18 O2          4.6097   -1.5625    5.9648 O.2       1 <0>        -0.9417
     19 O3          3.5710   -3.3036    4.5181 O.2       1 <0>        -0.9518
     20 N2          5.9812   -3.4053    5.0540 N.pl3     1 <0>        -1.2423
     21 Cl1         6.9590   -0.3227    4.8570 Cl        1 <0>        -0.0262
     22 O4          4.3247   -0.7954   -1.2161 O.3       1 <0>        -0.5339
     23 H1         -0.9606    1.8997    0.0259 H         1 <0>         0.1399
     24 H2          1.1458    3.1698    0.0081 H         1 <0>         0.1395
     25 H3          3.3058    1.9854   -0.0200 H         1 <0>         0.1335
     26 H4         -0.9249   -0.5581    0.0082 H         1 <0>         0.1396
     27 H5          3.3608   -3.1327   -0.0474 H         1 <0>         0.4257
     28 H6          5.5941    0.7469    0.3329 H         1 <0>         0.1533
     29 H7          6.9986    1.0083    2.3379 H         1 <0>         0.1528
     30 H8          3.3561   -2.3069    2.2964 H         1 <0>         0.1557
     31 H9          6.2370   -3.6960    5.9434 H         1 <0>         0.4254
     32 H10         6.5049   -3.6794    4.2849 H         1 <0>         0.4175
     33 H11         5.0625   -1.4167   -1.2841 H         1 <0>         0.3885
@<TRIPOS>BOND
     1    1    6 ar
     2    1    2 ar
     3    1   23 1
     4    2    3 ar
     5    2   24 1
     6    3    4 ar
     7    3   25 1
     8    4   10 1
     9    4    5 ar
    10    5    6 ar
    11    5    7 1
    12    6   26 1
    13    7    8 2
    14    7    9 am
    15    9   10 1
    16    9   27 1
    17   10   11 1
    18   10   22 1
    19   11   16 ar
    20   11   12 ar
    21   12   13 ar
    22   12   28 1
    23   13   14 ar
    24   13   29 1
    25   14   15 ar
    26   14   21 1
    27   15   16 ar
    28   15   17 1
    29   16   30 1
    30   17   18 2
    31   17   19 2
    32   17   20 1
    33   20   31 1
    34   20   32 1
    35   22   33 1
@<TRIPOS>MOLECULE
ZINC02570895
   40    42     0     0     0
SMALL
USER_CHARGES

@<TRIPOS>ATOM
      1 C1          0.0405    1.5033    0.0105 C.3       1 <0>        -0.1224
      2 C2          0.0481   -0.0036    0.0022 C.ar      1 <0>        -0.0617
      3 C3         -0.4654   -0.6891   -1.0843 C.ar      1 <0>        -0.1180
      4 C4         -0.4609   -2.0687   -1.0981 C.ar      1 <0>        -0.0762
      5 C5          0.0630   -2.7726   -0.0133 C.ar      1 <0>        -0.0606
      6 C6          0.5793   -2.0754    1.0794 C.ar      1 <0>        -0.0985
      7 C7          0.5738   -0.6957    1.0787 C.ar      1 <0>        -0.1165
      8 C8          0.0704   -4.2518   -0.0214 C.2       1 <0>         0.1497
      9 C9          0.0778   -5.0559   -1.1264 C.2       1 <0>        -0.2047
     10 C10         0.0841   -6.3814   -0.6911 C.2       1 <0>        -0.0034
     11 N1          0.0806   -6.3920    0.6183 N.2       1 <0>        -0.2184
     12 N2          0.0772   -5.0674    1.0740 N.pl3     1 <0>        -0.3181
     13 C11         0.0780   -4.6538    2.4124 C.ar      1 <0>         0.1993
     14 C12        -0.7877   -3.6523    2.8316 C.ar      1 <0>        -0.1310
     15 C13        -0.7845   -3.2467    4.1518 C.ar      1 <0>        -0.0008
     16 C14         0.0799   -3.8365    5.0557 C.ar      1 <0>        -0.6729
     17 C15         0.9432   -4.8341    4.6414 C.ar      1 <0>         0.0013
     18 C16         0.9405   -5.2485    3.3238 C.ar      1 <0>        -0.1237
     19 S1          0.0817   -3.3155    6.7389 S.o2      1 <0>         2.7035
     20 O1          1.3615   -3.6412    7.2635 O.2       1 <0>        -0.9570
     21 O2         -0.4336   -1.9913    6.7547 O.2       1 <0>        -0.9571
     22 N3         -1.0144   -4.2595    7.5449 N.pl3     1 <0>        -1.2487
     23 C17         0.0927   -7.5984   -1.5799 C.3       1 <0>         0.5581
     24 F1          1.4144   -7.9678   -1.8518 F         1 <0>        -0.1637
     25 F2         -0.5625   -8.6523   -0.9339 F         1 <0>        -0.1639
     26 F3         -0.5656   -7.3049   -2.7789 F         1 <0>        -0.1610
     27 H1          0.9639    1.8738   -0.4347 H         1 <0>         0.0767
     28 H2         -0.8113    1.8655   -0.5652 H         1 <0>         0.0714
     29 H3         -0.0366    1.8607    1.0374 H         1 <0>         0.0715
     30 H4         -0.8709   -0.1431   -1.9232 H         1 <0>         0.1331
     31 H5         -0.8624   -2.6027   -1.9467 H         1 <0>         0.1336
     32 H6          0.9862   -2.6145    1.9221 H         1 <0>         0.1246
     33 H7          0.9772   -0.1548    1.9220 H         1 <0>         0.1315
     34 H8          0.0784   -4.7241   -2.1542 H         1 <0>         0.1732
     35 H9         -1.4626   -3.1908    2.1259 H         1 <0>         0.1459
     36 H10        -1.4576   -2.4679    4.4785 H         1 <0>         0.1580
     37 H11         1.6174   -5.2926    5.3496 H         1 <0>         0.1579
     38 H12         1.6117   -6.0309    3.0018 H         1 <0>         0.1479
     39 H13        -1.5085   -4.9443    7.0675 H         1 <0>         0.4179
     40 H14        -1.1624   -4.1277    8.4945 H         1 <0>         0.4235
@<TRIPOS>BOND
     1    1    2 1
     2    1   27 1
     3    1   28 1
     4    1   29 1
     5    2    7 ar
     6    2    3 ar
     7    3    4 ar
     8    3   30 1
     9    4    5 ar
    10    4   31 1
    11    5    6 ar
    12    5    8 1
    13    6    7 ar
    14    6   32 1
    15    7   33 1
    16    8   12 1
    17    8    9 2
    18    9   10 1
    19    9   34 1
    20   10   11 2
    21   10   23 1
    22   11   12 1
    23   12   13 1
    24   13   18 ar
    25   13   14 ar
    26   14   15 ar
    27   14   35 1
    28   15   16 ar
    29   15   36 1
    30   16   17 ar
    31   16   19 1
    32   17   18 ar
    33   17   37 1
    34   18   38 1
    35   19   20 2
    36   19   21 2
    37   19   22 1
    38   22   39 1
    39   22   40 1
    40   23   24 1
    41   23   25 1
    42   23   26 1
@<TRIPOS>MOLECULE
ZINC01529253
   23    22     0     0     0
SMALL
USER_CHARGES

@<TRIPOS>ATOM
      1 C1         -0.0187    1.5258    0.0104 C.3       1 <0>        -0.1185
      2 C2          0.0021   -0.0041    0.0020 C.3       1 <0>        -0.1546
      3 C3         -1.4333   -0.5336    0.0129 C.3       1 <0>        -0.0098
      4 N1         -1.4134   -2.0025    0.0048 N.4       1 <0>        -0.6393
      5 C4          1.4167    2.0553   -0.0004 C.3       1 <0>        -0.1545
      6 C5          1.3960    3.5852    0.0080 C.3       1 <0>        -0.0098
      7 N2          2.7741    4.0937   -0.0024 N.4       1 <0>        -0.6393
      8 H1         -0.5459    1.8868   -0.8726 H         1 <0>         0.0875
      9 H2         -0.5289    1.8773    0.9072 H         1 <0>         0.0875
     10 H3          0.5123   -0.3556   -0.8948 H         1 <0>         0.0923
     11 H4          0.5293   -0.3651    0.8851 H         1 <0>         0.0923
     12 H5         -1.9435   -0.1821    0.9097 H         1 <0>         0.1360
     13 H6         -1.9605   -0.1726   -0.8702 H         1 <0>         0.1360
     14 H7         -0.9411   -2.3279   -0.8254 H         1 <0>         0.4373
     15 H8         -0.9254   -2.3367    0.8222 H         1 <0>         0.4372
     16 H9          1.9439    1.6943    0.8826 H         1 <0>         0.0923
     17 H10         1.9269    1.7038   -0.8972 H         1 <0>         0.0923
     18 H11         0.8688    3.9463   -0.8751 H         1 <0>         0.1360
     19 H12         0.8858    3.9367    0.9048 H         1 <0>         0.1360
     20 H13         3.2621    3.7594    0.8150 H         1 <0>         0.4372
     21 H14         3.2464    3.7683   -0.8326 H         1 <0>         0.4373
     22 H15        -2.3600   -2.3517    0.0120 H         1 <0>         0.4442
     23 H16         2.7604    5.1025    0.0031 H         1 <0>         0.4442
@<TRIPOS>BOND
     1    1    2 1
     2    1    5 1
     3    1    8 1
     4    1    9 1
     5    2    3 1
     6    2   10 1
     7    2   11 1
     8    3    4 1
     9    3   12 1
    10    3   13 1
    11    4   14 1
    12    4   15 1
    13    4   22 1
    14    5    6 1
    15    5   16 1
    16    5   17 1
    17    6    7 1
    18    6   18 1
    19    6   19 1
    20    7   20 1
    21    7   21 1
    22    7   23 1
@<TRIPOS>MOLECULE
ZINC19365690
   48    47     0     0     0
SMALL
USER_CHARGES
N'-[2-(2-dimethylaminoethyl-methyl-amino)ethyl]-N,N,N'-trimethyl-ethane-1,2-diamine
@<TRIPOS>ATOM
      1 C1          1.3463    2.0098   -0.0000 C.3       1 <0>        -0.0462
      2 N1         -0.0178    1.4648    0.0101 N.4       1 <0>        -0.4005
      3 C2         -0.8017    1.9868   -1.1173 C.3       1 <0>        -0.0528
      4 C3          0.0021   -0.0041    0.0020 C.3       1 <0>        -0.0093
      5 C4         -1.4090   -0.5347    0.2631 C.3       1 <0>         0.0273
      6 N2         -1.3891   -2.0035    0.2551 N.3       1 <0>        -0.5344
      7 C5         -1.0640   -2.5183   -1.0818 C.3       1 <0>         0.0047
      8 C6         -2.6660   -2.5500    0.7334 C.3       1 <0>         0.0553
      9 C7         -2.5268   -4.0584    0.9481 C.3       1 <0>         0.0552
     10 N3         -3.8037   -4.6049    1.4264 N.3       1 <0>        -0.5345
     11 C8         -4.1288   -4.0901    2.7633 C.3       1 <0>         0.0050
     12 C9         -3.7838   -6.0737    1.4184 C.3       1 <0>         0.0273
     13 C10        -5.1949   -6.6044    1.6795 C.3       1 <0>        -0.0093
     14 N4         -5.1749   -8.0732    1.6714 N.4       1 <0>        -0.4005
     15 C11        -4.3911   -8.5953    2.7988 C.3       1 <0>        -0.0524
     16 C12        -6.5390   -8.6183    1.6815 C.3       1 <0>        -0.0462
     17 H1          1.9098    1.6034    0.8528 H         1 <0>         0.1258
     18 H2          1.3037    3.1062    0.0777 H         1 <0>         0.1284
     19 H3          1.8468    1.7279   -0.9381 H         1 <0>         0.1199
     20 H4         -1.8165    1.5634   -1.0855 H         1 <0>         0.1215
     21 H5         -0.3162    1.7047   -2.0632 H         1 <0>         0.1202
     22 H6         -0.8594    3.0831   -1.0474 H         1 <0>         0.1290
     23 H7          0.3524   -0.3606   -0.9779 H         1 <0>         0.1276
     24 H8          0.6812   -0.3660    0.7881 H         1 <0>         0.1407
     25 H9         -1.7593   -0.1781    1.2429 H         1 <0>         0.0985
     26 H10        -2.0881   -0.1729   -0.5230 H         1 <0>         0.0605
     27 H11        -1.0559   -3.6180   -1.0592 H         1 <0>         0.0829
     28 H12        -0.0727   -2.1505   -1.3853 H         1 <0>         0.0746
     29 H13        -1.8199   -2.1719   -1.8019 H         1 <0>         0.0400
     30 H14        -2.9381   -2.0679    1.6840 H         1 <0>         0.0842
     31 H15        -3.4503   -2.3568   -0.0133 H         1 <0>         0.0555
     32 H16        -2.2547   -4.5405   -0.0025 H         1 <0>         0.0843
     33 H17        -1.7426   -4.2517    1.6948 H         1 <0>         0.0556
     34 H18        -5.0875   -4.5144    3.0964 H         1 <0>         0.0738
     35 H19        -4.2067   -2.9935    2.7250 H         1 <0>         0.0831
     36 H20        -3.3357   -4.3769    3.4695 H         1 <0>         0.0404
     37 H21        -3.4334   -6.4303    0.4386 H         1 <0>         0.0984
     38 H22        -3.1047   -6.4355    2.2045 H         1 <0>         0.0605
     39 H23        -5.5452   -6.2478    2.6594 H         1 <0>         0.1277
     40 H24        -5.8740   -6.2426    0.8934 H         1 <0>         0.1407
     41 H25        -4.3928   -9.6949    2.7685 H         1 <0>         0.1289
     42 H26        -4.8370   -8.2539    3.7446 H         1 <0>         0.1198
     43 H27        -3.3567   -8.2281    2.7274 H         1 <0>         0.1216
     44 H28        -6.4947   -9.7174    1.6752 H         1 <0>         0.1283
     45 H29        -7.0804   -8.2680    0.7904 H         1 <0>         0.1260
     46 H30        -7.0633   -8.2777    2.5866 H         1 <0>         0.1198
     47 H31        -0.5052    1.7912    0.9406 H         1 <0>         0.4466
     48 H32        -4.6873   -8.3994    0.7409 H         1 <0>         0.4467
@<TRIPOS>BOND
     1    1    2 1
     2    1   17 1
     3    1   18 1
     4    1   19 1
     5    2    3 1
     6    2    4 1
     7    2   47 1
     8    3   20 1
     9    3   21 1
    10    3   22 1
    11    4    5 1
    12    4   23 1
    13    4   24 1
    14    5    6 1
    15    5   25 1
    16    5   26 1
    17    6    7 1
    18    6    8 1
    19    7   27 1
    20    7   28 1
    21    7   29 1
    22    8    9 1
    23    8   30 1
    24    8   31 1
    25    9   10 1
    26    9   32 1
    27    9   33 1
    28   10   11 1
    29   10   12 1
    30   11   34 1
    31   11   35 1
    32   11   36 1
    33   12   13 1
    34   12   37 1
    35   12   38 1
    36   13   14 1
    37   13   39 1
    38   13   40 1
    39   14   15 1
    40   14   16 1
    41   14   48 1
    42   15   41 1
    43   15   42 1
    44   15   43 1
    45   16   44 1
    46   16   45 1
    47   16   46 1
@<TRIPOS>MOLECULE
ZINC01700217
   29    30     0     0     0
SMALL
USER_CHARGES

@<TRIPOS>ATOM
      1 C1         -0.0164    1.3568    0.0095 C.ar      1 <0>        -0.1044
      2 C2          1.1685    2.0902    0.0021 C.ar      1 <0>        -0.1154
      3 C3          2.3785    1.4660   -0.0127 C.ar      1 <0>        -0.1086
      4 C4          2.4369    0.0637   -0.0208 C.ar      1 <0>        -0.0883
      5 C5          1.2329   -0.6830   -0.0133 C.ar      1 <0>        -0.0154
      6 C6          0.0021   -0.0041    0.0020 C.ar      1 <0>        -0.1079
      7 C7          1.2897   -2.0870   -0.0204 C.ar      1 <0>        -0.1454
      8 C8          2.4960   -2.7188   -0.0343 C.ar      1 <0>        -0.0741
      9 C9          3.6853   -1.9966   -0.0413 C.ar      1 <0>        -0.2035
     10 C10         3.6728   -0.6178   -0.0357 C.ar      1 <0>         0.2107
     11 N1          4.8691    0.0961   -0.0437 N.pl3     1 <0>        -0.7455
     12 C11         6.1482   -0.6180   -0.0592 C.3       1 <0>         0.1008
     13 C12         7.2966    0.3928   -0.0653 C.3       1 <0>        -0.0201
     14 N2          8.5792   -0.3232   -0.0809 N.4       1 <0>        -0.6315
     15 H1         -0.9633    1.8759    0.0259 H         1 <0>         0.1285
     16 H2          1.1264    3.1693    0.0079 H         1 <0>         0.1259
     17 H3          3.2888    2.0471   -0.0187 H         1 <0>         0.1160
     18 H4         -0.9241   -0.5595    0.0082 H         1 <0>         0.1331
     19 H5          0.3773   -2.6647   -0.0144 H         1 <0>         0.1292
     20 H6          2.5301   -3.7982   -0.0396 H         1 <0>         0.1256
     21 H7          4.6289   -2.5219   -0.0517 H         1 <0>         0.1166
     22 H8          4.8552    1.0660   -0.0390 H         1 <0>         0.4055
     23 H9          6.2233   -1.2480    0.8272 H         1 <0>         0.0823
     24 H10         6.2065   -1.2396   -0.9527 H         1 <0>         0.0823
     25 H11         7.2214    1.0228   -0.9517 H         1 <0>         0.1409
     26 H12         7.2383    1.0144    0.8282 H         1 <0>         0.1409
     27 H13         8.6488   -0.9063    0.7396 H         1 <0>         0.4388
     28 H14         8.6331   -0.8986   -0.9080 H         1 <0>         0.4388
     29 H15         9.3366    0.3434   -0.0849 H         1 <0>         0.4445
@<TRIPOS>BOND
     1    1    6 ar
     2    1    2 ar
     3    1   15 1
     4    2    3 ar
     5    2   16 1
     6    3    4 ar
     7    3   17 1
     8    4   10 ar
     9    4    5 ar
    10    5    6 ar
    11    5    7 ar
    12    6   18 1
    13    7    8 ar
    14    7   19 1
    15    8    9 ar
    16    8   20 1
    17    9   10 ar
    18    9   21 1
    19   10   11 1
    20   11   12 1
    21   11   22 1
    22   12   13 1
    23   12   23 1
    24   12   24 1
    25   13   14 1
    26   13   25 1
    27   13   26 1
    28   14   27 1
    29   14   28 1
    30   14   29 1
@<TRIPOS>MOLECULE
ZINC05501424
   52    51     0     0     0
SMALL
USER_CHARGES
2,2,2-trifluoro-N-[3-[4-[3-(2,2,2-trifluoroacetyl)aminopropylamino]butylamino]propyl]acetamide
@<TRIPOS>ATOM
      1 C1         -4.4001    8.7951    0.0707 C.3       1 <0>        -0.1499
      2 C2         -3.0852    8.0128    0.0602 C.3       1 <0>        -0.1499
      3 C3         -3.3845    6.5124    0.0535 C.3       1 <0>        -0.0054
      4 C4         -2.3709    4.3135    0.0367 C.3       1 <0>        -0.0006
      5 C5         -1.0356    3.5666    0.0263 C.3       1 <0>        -0.1671
      6 C6         -1.2947    2.0587    0.0194 C.3       1 <0>         0.1207
      7 N1         -0.0162    1.3436    0.0094 N.am      1 <0>        -0.7129
      8 C7          0.0021   -0.0041    0.0020 C.2       1 <0>         0.4901
      9 O1         -1.0399   -0.6247    0.0086 O.2       1 <0>        -0.4588
     10 C8          1.3172   -0.7397   -0.0145 C.3       1 <0>         0.4542
     11 F1          1.0803   -2.1185   -0.0196 F         1 <0>        -0.1437
     12 F2          2.0352   -0.3857   -1.1618 F         1 <0>        -0.1638
     13 F3          2.0570   -0.3979    1.1226 F         1 <0>        -0.1638
     14 C9         -4.1008   10.2955    0.0775 C.3       1 <0>        -0.0055
     15 C10        -5.1144   12.4943    0.0942 C.3       1 <0>        -0.0007
     16 C11        -6.4497   13.2412    0.1046 C.3       1 <0>        -0.1671
     17 C12        -6.1905   14.7491    0.1116 C.3       1 <0>         0.1207
     18 N2         -7.4691   15.4643    0.1215 N.am      1 <0>        -0.7129
     19 C13        -7.4873   16.8119    0.1289 C.2       1 <0>         0.4902
     20 O2         -6.4454   17.4325    0.1274 O.2       1 <0>        -0.4588
     21 C14        -8.8025   17.5476    0.1392 C.3       1 <0>         0.4541
     22 F4         -8.5656   18.9264    0.1455 F         1 <0>        -0.1436
     23 F5         -9.5369   17.2059   -1.0015 F         1 <0>        -0.1638
     24 F6         -9.5261   17.1935    1.2830 F         1 <0>        -0.1638
     25 H1         -4.9792    8.5441   -0.8179 H         1 <0>         0.1001
     26 H2         -4.9708    8.5344    0.9620 H         1 <0>         0.1001
     27 H3         -2.5060    8.2638    0.9489 H         1 <0>         0.1001
     28 H4         -2.5145    8.2734   -0.8311 H         1 <0>         0.1001
     29 H5         -3.9637    6.2614   -0.8351 H         1 <0>         0.1365
     30 H6         -3.9552    6.2517    0.9448 H         1 <0>         0.1365
     31 H7         -2.9430    4.0473   -0.8520 H         1 <0>         0.1397
     32 H8         -2.9346    4.0376    0.9279 H         1 <0>         0.1397
     33 H9         -0.4634    3.8328    0.9151 H         1 <0>         0.1009
     34 H10        -0.4719    3.8425   -0.8648 H         1 <0>         0.1008
     35 H11        -1.8669    1.7925   -0.8694 H         1 <0>         0.0895
     36 H12        -1.8585    1.7828    0.9106 H         1 <0>         0.0898
     37 H13         0.8172    1.8399    0.0041 H         1 <0>         0.4148
     38 H14        -3.5216   10.5465    0.9661 H         1 <0>         0.1365
     39 H15        -3.5300   10.5561   -0.8138 H         1 <0>         0.1365
     40 H16        -4.5422   12.7605    0.9830 H         1 <0>         0.1397
     41 H17        -4.5507   12.7702   -0.7970 H         1 <0>         0.1397
     42 H18        -7.0218   12.9750   -0.7841 H         1 <0>         0.1009
     43 H19        -7.0134   12.9653    0.9958 H         1 <0>         0.1009
     44 H20        -5.6184   15.0153    1.0003 H         1 <0>         0.0897
     45 H21        -5.6268   15.0250   -0.7796 H         1 <0>         0.0897
     46 H22        -8.3024   14.9679    0.1228 H         1 <0>         0.4148
     47 N3         -2.1123    5.7658    0.0434 N.4       1 <0>        -0.5199
     48 H23        -1.5699    6.0094    0.8805 H         1 <0>         0.4362
     49 H24        -1.5779    6.0185   -0.7962 H         1 <0>         0.4362
     50 N4         -5.3729   11.0421    0.0875 N.4       1 <0>        -0.5198
     51 H25        -5.9074   10.7894    0.9270 H         1 <0>         0.4362
     52 H26        -5.9152   10.7985   -0.7496 H         1 <0>         0.4362
@<TRIPOS>BOND
     1    1    2 1
     2    1   14 1
     3    1   25 1
     4    1   26 1
     5    2    3 1
     6    2   27 1
     7    2   28 1
     8    3   29 1
     9    3   30 1
    10    3   47 1
    11    4    5 1
    12    4   31 1
    13    4   32 1
    14    4   47 1
    15    5    6 1
    16    5   33 1
    17    5   34 1
    18    6    7 1
    19    6   35 1
    20    6   36 1
    21    7    8 am
    22    7   37 1
    23    8    9 2
    24    8   10 1
    25   10   11 1
    26   10   12 1
    27   10   13 1
    28   14   38 1
    29   14   39 1
    30   14   50 1
    31   15   16 1
    32   15   40 1
    33   15   41 1
    34   15   50 1
    35   16   17 1
    36   16   42 1
    37   16   43 1
    38   17   18 1
    39   17   44 1
    40   17   45 1
    41   18   19 am
    42   18   46 1
    43   19   20 2
    44   19   21 1
    45   21   22 1
    46   21   23 1
    47   21   24 1
    48   47   48 1
    49   47   49 1
    50   50   51 1
    51   50   52 1
@<TRIPOS>MOLECULE
ZINC00156386
   23    23     0     0     0
SMALL
USER_CHARGES

@<TRIPOS>ATOM
      1 C1         -0.0173    1.4248    0.0099 C.3       1 <0>         0.0265
      2 O1          0.0021   -0.0041    0.0020 O.3       1 <0>        -0.3122
      3 C2          0.6062   -0.6076   -1.0565 C.ar      1 <0>         0.1191
      4 C3          1.1704    0.1588   -2.0580 C.ar      1 <0>        -0.1919
      5 C4          1.7916   -0.4626   -3.1463 C.ar      1 <0>        -0.0639
      6 C5          1.8394   -1.8588   -3.2169 C.ar      1 <0>        -0.1919
      7 C6          1.2734   -2.6195   -2.2122 C.ar      1 <0>         0.1189
      8 C7          0.6605   -1.9976   -1.1269 C.ar      1 <0>         0.0290
      9 O2          0.1097   -2.7484   -0.1378 O.3       1 <0>        -0.4759
     10 O3          1.3195   -3.9771   -2.2801 O.3       1 <0>        -0.3122
     11 C8          1.9685   -4.5481   -3.4179 C.3       1 <0>         0.0266
     12 C9          2.3935    0.3512   -4.2157 C.2       1 <0>         0.5204
     13 O4          2.3506    1.5722   -4.1529 O.co2     1 <0>        -0.6816
     14 O5          2.9365   -0.1936   -5.1670 O.co2     1 <0>        -0.6816
     15 H1          1.0053    1.8021    0.0021 H         1 <0>         0.0571
     16 H2         -0.5445    1.7859   -0.8732 H         1 <0>         0.0566
     17 H3         -0.5275    1.7763    0.9067 H         1 <0>         0.0956
     18 H4          1.1316    1.2366   -2.0009 H         1 <0>         0.1402
     19 H5          2.3180   -2.3415   -4.0561 H         1 <0>         0.1401
     20 H6         -0.8189   -2.9738   -0.2858 H         1 <0>         0.3719
     21 H7          1.4589   -4.2265   -4.3262 H         1 <0>         0.0566
     22 H8          3.0069   -4.2179   -3.4476 H         1 <0>         0.0571
     23 H9          1.9348   -5.6353   -3.3479 H         1 <0>         0.0956
@<TRIPOS>BOND
     1    1    2 1
     2    1   15 1
     3    1   16 1
     4    1   17 1
     5    2    3 1
     6    3    8 ar
     7    3    4 ar
     8    4    5 ar
     9    4   18 1
    10    5    6 ar
    11    5   12 1
    12    6    7 ar
    13    6   19 1
    14    7    8 ar
    15    7   10 1
    16    8    9 1
    17    9   20 1
    18   10   11 1
    19   11   21 1
    20   11   22 1
    21   11   23 1
    22   12   13 2
    23   12   14 1
@<TRIPOS>MOLECULE
ZINC00058172
   20    20     0     0     0
SMALL
USER_CHARGES

@<TRIPOS>ATOM
      1 C1         -0.0169    1.3957    0.0097 C.ar      1 <0>        -0.1140
      2 C2          1.1668    2.1000    0.0022 C.ar      1 <0>        -0.1250
      3 C3          2.3804    1.4254   -0.0135 C.ar      1 <0>         0.0593
      4 C4          2.4079    0.0305   -0.0212 C.ar      1 <0>         0.0806
      5 C5          1.2269   -0.6836   -0.0138 C.ar      1 <0>        -0.1286
      6 C6          0.0021   -0.0041    0.0020 C.ar      1 <0>        -0.0222
      7 C7         -1.2582   -0.7578    0.0105 C.2       1 <0>        -0.1234
      8 C8         -2.4405   -0.0992    0.0258 C.2       1 <0>        -0.1542
      9 C9         -3.6536   -0.8247    0.0339 C.2       1 <0>         0.4982
     10 O1         -3.6348   -2.0498    0.0272 O.co2     1 <0>        -0.6929
     11 O2         -4.7239   -0.2284    0.0477 O.co2     1 <0>        -0.6968
     12 O3          3.5989   -0.6258   -0.0366 O.3       1 <0>        -0.4900
     13 O4          3.5440    2.1254   -0.0217 O.3       1 <0>        -0.4895
     14 H1         -0.9592    1.9231    0.0260 H         1 <0>         0.1353
     15 H2          1.1511    3.1799    0.0081 H         1 <0>         0.1310
     16 H3          1.2470   -1.7634   -0.0205 H         1 <0>         0.1354
     17 H4         -1.2417   -1.8376    0.0045 H         1 <0>         0.1311
     18 H5         -2.4570    0.9807    0.0317 H         1 <0>         0.1021
     19 H6          3.9522   -0.8203    0.8423 H         1 <0>         0.3831
     20 H7          3.8899    2.3237    0.8592 H         1 <0>         0.3804
@<TRIPOS>BOND
     1    1    6 ar
     2    1    2 ar
     3    1   14 1
     4    2    3 ar
     5    2   15 1
     6    3    4 ar
     7    3   13 1
     8    4    5 ar
     9    4   12 1
    10    5    6 ar
    11    5   16 1
    12    6    7 1
    13    7    8 2
    14    7   17 1
    15    8    9 1
    16    8   18 1
    17    9   10 2
    18    9   11 1
    19   12   19 1
    20   13   20 1
@<TRIPOS>MOLECULE
ZINC00006787
   29    30     0     0     0
SMALL
USER_CHARGES

@<TRIPOS>ATOM
      1 C1         -0.0169    1.3936    0.0097 C.ar      1 <0>        -0.0880
      2 C2          1.1682    2.0965    0.0022 C.ar      1 <0>        -0.1444
      3 C3          2.3804    1.4185   -0.0131 C.ar      1 <0>         0.1088
      4 C4          2.4043    0.0297   -0.0212 C.ar      1 <0>        -0.1437
      5 C5          1.2244   -0.6820   -0.0142 C.ar      1 <0>        -0.0943
      6 C6          0.0021   -0.0041    0.0020 C.ar      1 <0>        -0.0701
      7 C7         -1.2624   -0.7604    0.0105 C.2       1 <0>        -0.0946
      8 C8         -1.2417   -2.1029    0.0031 C.2       1 <0>        -0.1125
      9 C9         -2.5067   -2.8595    0.0116 C.ar      1 <0>        -0.0208
     10 C10        -3.7282   -2.1821    0.0216 C.ar      1 <0>        -0.1505
     11 C11        -4.9138   -2.8974    0.0296 C.ar      1 <0>         0.1270
     12 C12        -4.8898   -4.2848    0.0277 C.ar      1 <0>        -0.1731
     13 C13        -3.6788   -4.9623    0.0183 C.ar      1 <0>         0.1263
     14 C14        -2.4878   -4.2561    0.0039 C.ar      1 <0>        -0.1438
     15 O1         -3.6617   -6.3213    0.0174 O.3       1 <0>        -0.4960
     16 O2         -6.1029   -2.2395    0.0398 O.3       1 <0>        -0.4960
     17 O3          3.5463    2.1158   -0.0204 O.3       1 <0>        -0.4996
     18 H1         -0.9588    1.9217    0.0260 H         1 <0>         0.1307
     19 H2          1.1546    3.1764    0.0077 H         1 <0>         0.1317
     20 H3          3.3492   -0.4932   -0.0334 H         1 <0>         0.1314
     21 H4          1.2440   -1.7618   -0.0209 H         1 <0>         0.1307
     22 H5         -2.2059   -0.2349    0.0227 H         1 <0>         0.1259
     23 H6         -0.2983   -2.6284   -0.0091 H         1 <0>         0.1276
     24 H7         -3.7479   -1.1023    0.0234 H         1 <0>         0.1351
     25 H8         -5.8166   -4.8392    0.0340 H         1 <0>         0.1362
     26 H9         -1.5459   -4.7843   -0.0083 H         1 <0>         0.1350
     27 H10        -3.6634   -6.7141   -0.8663 H         1 <0>         0.3942
     28 H11        -6.4539   -2.0477   -0.8406 H         1 <0>         0.3942
     29 H12         3.8923    2.3129    0.8608 H         1 <0>         0.3928
@<TRIPOS>BOND
     1    1    6 ar
     2    1    2 ar
     3    1   18 1
     4    2    3 ar
     5    2   19 1
     6    3    4 ar
     7    3   17 1
     8    4    5 ar
     9    4   20 1
    10    5    6 ar
    11    5   21 1
    12    6    7 1
    13    7    8 2
    14    7   22 1
    15    8    9 1
    16    8   23 1
    17    9   14 ar
    18    9   10 ar
    19   10   11 ar
    20   10   24 1
    21   11   12 ar
    22   11   16 1
    23   12   13 ar
    24   12   25 1
    25   13   14 ar
    26   13   15 1
    27   14   26 1
    28   15   27 1
    29   16   28 1
    30   17   29 1
@<TRIPOS>MOLECULE
ZINC06553187
   46    48     0     0     0
SMALL
USER_CHARGES

@<TRIPOS>ATOM
      1 C1         -0.0187    1.5258    0.0104 C.3       1 <0>        -0.1456
      2 C2          0.0021   -0.0041    0.0020 C.3       1 <0>        -0.0509
      3 C3         -1.4002   -0.6155    0.3559 C.3       1 <0>        -0.0878
      4 H1         -2.2170   -0.3827   -0.3273 H         1 <0>         0.1109
      5 C4         -1.0293   -2.1244    0.4923 C.3       1 <0>        -0.1218
      6 C5          0.3989   -2.1190    1.0845 C.3       1 <0>        -0.1205
      7 C6          0.7491   -0.5910    1.2511 C.3       1 <0>        -0.1085
      8 C7         -0.1519   -0.0892    2.3884 C.2       1 <0>         0.3373
      9 O1          0.1875    0.2463    3.4977 O.2       1 <0>        -0.3796
     10 C8         -1.5635   -0.1042    1.8203 C.3       1 <0>        -0.1735
     11 C9          2.2381   -0.2578    1.3641 C.3       1 <0>        -0.5697
     12 S1          2.9165   -1.0214    2.8631 S.o2      1 <0>         2.5278
     13 O2          2.3684   -0.4023    4.0188 O.2       1 <0>        -0.9891
     14 O3          2.9211   -2.4364    2.7326 O.2       1 <0>        -1.0223
     15 N1          4.5160   -0.5927    2.8726 N.2       1 <0>        -1.0933
     16 C10         5.3480   -1.0221    3.9091 C.ar      1 <0>         0.3326
     17 C11         4.8367   -1.8135    4.9297 C.ar      1 <0>        -0.2729
     18 C12         5.6622   -2.2367    5.9528 C.ar      1 <0>         0.0280
     19 C13         6.9963   -1.8731    5.9622 C.ar      1 <0>        -0.7734
     20 C14         7.5086   -1.0853    4.9476 C.ar      1 <0>         0.0118
     21 C15         6.6900   -0.6634    3.9185 C.ar      1 <0>        -0.2004
     22 S2          8.0458   -2.4143    7.2700 S.o2      1 <0>         2.7035
     23 O4          9.1217   -1.4884    7.3370 O.2       1 <0>        -0.9860
     24 O5          7.2029   -2.6844    8.3817 O.2       1 <0>        -0.9858
     25 N2          8.6974   -3.8644    6.8067 N.pl3     1 <0>        -1.2567
     26 C16         0.5573   -0.5564   -1.3123 C.3       1 <0>        -0.1382
     27 H2          1.0039    1.9031    0.0027 H         1 <0>         0.0626
     28 H3         -0.5459    1.8868   -0.8726 H         1 <0>         0.0624
     29 H4         -0.5289    1.8773    0.9072 H         1 <0>         0.0569
     30 H5         -1.7202   -2.6265    1.1696 H         1 <0>         0.0704
     31 H6         -1.0343   -2.6074   -0.4848 H         1 <0>         0.0751
     32 H7          0.4096   -2.6138    2.0557 H         1 <0>         0.0743
     33 H8          1.0955   -2.6051    0.4015 H         1 <0>         0.0886
     34 H9         -1.9853    0.9008    1.8262 H         1 <0>         0.0984
     35 H10        -2.1949   -0.7848    2.3914 H         1 <0>         0.0972
     36 H11         2.7638   -0.6428    0.4903 H         1 <0>         0.1280
     37 H12         2.3654    0.8234    1.4175 H         1 <0>         0.1248
     38 H13         3.7946   -2.0972    4.9234 H         1 <0>         0.1094
     39 H14         5.2652   -2.8520    6.7467 H         1 <0>         0.1206
     40 H15         8.5511   -0.8031    4.9579 H         1 <0>         0.1237
     41 H16         7.0918   -0.0519    3.1241 H         1 <0>         0.1207
     42 H17         8.4668   -4.2468    5.9455 H         1 <0>         0.4157
     43 H18         9.3097   -4.3316    7.3964 H         1 <0>         0.4106
     44 H19         1.5815   -0.2093   -1.4485 H         1 <0>         0.0603
     45 H20         0.5437   -1.6460   -1.2831 H         1 <0>         0.0657
     46 H21        -0.0579   -0.2075   -2.1418 H         1 <0>         0.0588
@<TRIPOS>BOND
     1    1    2 1
     2    1   27 1
     3    1   28 1
     4    1   29 1
     5    2    7 1
     6    2    3 1
     7    2   26 1
     8    3    4 1
     9    3   10 1
    10    3    5 1
    11    5    6 1
    12    5   30 1
    13    5   31 1
    14    6    7 1
    15    6   32 1
    16    6   33 1
    17    7    8 1
    18    7   11 1
    19    8    9 2
    20    8   10 1
    21   10   34 1
    22   10   35 1
    23   11   12 1
    24   11   36 1
    25   11   37 1
    26   12   13 2
    27   12   14 2
    28   12   15 1
    29   15   16 1
    30   16   21 ar
    31   16   17 ar
    32   17   18 ar
    33   17   38 1
    34   18   19 ar
    35   18   39 1
    36   19   20 ar
    37   19   22 1
    38   20   21 ar
    39   20   40 1
    40   21   41 1
    41   22   23 2
    42   22   24 2
    43   22   25 1
    44   25   42 1
    45   25   43 1
    46   26   44 1
    47   26   45 1
    48   26   46 1
@<TRIPOS>MOLECULE
ZINC06553185
   46    48     0     0     0
SMALL
USER_CHARGES

@<TRIPOS>ATOM
      1 C1         -0.0187    1.5258    0.0104 C.3       1 <0>        -0.1388
      2 C2          0.0021   -0.0041    0.0020 C.3       1 <0>        -0.0510
      3 C3         -1.4002   -0.6155    0.3559 C.3       1 <0>        -0.0878
      4 H1         -2.2079   -0.4157   -0.3482 H         1 <0>         0.1109
      5 C4         -1.5979   -0.0628    1.8011 C.3       1 <0>        -0.1220
      6 C5         -0.1745   -0.0404    2.4041 C.3       1 <0>        -0.1206
      7 C6          0.7491   -0.5910    1.2511 C.3       1 <0>        -0.1086
      8 C7          0.3972   -2.0800    1.1247 C.2       1 <0>         0.3379
      9 O1          1.0892   -3.0237    1.4225 O.2       1 <0>        -0.3805
     10 C8         -1.0093   -2.1135    0.5448 C.3       1 <0>        -0.1733
     11 C9          2.2359   -0.2499    1.3691 C.3       1 <0>        -0.5697
     12 S1          2.9147   -1.0147    2.8674 S.o2      1 <0>         2.5278
     13 O2          2.3601   -0.4025    4.0237 O.2       1 <0>        -1.0210
     14 O3          2.9275   -2.4292    2.7321 O.2       1 <0>        -0.9904
     15 N1          4.5117   -0.5772    2.8824 N.2       1 <0>        -1.0933
     16 C10         5.3434   -1.0054    3.9197 C.ar      1 <0>         0.3325
     17 C11         4.8338   -1.8030    4.9364 C.ar      1 <0>        -0.2728
     18 C12         5.6590   -2.2250    5.9602 C.ar      1 <0>         0.0279
     19 C13         6.9911   -1.8540    5.9743 C.ar      1 <0>        -0.7735
     20 C14         7.5016   -1.0600    4.9637 C.ar      1 <0>         0.0118
     21 C15         6.6833   -0.6393    3.9338 C.ar      1 <0>        -0.2004
     22 S2          8.0401   -2.3937    7.2830 S.o2      1 <0>         2.7037
     23 O4          9.1107   -1.4621    7.3559 O.2       1 <0>        -0.9861
     24 O5          7.1959   -2.6723    8.3916 O.2       1 <0>        -0.9861
     25 N2          8.7010   -3.8387    6.8166 N.pl3     1 <0>        -1.2567
     26 C16         0.5573   -0.5564   -1.3123 C.3       1 <0>        -0.1441
     27 H2          1.0039    1.9031    0.0027 H         1 <0>         0.0608
     28 H3         -0.5459    1.8868   -0.8726 H         1 <0>         0.0587
     29 H4         -0.5289    1.8773    0.9072 H         1 <0>         0.0657
     30 H5         -2.0139    0.9442    1.7698 H         1 <0>         0.0754
     31 H6         -2.2447   -0.7250    2.3766 H         1 <0>         0.0705
     32 H7          0.1075    0.9770    2.6754 H         1 <0>         0.0887
     33 H8         -0.1194   -0.6957    3.2733 H         1 <0>         0.0744
     34 H9         -1.6944   -2.5995    1.2394 H         1 <0>         0.0971
     35 H10        -1.0114   -2.6299   -0.4151 H         1 <0>         0.0981
     36 H11         2.7661   -0.6291    0.4954 H         1 <0>         0.1246
     37 H12         2.3571    0.8318    1.4264 H         1 <0>         0.1281
     38 H13         3.7934   -2.0925    4.9264 H         1 <0>         0.1094
     39 H14         5.2634   -2.8452    6.7510 H         1 <0>         0.1206
     40 H15         8.5425   -0.7721    4.9777 H         1 <0>         0.1238
     41 H16         7.0838   -0.0229    3.1425 H         1 <0>         0.1207
     42 H17         8.4748   -4.2194    5.9536 H         1 <0>         0.4159
     43 H18         9.3144   -4.3044    7.4064 H         1 <0>         0.4106
     44 H19         1.5815   -0.2093   -1.4485 H         1 <0>         0.0626
     45 H20         0.5437   -1.6460   -1.2831 H         1 <0>         0.0559
     46 H21        -0.0579   -0.2075   -2.1418 H         1 <0>         0.0624
@<TRIPOS>BOND
     1    1    2 1
     2    1   27 1
     3    1   28 1
     4    1   29 1
     5    2    7 1
     6    2    3 1
     7    2   26 1
     8    3    4 1
     9    3   10 1
    10    3    5 1
    11    5    6 1
    12    5   30 1
    13    5   31 1
    14    6    7 1
    15    6   32 1
    16    6   33 1
    17    7    8 1
    18    7   11 1
    19    8    9 2
    20    8   10 1
    21   10   34 1
    22   10   35 1
    23   11   12 1
    24   11   36 1
    25   11   37 1
    26   12   13 2
    27   12   14 2
    28   12   15 1
    29   15   16 1
    30   16   21 ar
    31   16   17 ar
    32   17   18 ar
    33   17   38 1
    34   18   19 ar
    35   18   39 1
    36   19   20 ar
    37   19   22 1
    38   20   21 ar
    39   20   40 1
    40   21   41 1
    41   22   23 2
    42   22   24 2
    43   22   25 1
    44   25   42 1
    45   25   43 1
    46   26   44 1
    47   26   45 1
    48   26   46 1
@<TRIPOS>MOLECULE
ZINC03356651
   50    52     0     0     0
SMALL
USER_CHARGES

@<TRIPOS>ATOM
      1 C1         -0.0187    1.5258    0.0104 C.3       1 <0>        -0.1482
      2 C2          0.0021   -0.0041    0.0020 C.3       1 <0>        -0.0457
      3 C3         -1.4002   -0.6155    0.3559 C.3       1 <0>        -0.0867
      4 H1         -2.2170   -0.3827   -0.3273 H         1 <0>         0.1167
      5 C4         -1.0293   -2.1244    0.4923 C.3       1 <0>        -0.1241
      6 C5          0.3989   -2.1190    1.0845 C.3       1 <0>        -0.1224
      7 C6          0.7491   -0.5910    1.2511 C.3       1 <0>        -0.1174
      8 C7         -0.1519   -0.0892    2.3884 C.2       1 <0>         0.3447
      9 O1          0.1875    0.2463    3.4977 O.2       1 <0>        -0.3909
     10 C8         -1.5635   -0.1042    1.8203 C.3       1 <0>        -0.1752
     11 C9          2.2381   -0.2578    1.3641 C.3       1 <0>        -0.6007
     12 S1          2.9165   -1.0214    2.8631 S.o2      1 <0>         2.5986
     13 O2          2.3684   -0.4023    4.0188 O.2       1 <0>        -0.9181
     14 O3          2.9211   -2.4364    2.7326 O.2       1 <0>        -0.9512
     15 N1          4.5160   -0.5927    2.8726 N.pl3     1 <0>        -1.1184
     16 C10         4.8964    0.8146    3.0180 C.3       1 <0>         0.1463
     17 C11         6.3604    0.9061    3.3637 C.ar      1 <0>        -0.0419
     18 C12         6.7601    0.8955    4.6869 C.ar      1 <0>        -0.1203
     19 C13         8.1029    0.9795    5.0040 C.ar      1 <0>        -0.0176
     20 C14         9.0461    1.0735    3.9978 C.ar      1 <0>        -0.6700
     21 C15         8.6465    1.0832    2.6745 C.ar      1 <0>        -0.0190
     22 C16         7.3039    0.9949    2.3573 C.ar      1 <0>        -0.1251
     23 S2         10.7577    1.1817    4.4020 S.o2      1 <0>         2.7010
     24 O4         11.3966    1.8096    3.2989 O.2       1 <0>        -0.9613
     25 O5         10.8311    1.7023    5.7222 O.2       1 <0>        -0.9605
     26 N2         11.3435   -0.3657    4.4701 N.pl3     1 <0>        -1.2495
     27 C17         0.5573   -0.5564   -1.3123 C.3       1 <0>        -0.1410
     28 H2          1.0039    1.9031    0.0027 H         1 <0>         0.0603
     29 H3         -0.5459    1.8868   -0.8726 H         1 <0>         0.0684
     30 H4         -0.5289    1.8773    0.9072 H         1 <0>         0.0592
     31 H5         -1.7202   -2.6265    1.1696 H         1 <0>         0.0754
     32 H6         -1.0343   -2.6074   -0.4848 H         1 <0>         0.0800
     33 H7          0.4096   -2.6138    2.0557 H         1 <0>         0.0754
     34 H8          1.0955   -2.6051    0.4015 H         1 <0>         0.0919
     35 H9         -1.9853    0.9008    1.8262 H         1 <0>         0.1042
     36 H10        -2.1949   -0.7848    2.3914 H         1 <0>         0.1033
     37 H11         2.7638   -0.6428    0.4903 H         1 <0>         0.1422
     38 H12         2.3654    0.8234    1.4175 H         1 <0>         0.1361
     39 H13         5.2011   -1.2734    2.7818 H         1 <0>         0.4195
     40 H14         4.7108    1.3398    2.0811 H         1 <0>         0.0800
     41 H15         4.3062    1.2702    3.8131 H         1 <0>         0.0982
     42 H16         6.0232    0.8221    5.4730 H         1 <0>         0.1407
     43 H17         8.4152    0.9720    6.0379 H         1 <0>         0.1476
     44 H18         9.3834    1.1570    1.8884 H         1 <0>         0.1469
     45 H19         6.9919    0.9987    1.3234 H         1 <0>         0.1383
     46 H20        10.7528   -1.1159    4.2990 H         1 <0>         0.4170
     47 H21        12.2773   -0.5220    4.6811 H         1 <0>         0.4224
     48 H22         1.5815   -0.2093   -1.4485 H         1 <0>         0.0586
     49 H23         0.5437   -1.6460   -1.2831 H         1 <0>         0.0676
     50 H24        -0.0579   -0.2075   -2.1418 H         1 <0>         0.0648
@<TRIPOS>BOND
     1    1    2 1
     2    1   28 1
     3    1   29 1
     4    1   30 1
     5    2    7 1
     6    2    3 1
     7    2   27 1
     8    3    4 1
     9    3   10 1
    10    3    5 1
    11    5    6 1
    12    5   31 1
    13    5   32 1
    14    6    7 1
    15    6   33 1
    16    6   34 1
    17    7    8 1
    18    7   11 1
    19    8    9 2
    20    8   10 1
    21   10   35 1
    22   10   36 1
    23   11   12 1
    24   11   37 1
    25   11   38 1
    26   12   13 2
    27   12   14 2
    28   12   15 1
    29   15   16 1
    30   15   39 1
    31   16   17 1
    32   16   40 1
    33   16   41 1
    34   17   22 ar
    35   17   18 ar
    36   18   19 ar
    37   18   42 1
    38   19   20 ar
    39   19   43 1
    40   20   21 ar
    41   20   23 1
    42   21   22 ar
    43   21   44 1
    44   22   45 1
    45   23   24 2
    46   23   25 2
    47   23   26 1
    48   26   46 1
    49   26   47 1
    50   27   48 1
    51   27   49 1
    52   27   50 1
@<TRIPOS>MOLECULE
ZINC03356652
   50    52     0     0     0
SMALL
USER_CHARGES

@<TRIPOS>ATOM
      1 C1         -0.0187    1.5258    0.0104 C.3       1 <0>        -0.1411
      2 C2          0.0021   -0.0041    0.0020 C.3       1 <0>        -0.0458
      3 C3         -1.4002   -0.6155    0.3559 C.3       1 <0>        -0.0867
      4 H1         -2.2079   -0.4157   -0.3482 H         1 <0>         0.1167
      5 C4         -1.5979   -0.0628    1.8011 C.3       1 <0>        -0.1243
      6 C5         -0.1745   -0.0404    2.4041 C.3       1 <0>        -0.1220
      7 C6          0.7491   -0.5910    1.2511 C.3       1 <0>        -0.1176
      8 C7          0.3972   -2.0800    1.1247 C.2       1 <0>         0.3447
      9 O1          1.0892   -3.0237    1.4225 O.2       1 <0>        -0.3917
     10 C8         -1.0093   -2.1135    0.5448 C.3       1 <0>        -0.1751
     11 C9          2.2359   -0.2499    1.3691 C.3       1 <0>        -0.6001
     12 S1          2.9147   -1.0147    2.8674 S.o2      1 <0>         2.5985
     13 O2          2.3601   -0.4025    4.0237 O.2       1 <0>        -0.9499
     14 O3          2.9275   -2.4292    2.7321 O.2       1 <0>        -0.9196
     15 N1          4.5117   -0.5772    2.8824 N.pl3     1 <0>        -1.1184
     16 C10         4.8839    0.8317    3.0335 C.3       1 <0>         0.1458
     17 C11         6.3464    0.9302    3.3833 C.ar      1 <0>        -0.0425
     18 C12         6.7427    0.9175    4.7076 C.ar      1 <0>        -0.1206
     19 C13         8.0843    1.0078    5.0285 C.ar      1 <0>        -0.0176
     20 C14         9.0295    1.1105    4.0251 C.ar      1 <0>        -0.6698
     21 C15         8.6333    1.1223    2.7008 C.ar      1 <0>        -0.0188
     22 C16         7.2921    1.0276    2.3798 C.ar      1 <0>        -0.1248
     23 S2         10.7395    1.2268    4.4341 S.o2      1 <0>         2.7010
     24 O4         11.3777    1.8620    3.3348 O.2       1 <0>        -0.9612
     25 O5         10.8065    1.7434    5.7562 O.2       1 <0>        -0.9606
     26 N2         11.3337   -0.3175    4.4986 N.pl3     1 <0>        -1.2494
     27 C17         0.5573   -0.5564   -1.3123 C.3       1 <0>        -0.1472
     28 H2          1.0039    1.9031    0.0027 H         1 <0>         0.0585
     29 H3         -0.5459    1.8868   -0.8726 H         1 <0>         0.0646
     30 H4         -0.5289    1.8773    0.9072 H         1 <0>         0.0681
     31 H5         -2.0139    0.9442    1.7698 H         1 <0>         0.0803
     32 H6         -2.2447   -0.7250    2.3766 H         1 <0>         0.0755
     33 H7          0.1075    0.9770    2.6754 H         1 <0>         0.0919
     34 H8         -0.1194   -0.6957    3.2733 H         1 <0>         0.0757
     35 H9         -1.6944   -2.5995    1.2394 H         1 <0>         0.1033
     36 H10        -1.0114   -2.6299   -0.4151 H         1 <0>         0.1040
     37 H11         2.7661   -0.6291    0.4954 H         1 <0>         0.1388
     38 H12         2.3571    0.8318    1.4264 H         1 <0>         0.1396
     39 H13         5.2008   -1.2537    2.7912 H         1 <0>         0.4207
     40 H14         4.6978    1.3590    2.0979 H         1 <0>         0.0803
     41 H15         4.2891    1.2813    3.8286 H         1 <0>         0.0969
     42 H16         6.0042    0.8373    5.4915 H         1 <0>         0.1404
     43 H17         8.3938    0.9986    6.0631 H         1 <0>         0.1476
     44 H18         9.3718    1.2028    1.9169 H         1 <0>         0.1470
     45 H19         6.9828    1.0331    1.3450 H         1 <0>         0.1384
     46 H20        10.7476   -1.0704    4.3235 H         1 <0>         0.4171
     47 H21        12.2677   -0.4693    4.7115 H         1 <0>         0.4224
     48 H22         1.5815   -0.2093   -1.4485 H         1 <0>         0.0609
     49 H23         0.5437   -1.6460   -1.2831 H         1 <0>         0.0578
     50 H24        -0.0579   -0.2075   -2.1418 H         1 <0>         0.0685
@<TRIPOS>BOND
     1    1    2 1
     2    1   28 1
     3    1   29 1
     4    1   30 1
     5    2    7 1
     6    2    3 1
     7    2   27 1
     8    3    4 1
     9    3   10 1
    10    3    5 1
    11    5    6 1
    12    5   31 1
    13    5   32 1
    14    6    7 1
    15    6   33 1
    16    6   34 1
    17    7    8 1
    18    7   11 1
    19    8    9 2
    20    8   10 1
    21   10   35 1
    22   10   36 1
    23   11   12 1
    24   11   37 1
    25   11   38 1
    26   12   13 2
    27   12   14 2
    28   12   15 1
    29   15   16 1
    30   15   39 1
    31   16   17 1
    32   16   40 1
    33   16   41 1
    34   17   22 ar
    35   17   18 ar
    36   18   19 ar
    37   18   42 1
    38   19   20 ar
    39   19   43 1
    40   20   21 ar
    41   20   23 1
    42   21   22 ar
    43   21   44 1
    44   22   45 1
    45   23   24 2
    46   23   25 2
    47   23   26 1
    48   26   46 1
    49   26   47 1
    50   27   48 1
    51   27   49 1
    52   27   50 1
@<TRIPOS>MOLECULE
ZINC05727907
   53    55     0     0     0
SMALL
USER_CHARGES

@<TRIPOS>ATOM
      1 C1         -0.0187    1.5258    0.0104 C.3       1 <0>        -0.1479
      2 C2          0.0021   -0.0041    0.0020 C.3       1 <0>        -0.0459
      3 C3         -1.4002   -0.6155    0.3559 C.3       1 <0>        -0.0867
      4 H1         -2.2170   -0.3827   -0.3273 H         1 <0>         0.1166
      5 C4         -1.0293   -2.1244    0.4923 C.3       1 <0>        -0.1241
      6 C5          0.3989   -2.1190    1.0845 C.3       1 <0>        -0.1225
      7 C6          0.7491   -0.5910    1.2511 C.3       1 <0>        -0.1171
      8 C7         -0.1519   -0.0892    2.3884 C.2       1 <0>         0.3446
      9 O1          0.1875    0.2463    3.4977 O.2       1 <0>        -0.3909
     10 C8         -1.5635   -0.1042    1.8203 C.3       1 <0>        -0.1752
     11 C9          2.2381   -0.2578    1.3641 C.3       1 <0>        -0.6007
     12 S1          2.9165   -1.0214    2.8631 S.o2      1 <0>         2.5993
     13 O2          2.3684   -0.4023    4.0188 O.2       1 <0>        -0.9195
     14 O3          2.9211   -2.4364    2.7326 O.2       1 <0>        -0.9531
     15 N1          4.5160   -0.5927    2.8726 N.pl3     1 <0>        -1.1226
     16 C10         4.8964    0.8146    3.0180 C.3       1 <0>         0.1181
     17 C11         6.3827    0.9075    3.3689 C.3       1 <0>        -0.0973
     18 C12         6.7740    2.3551    3.5185 C.ar      1 <0>        -0.0250
     19 C13         7.2202    3.0674    2.4211 C.ar      1 <0>        -0.1365
     20 C14         7.5791    4.3953    2.5583 C.ar      1 <0>        -0.0158
     21 C15         7.4913    5.0110    3.7929 C.ar      1 <0>        -0.6775
     22 C16         7.0443    4.2989    4.8901 C.ar      1 <0>        -0.0141
     23 C17         6.6813    2.9722    4.7520 C.ar      1 <0>        -0.1342
     24 S2          7.9499    6.7032    3.9680 S.o2      1 <0>         2.7007
     25 O4          8.2946    6.8913    5.3337 O.2       1 <0>        -0.9618
     26 O5          8.8514    6.9915    2.9081 O.2       1 <0>        -0.9626
     27 N2          6.5914    7.6096    3.6936 N.pl3     1 <0>        -1.2498
     28 C18         0.5573   -0.5564   -1.3123 C.3       1 <0>        -0.1410
     29 H2          1.0039    1.9031    0.0027 H         1 <0>         0.0599
     30 H3         -0.5459    1.8868   -0.8726 H         1 <0>         0.0683
     31 H4         -0.5289    1.8773    0.9072 H         1 <0>         0.0590
     32 H5         -1.7202   -2.6265    1.1696 H         1 <0>         0.0754
     33 H6         -1.0343   -2.6074   -0.4848 H         1 <0>         0.0799
     34 H7          0.4096   -2.6138    2.0557 H         1 <0>         0.0755
     35 H8          1.0955   -2.6051    0.4015 H         1 <0>         0.0919
     36 H9         -1.9853    0.9008    1.8262 H         1 <0>         0.1040
     37 H10        -2.1949   -0.7848    2.3914 H         1 <0>         0.1032
     38 H11         2.7638   -0.6428    0.4903 H         1 <0>         0.1415
     39 H12         2.3654    0.8234    1.4175 H         1 <0>         0.1350
     40 H13         5.2011   -1.2734    2.7818 H         1 <0>         0.4187
     41 H14         4.7108    1.3398    2.0811 H         1 <0>         0.0677
     42 H15         4.3062    1.2702    3.8131 H         1 <0>         0.0867
     43 H16         6.5683    0.3822    4.3058 H         1 <0>         0.0917
     44 H17         6.9729    0.4519    2.5739 H         1 <0>         0.0895
     45 H18         7.2887    2.5864    1.4566 H         1 <0>         0.1361
     46 H19         7.9284    4.9516    1.7011 H         1 <0>         0.1448
     47 H20         6.9761    4.7798    5.8547 H         1 <0>         0.1457
     48 H21         6.3285    2.4169    5.6085 H         1 <0>         0.1382
     49 H22         5.7514    7.1728    3.4828 H         1 <0>         0.4168
     50 H23         6.6357    8.5772    3.7438 H         1 <0>         0.4219
     51 H24         1.5815   -0.2093   -1.4485 H         1 <0>         0.0585
     52 H25         0.5437   -1.6460   -1.2831 H         1 <0>         0.0677
     53 H26        -0.0579   -0.2075   -2.1418 H         1 <0>         0.0647
@<TRIPOS>BOND
     1    1    2 1
     2    1   29 1
     3    1   30 1
     4    1   31 1
     5    2    7 1
     6    2    3 1
     7    2   28 1
     8    3    4 1
     9    3   10 1
    10    3    5 1
    11    5    6 1
    12    5   32 1
    13    5   33 1
    14    6    7 1
    15    6   34 1
    16    6   35 1
    17    7    8 1
    18    7   11 1
    19    8    9 2
    20    8   10 1
    21   10   36 1
    22   10   37 1
    23   11   12 1
    24   11   38 1
    25   11   39 1
    26   12   13 2
    27   12   14 2
    28   12   15 1
    29   15   16 1
    30   15   40 1
    31   16   17 1
    32   16   41 1
    33   16   42 1
    34   17   18 1
    35   17   43 1
    36   17   44 1
    37   18   23 ar
    38   18   19 ar
    39   19   20 ar
    40   19   45 1
    41   20   21 ar
    42   20   46 1
    43   21   22 ar
    44   21   24 1
    45   22   23 ar
    46   22   47 1
    47   23   48 1
    48   24   25 2
    49   24   26 2
    50   24   27 1
    51   27   49 1
    52   27   50 1
    53   28   51 1
    54   28   52 1
    55   28   53 1
@<TRIPOS>MOLECULE
ZINC05727845
   53    55     0     0     0
SMALL
USER_CHARGES

@<TRIPOS>ATOM
      1 C1         -0.0187    1.5258    0.0104 C.3       1 <0>        -0.1408
      2 C2          0.0021   -0.0041    0.0020 C.3       1 <0>        -0.0460
      3 C3         -1.4002   -0.6155    0.3559 C.3       1 <0>        -0.0867
      4 H1         -2.2079   -0.4157   -0.3482 H         1 <0>         0.1167
      5 C4         -1.5979   -0.0628    1.8011 C.3       1 <0>        -0.1243
      6 C5         -0.1745   -0.0404    2.4041 C.3       1 <0>        -0.1219
      7 C6          0.7491   -0.5910    1.2511 C.3       1 <0>        -0.1173
      8 C7          0.3972   -2.0800    1.1247 C.2       1 <0>         0.3445
      9 O1          1.0892   -3.0237    1.4225 O.2       1 <0>        -0.3914
     10 C8         -1.0093   -2.1135    0.5448 C.3       1 <0>        -0.1751
     11 C9          2.2359   -0.2499    1.3691 C.3       1 <0>        -0.6001
     12 S1          2.9147   -1.0147    2.8674 S.o2      1 <0>         2.5992
     13 O2          2.3601   -0.4025    4.0237 O.2       1 <0>        -0.9513
     14 O3          2.9275   -2.4292    2.7321 O.2       1 <0>        -0.9216
     15 N1          4.5117   -0.5772    2.8824 N.pl3     1 <0>        -1.1226
     16 C10         4.8839    0.8317    3.0335 C.3       1 <0>         0.1176
     17 C11         6.3687    0.9317    3.3887 C.3       1 <0>        -0.0980
     18 C12         6.7515    2.3810    3.5441 C.ar      1 <0>        -0.0248
     19 C13         7.1966    3.0994    2.4502 C.ar      1 <0>        -0.1364
     20 C14         7.5478    4.4288    2.5928 C.ar      1 <0>        -0.0155
     21 C15         7.4534    5.0399    3.8292 C.ar      1 <0>        -0.6775
     22 C16         7.0074    4.3216    4.9229 C.ar      1 <0>        -0.0142
     23 C17         6.6522    2.9934    4.7794 C.ar      1 <0>        -0.1347
     24 S2          7.9021    6.7340    4.0111 S.o2      1 <0>         2.7006
     25 O4          8.2422    6.9195    5.3783 O.2       1 <0>        -0.9618
     26 O5          8.8047    7.0308    2.9545 O.2       1 <0>        -0.9624
     27 N2          6.5393    7.6337    3.7362 N.pl3     1 <0>        -1.2498
     28 C18         0.5573   -0.5564   -1.3123 C.3       1 <0>        -0.1472
     29 H2          1.0039    1.9031    0.0027 H         1 <0>         0.0581
     30 H3         -0.5459    1.8868   -0.8726 H         1 <0>         0.0645
     31 H4         -0.5289    1.8773    0.9072 H         1 <0>         0.0679
     32 H5         -2.0139    0.9442    1.7698 H         1 <0>         0.0800
     33 H6         -2.2447   -0.7250    2.3766 H         1 <0>         0.0755
     34 H7          0.1075    0.9770    2.6754 H         1 <0>         0.0914
     35 H8         -0.1194   -0.6957    3.2733 H         1 <0>         0.0757
     36 H9         -1.6944   -2.5995    1.2394 H         1 <0>         0.1032
     37 H10        -1.0114   -2.6299   -0.4151 H         1 <0>         0.1040
     38 H11         2.7661   -0.6291    0.4954 H         1 <0>         0.1381
     39 H12         2.3571    0.8318    1.4264 H         1 <0>         0.1385
     40 H13         5.2008   -1.2537    2.7912 H         1 <0>         0.4200
     41 H14         4.6978    1.3590    2.0979 H         1 <0>         0.0681
     42 H15         4.2891    1.2813    3.8286 H         1 <0>         0.0854
     43 H16         6.5549    0.4044    4.3243 H         1 <0>         0.0918
     44 H17         6.9636    0.4821    2.5936 H         1 <0>         0.0898
     45 H18         7.2704    2.6220    1.4843 H         1 <0>         0.1363
     46 H19         7.8962    4.9899    1.7383 H         1 <0>         0.1449
     47 H20         6.9340    4.7989    5.8889 H         1 <0>         0.1456
     48 H21         6.3003    2.4333    5.6331 H         1 <0>         0.1380
     49 H22         5.7022    7.1930    3.5216 H         1 <0>         0.4167
     50 H23         6.5780    8.6015    3.7896 H         1 <0>         0.4220
     51 H24         1.5815   -0.2093   -1.4485 H         1 <0>         0.0608
     52 H25         0.5437   -1.6460   -1.2831 H         1 <0>         0.0579
     53 H26        -0.0579   -0.2075   -2.1418 H         1 <0>         0.0684
@<TRIPOS>BOND
     1    1    2 1
     2    1   29 1
     3    1   30 1
     4    1   31 1
     5    2    7 1
     6    2    3 1
     7    2   28 1
     8    3    4 1
     9    3   10 1
    10    3    5 1
    11    5    6 1
    12    5   32 1
    13    5   33 1
    14    6    7 1
    15    6   34 1
    16    6   35 1
    17    7    8 1
    18    7   11 1
    19    8    9 2
    20    8   10 1
    21   10   36 1
    22   10   37 1
    23   11   12 1
    24   11   38 1
    25   11   39 1
    26   12   13 2
    27   12   14 2
    28   12   15 1
    29   15   16 1
    30   15   40 1
    31   16   17 1
    32   16   41 1
    33   16   42 1
    34   17   18 1
    35   17   43 1
    36   17   44 1
    37   18   23 ar
    38   18   19 ar
    39   19   20 ar
    40   19   45 1
    41   20   21 ar
    42   20   46 1
    43   21   22 ar
    44   21   24 1
    45   22   23 ar
    46   22   47 1
    47   23   48 1
    48   24   25 2
    49   24   26 2
    50   24   27 1
    51   27   49 1
    52   27   50 1
    53   28   51 1
    54   28   52 1
    55   28   53 1
@<TRIPOS>MOLECULE
ZINC04332839
   46    48     0     0     0
SMALL
USER_CHARGES

@<TRIPOS>ATOM
      1 C1         -0.0187    1.5258    0.0104 C.3       1 <0>        -0.1455
      2 C2          0.0021   -0.0041    0.0020 C.3       1 <0>        -0.0512
      3 C3         -1.4002   -0.6155    0.3559 C.3       1 <0>        -0.0879
      4 H1         -2.2170   -0.3827   -0.3273 H         1 <0>         0.1105
      5 C4         -1.0293   -2.1244    0.4923 C.3       1 <0>        -0.1217
      6 C5          0.3989   -2.1190    1.0845 C.3       1 <0>        -0.1200
      7 C6          0.7491   -0.5910    1.2511 C.3       1 <0>        -0.1078
      8 C7         -0.1519   -0.0892    2.3884 C.2       1 <0>         0.3373
      9 O1          0.1875    0.2463    3.4977 O.2       1 <0>        -0.3797
     10 C8         -1.5635   -0.1042    1.8203 C.3       1 <0>        -0.1736
     11 C9          2.2381   -0.2578    1.3641 C.3       1 <0>        -0.5692
     12 S1          2.9165   -1.0214    2.8631 S.o2      1 <0>         2.5268
     13 O2          2.3684   -0.4023    4.0188 O.2       1 <0>        -0.9953
     14 O3          2.9211   -2.4364    2.7326 O.2       1 <0>        -1.0285
     15 N1          4.5160   -0.5927    2.8726 N.2       1 <0>        -1.1049
     16 C10         5.3480   -1.0221    3.9091 C.ar      1 <0>         0.2672
     17 C11         4.8366   -1.8136    4.9299 C.ar      1 <0>        -0.2064
     18 C12         5.6620   -2.2367    5.9528 C.ar      1 <0>        -0.0857
     19 C13         6.9963   -1.8731    5.9622 C.ar      1 <0>        -0.1352
     20 C14         7.5085   -1.0851    4.9480 C.ar      1 <0>        -0.6254
     21 C15         6.6898   -0.6635    3.9185 C.ar      1 <0>        -0.0850
     22 S2          9.2089   -0.6237    4.9655 S.o2      1 <0>         2.6994
     23 O4          9.3148    0.5663    4.1961 O.2       1 <0>        -0.9734
     24 O5          9.6356   -0.6963    6.3190 O.2       1 <0>        -0.9784
     25 N2         10.0424   -1.7947    4.1430 N.pl3     1 <0>        -1.2527
     26 C16         0.5573   -0.5564   -1.3123 C.3       1 <0>        -0.1380
     27 H2          1.0039    1.9031    0.0027 H         1 <0>         0.0630
     28 H3         -0.5459    1.8868   -0.8726 H         1 <0>         0.0621
     29 H4         -0.5289    1.8773    0.9072 H         1 <0>         0.0567
     30 H5         -1.7202   -2.6265    1.1696 H         1 <0>         0.0698
     31 H6         -1.0343   -2.6074   -0.4848 H         1 <0>         0.0748
     32 H7          0.4096   -2.6138    2.0557 H         1 <0>         0.0738
     33 H8          1.0955   -2.6051    0.4015 H         1 <0>         0.0885
     34 H9         -1.9853    0.9008    1.8262 H         1 <0>         0.0981
     35 H10        -2.1949   -0.7848    2.3914 H         1 <0>         0.0966
     36 H11         2.7638   -0.6428    0.4903 H         1 <0>         0.1273
     37 H12         2.3654    0.8234    1.4175 H         1 <0>         0.1243
     38 H13         3.7945   -2.0974    4.9236 H         1 <0>         0.1079
     39 H14         5.2650   -2.8521    6.7467 H         1 <0>         0.1122
     40 H15         7.6397   -2.2051    6.7636 H         1 <0>         0.1221
     41 H16         7.0915   -0.0519    3.1241 H         1 <0>         0.1319
     42 H17         9.5687   -2.5518    3.7644 H         1 <0>         0.4173
     43 H18        11.0043   -1.7236    4.0400 H         1 <0>         0.4133
     44 H19         1.5815   -0.2093   -1.4485 H         1 <0>         0.0607
     45 H20         0.5437   -1.6460   -1.2831 H         1 <0>         0.0654
     46 H21        -0.0579   -0.2075   -2.1418 H         1 <0>         0.0585
@<TRIPOS>BOND
     1    1    2 1
     2    1   27 1
     3    1   28 1
     4    1   29 1
     5    2    7 1
     6    2    3 1
     7    2   26 1
     8    3    4 1
     9    3   10 1
    10    3    5 1
    11    5    6 1
    12    5   30 1
    13    5   31 1
    14    6    7 1
    15    6   32 1
    16    6   33 1
    17    7    8 1
    18    7   11 1
    19    8    9 2
    20    8   10 1
    21   10   34 1
    22   10   35 1
    23   11   12 1
    24   11   36 1
    25   11   37 1
    26   12   13 2
    27   12   14 2
    28   12   15 1
    29   15   16 1
    30   16   21 ar
    31   16   17 ar
    32   17   18 ar
    33   17   38 1
    34   18   19 ar
    35   18   39 1
    36   19   20 ar
    37   19   40 1
    38   20   21 ar
    39   20   22 1
    40   21   41 1
    41   22   23 2
    42   22   24 2
    43   22   25 1
    44   25   42 1
    45   25   43 1
    46   26   44 1
    47   26   45 1
    48   26   46 1
@<TRIPOS>MOLECULE
ZINC04332840
   46    48     0     0     0
SMALL
USER_CHARGES

@<TRIPOS>ATOM
      1 C1         -0.0187    1.5258    0.0104 C.3       1 <0>        -0.1387
      2 C2          0.0021   -0.0041    0.0020 C.3       1 <0>        -0.0512
      3 C3         -1.4002   -0.6155    0.3559 C.3       1 <0>        -0.0880
      4 H1         -2.2079   -0.4157   -0.3482 H         1 <0>         0.1105
      5 C4         -1.5979   -0.0628    1.8011 C.3       1 <0>        -0.1220
      6 C5         -0.1745   -0.0404    2.4041 C.3       1 <0>        -0.1202
      7 C6          0.7491   -0.5910    1.2511 C.3       1 <0>        -0.1079
      8 C7          0.3972   -2.0800    1.1247 C.2       1 <0>         0.3378
      9 O1          1.0892   -3.0237    1.4225 O.2       1 <0>        -0.3805
     10 C8         -1.0093   -2.1135    0.5448 C.3       1 <0>        -0.1734
     11 C9          2.2359   -0.2499    1.3691 C.3       1 <0>        -0.5692
     12 S1          2.9147   -1.0147    2.8674 S.o2      1 <0>         2.5269
     13 O2          2.3601   -0.4025    4.0237 O.2       1 <0>        -1.0274
     14 O3          2.9275   -2.4292    2.7321 O.2       1 <0>        -0.9965
     15 N1          4.5117   -0.5772    2.8824 N.2       1 <0>        -1.1050
     16 C10         5.3434   -1.0054    3.9197 C.ar      1 <0>         0.2672
     17 C11         4.8337   -1.8031    4.9365 C.ar      1 <0>        -0.2063
     18 C12         5.6588   -2.2251    5.9602 C.ar      1 <0>        -0.0857
     19 C13         6.9911   -1.8540    5.9743 C.ar      1 <0>        -0.1351
     20 C14         7.5015   -1.0598    4.9641 C.ar      1 <0>        -0.6255
     21 C15         6.6831   -0.6393    3.9338 C.ar      1 <0>        -0.0850
     22 S2          9.1993   -0.5891    4.9875 S.o2      1 <0>         2.6995
     23 O4          9.3005    0.6041    4.2224 O.2       1 <0>        -0.9736
     24 O5          9.6228   -0.6638    6.3419 O.2       1 <0>        -0.9785
     25 N2         10.0414   -1.7527    4.1634 N.pl3     1 <0>        -1.2527
     26 C16         0.5573   -0.5564   -1.3123 C.3       1 <0>        -0.1439
     27 H2          1.0039    1.9031    0.0027 H         1 <0>         0.0613
     28 H3         -0.5459    1.8868   -0.8726 H         1 <0>         0.0583
     29 H4         -0.5289    1.8773    0.9072 H         1 <0>         0.0655
     30 H5         -2.0139    0.9442    1.7698 H         1 <0>         0.0751
     31 H6         -2.2447   -0.7250    2.3766 H         1 <0>         0.0699
     32 H7          0.1075    0.9770    2.6754 H         1 <0>         0.0886
     33 H8         -0.1194   -0.6957    3.2733 H         1 <0>         0.0738
     34 H9         -1.6944   -2.5995    1.2394 H         1 <0>         0.0965
     35 H10        -1.0114   -2.6299   -0.4151 H         1 <0>         0.0978
     36 H11         2.7661   -0.6291    0.4954 H         1 <0>         0.1240
     37 H12         2.3571    0.8318    1.4264 H         1 <0>         0.1277
     38 H13         3.7933   -2.0926    4.9265 H         1 <0>         0.1079
     39 H14         5.2632   -2.8452    6.7510 H         1 <0>         0.1122
     40 H15         7.6342   -2.1851    6.7763 H         1 <0>         0.1221
     41 H16         7.0835   -0.0229    3.1425 H         1 <0>         0.1319
     42 H17         9.5729   -2.5111    3.7810 H         1 <0>         0.4175
     43 H18        11.0031   -1.6758    4.0631 H         1 <0>         0.4133
     44 H19         1.5815   -0.2093   -1.4485 H         1 <0>         0.0629
     45 H20         0.5437   -1.6460   -1.2831 H         1 <0>         0.0557
     46 H21        -0.0579   -0.2075   -2.1418 H         1 <0>         0.0621
@<TRIPOS>BOND
     1    1    2 1
     2    1   27 1
     3    1   28 1
     4    1   29 1
     5    2    7 1
     6    2    3 1
     7    2   26 1
     8    3    4 1
     9    3   10 1
    10    3    5 1
    11    5    6 1
    12    5   30 1
    13    5   31 1
    14    6    7 1
    15    6   32 1
    16    6   33 1
    17    7    8 1
    18    7   11 1
    19    8    9 2
    20    8   10 1
    21   10   34 1
    22   10   35 1
    23   11   12 1
    24   11   36 1
    25   11   37 1
    26   12   13 2
    27   12   14 2
    28   12   15 1
    29   15   16 1
    30   16   21 ar
    31   16   17 ar
    32   17   18 ar
    33   17   38 1
    34   18   19 ar
    35   18   39 1
    36   19   20 ar
    37   19   40 1
    38   20   21 ar
    39   20   22 1
    40   21   41 1
    41   22   23 2
    42   22   24 2
    43   22   25 1
    44   25   42 1
    45   25   43 1
    46   26   44 1
    47   26   45 1
    48   26   46 1
@<TRIPOS>MOLECULE
ZINC00896918
   22    22     0     0     0
SMALL
USER_CHARGES

@<TRIPOS>ATOM
      1 C1         -0.0167    1.3778    0.0096 C.ar      1 <0>         0.0974
      2 C2          1.1707    2.0862    0.0021 C.ar      1 <0>        -0.6868
      3 C3          2.3777    1.4131   -0.0135 C.ar      1 <0>         0.0588
      4 C4          2.3983    0.0299   -0.0210 C.ar      1 <0>        -0.0734
      5 C5          1.2094   -0.6794   -0.0130 C.ar      1 <0>         0.1016
      6 C6          0.0021   -0.0041    0.0020 C.ar      1 <0>        -0.6843
      7 S1         -1.5117   -0.9057    0.0122 S.o2      1 <0>         2.7000
      8 O1         -1.3921   -1.8888    1.0313 O.2       1 <0>        -0.9349
      9 O2         -2.5575    0.0562    0.0006 O.2       1 <0>        -0.9450
     10 N1         -1.6044   -1.7230   -1.4251 N.pl3     1 <0>        -1.2435
     11 Cl1         1.2335   -2.4152   -0.0231 Cl        1 <0>         0.0087
     12 Cl2         3.9142   -0.8161   -0.0412 Cl        1 <0>        -0.0140
     13 S2          1.1451    3.8480    0.0117 S.o2      1 <0>         2.7054
     14 O3          2.3791    4.2752   -0.5486 O.2       1 <0>        -0.9481
     15 O4         -0.1113    4.2388   -0.5251 O.2       1 <0>        -0.9447
     16 N2          1.1530    4.3291    1.5963 N.pl3     1 <0>        -1.2462
     17 H1         -0.9593    1.9047    0.0259 H         1 <0>         0.1825
     18 H2          3.3048    1.9671   -0.0201 H         1 <0>         0.1751
     19 H3         -0.8907   -1.6407   -2.0768 H         1 <0>         0.4176
     20 H4         -2.3725   -2.2840   -1.6154 H         1 <0>         0.4278
     21 H5          1.1694    3.6663    2.3043 H         1 <0>         0.4190
     22 H6          1.1413    5.2737    1.8164 H         1 <0>         0.4268
@<TRIPOS>BOND
     1    1    6 ar
     2    1    2 ar
     3    1   17 1
     4    2    3 ar
     5    2   13 1
     6    3    4 ar
     7    3   18 1
     8    4    5 ar
     9    4   12 1
    10    5    6 ar
    11    5   11 1
    12    6    7 1
    13    7    8 2
    14    7    9 2
    15    7   10 1
    16   10   19 1
    17   10   20 1
    18   13   14 2
    19   13   15 2
    20   13   16 1
    21   16   21 1
    22   16   22 1
@<TRIPOS>MOLECULE
ZINC02506731
   21    21     0     0     0
SMALL
USER_CHARGES

@<TRIPOS>ATOM
      1 C1         -0.0166    1.3766    0.0096 C.ar      1 <0>        -0.0167
      2 C2          1.1707    2.0859    0.0021 C.ar      1 <0>        -0.1925
      3 C3          2.3799    1.4157   -0.0135 C.ar      1 <0>         0.0238
      4 C4          2.4059    0.0347   -0.0211 C.ar      1 <0>        -0.7469
      5 C5          1.2154   -0.6807   -0.0131 C.ar      1 <0>         0.3101
      6 C6          0.0021   -0.0041    0.0020 C.ar      1 <0>        -0.2007
      7 N1          1.2380   -2.0772   -0.0208 N.pl3     1 <0>        -0.5919
      8 N2          0.0663   -2.7793   -0.0129 N.3       1 <0>        -0.5996
      9 S1          3.9474   -0.8184   -0.0415 S.o2      1 <0>         2.7006
     10 O1          3.8584   -1.7934   -1.0714 O.2       1 <0>        -0.9719
     11 O2          4.9622    0.1761   -0.0196 O.2       1 <0>        -0.9615
     12 N3          4.0669   -1.6480    1.3867 N.pl3     1 <0>        -1.2535
     13 H1         -0.9594    1.9032    0.0259 H         1 <0>         0.1328
     14 H2          1.1532    3.1658    0.0080 H         1 <0>         0.1325
     15 H3          3.3052    1.9726   -0.0200 H         1 <0>         0.1458
     16 H4         -0.9254   -0.5574    0.0082 H         1 <0>         0.1375
     17 H5          2.0857   -2.5485   -0.0317 H         1 <0>         0.4056
     18 H6         -0.5220   -2.5097   -0.7871 H         1 <0>         0.3414
     19 H7          0.2402   -3.7732   -0.0199 H         1 <0>         0.3650
     20 H8          3.3512   -1.5955    2.0394 H         1 <0>         0.4182
     21 H9          4.8524   -2.1865    1.5706 H         1 <0>         0.4221
@<TRIPOS>BOND
     1    1    6 ar
     2    1    2 ar
     3    1   13 1
     4    2    3 ar
     5    2   14 1
     6    3    4 ar
     7    3   15 1
     8    4    5 ar
     9    4    9 1
    10    5    6 ar
    11    5    7 1
    12    6   16 1
    13    7    8 1
    14    7   17 1
    15    8   18 1
    16    8   19 1
    17    9   10 2
    18    9   11 2
    19    9   12 1
    20   12   20 1
    21   12   21 1
@<TRIPOS>MOLECULE
ZINC00056721
   26    27     0     0     0
SMALL
USER_CHARGES

@<TRIPOS>ATOM
      1 C1         -0.0187    1.5258    0.0104 C.3       1 <0>        -0.1547
      2 C2          0.0021   -0.0041    0.0020 C.3       1 <0>         0.0492
      3 O1          0.6932   -0.4774    1.1597 O.3       1 <0>        -0.3006
      4 C3          0.8020   -1.8247    1.3057 C.ar      1 <0>         0.1921
      5 C4          0.2604   -2.6828    0.3521 C.ar      1 <0>        -0.2018
      6 C5          0.3546   -4.0332    0.4731 C.ar      1 <0>         0.0140
      7 C6          1.0107   -4.6197    1.5806 C.ar      1 <0>        -0.0020
      8 C7          1.5510   -3.7250    2.5328 C.ar      1 <0>        -0.0796
      9 C8          1.4586   -2.3607    2.4030 C.ar      1 <0>        -0.1219
     10 S1          2.2658   -4.8318    3.7244 S.3       1 <0>         0.1249
     11 C9          1.8165   -6.3576    2.9091 C.2       1 <0>        -0.4422
     12 N1          1.1890   -5.9318    1.8469 N.2       1 <0>        -0.3736
     13 S2          2.1387   -8.0154    3.4117 S.o2      1 <0>         2.7381
     14 O2          3.5473   -8.1923    3.3489 O.2       1 <0>        -0.9371
     15 O3          1.3964   -8.2298    4.6043 O.2       1 <0>        -0.9317
     16 N2          1.4848   -9.0116    2.2617 N.pl3     1 <0>        -1.2315
     17 H1          1.0039    1.9031    0.0027 H         1 <0>         0.0693
     18 H2         -0.5459    1.8868   -0.8726 H         1 <0>         0.0837
     19 H3         -0.5289    1.8773    0.9072 H         1 <0>         0.0693
     20 H4         -1.0205   -0.3814    0.0098 H         1 <0>         0.0697
     21 H5          0.5123   -0.3556   -0.8948 H         1 <0>         0.0697
     22 H6         -0.2474   -2.2649   -0.5046 H         1 <0>         0.1477
     23 H7         -0.0778   -4.6673   -0.2867 H         1 <0>         0.1464
     24 H8          1.8895   -1.7116    3.1509 H         1 <0>         0.1511
     25 H9          1.8842   -9.8780    2.0868 H         1 <0>         0.4270
     26 H10         0.7024   -8.7286    1.7631 H         1 <0>         0.4245
@<TRIPOS>BOND
     1    1    2 1
     2    1   17 1
     3    1   18 1
     4    1   19 1
     5    2    3 1
     6    2   20 1
     7    2   21 1
     8    3    4 1
     9    4    9 ar
    10    4    5 ar
    11    5    6 ar
    12    5   22 1
    13    6    7 ar
    14    6   23 1
    15    7   12 1
    16    7    8 ar
    17    8    9 ar
    18    8   10 1
    19    9   24 1
    20   10   11 1
    21   11   12 2
    22   11   13 1
    23   13   14 2
    24   13   15 2
    25   13   16 1
    26   16   25 1
    27   16   26 1
@<TRIPOS>MOLECULE
ZINC08383183
   10     9     0     0     0
SMALL
USER_CHARGES
carbamoyloxyphosphonic acid
@<TRIPOS>ATOM
      1 C1          2.2946    1.6044   -0.9940 C.2       1 <0>         0.6727
      2 O1          1.8681    0.8314   -1.8289 O.2       1 <0>        -0.5539
      3 N1          3.5708    2.0326   -1.0617 N.am      1 <0>        -0.8519
      4 O2          1.4924    2.0330   -0.0013 O.3       1 <0>        -0.6917
      5 P1         -0.0180    1.4758    0.0102 P.3       1 <0>         2.1076
      6 O3          0.0021   -0.0041    0.0020 O.2       1 <0>        -1.1374
      7 H1          3.9113    2.6496   -0.3952 H         1 <0>         0.3938
      8 H2          4.1487    1.7237   -1.7768 H         1 <0>         0.4038
      9 O4         -0.7967    2.0091   -1.2942 O.3       1 <0>        -1.1759
     10 O5         -0.7716    1.9950    1.3348 O.3       1 <0>        -1.1671
@<TRIPOS>BOND
     1    1    2 2
     2    1    3 am
     3    1    4 1
     4    3    7 1
     5    3    8 1
     6    4    5 1
     7    5    6 2
     8    5    9 1
     9    5   10 1
@<TRIPOS>MOLECULE
ZINC12503151
   23    23     0     0     0
SMALL
NO_CHARGES

@<TRIPOS>ATOM
      1 C1         -0.3789    1.0705    0.3515 C.3       1 <0>        -0.1347
      2 C2          0.5076   -0.1196    0.0888 C.2       1 <0>         0.4551
      3 O1          1.3641   -0.4298    0.8951 O.3       1 <0>        -0.3923
      4 N1          0.3540   -0.8288   -1.0216 N.2       1 <0>        -0.6178
      5 C3         -0.0468   -2.1007   -0.9514 C.2       1 <0>         0.3126
      6 N2         -0.4722   -2.7924    0.1303 N.pl3     1 <0>        -0.4005
      7 N3         -0.8397   -4.1105   -0.0380 N.pl3     1 <0>        -0.2827
      8 C4         -0.7560   -4.6173   -1.2349 C.2       1 <0>        -0.3295
      9 S1         -0.1544   -3.2357   -2.1872 S.3       1 <0>         0.3047
     10 S2         -1.1447   -6.2486   -1.7756 S.o2      1 <0>         2.5478
     11 O2         -0.0915   -6.6516   -2.6403 O.2       1 <0>        -0.9992
     12 O3         -1.5023   -6.9867   -0.6152 O.2       1 <0>        -1.0188
     13 N4         -2.5089   -6.1432   -2.7085 N.2       1 <0>        -1.2921
     14 C5         -0.5404   -2.1568    1.4485 C.3       1 <0>        -0.0096
     15 H1          0.0812    1.9657   -0.0669 H         1 <0>         0.1260
     16 H2         -1.3508    0.9096   -0.1151 H         1 <0>         0.1164
     17 H3         -0.5083    1.1970    1.4263 H         1 <0>         0.1126
     18 H4         -2.8882   -6.9430   -3.1051 H         1 <0>         0.3463
     19 H5         -0.8348   -1.1136    1.3340 H         1 <0>         0.0956
     20 H6         -1.2744   -2.6760    2.0647 H         1 <0>         0.1123
     21 H7          0.4374   -2.2079    1.9275 H         1 <0>         0.0918
     22 H8         -1.1502   -4.6433    0.7107 H         1 <0>         0.4270
     23 H9          1.8975   -1.1912    0.6290 H         1 <0>         0.4290
@<TRIPOS>BOND
     1    1    2 1
     2    1   15 1
     3    1   16 1
     4    1   17 1
     5    2    3 2
     6    2    4 1
     7    3   23 1
     8    4    5 2
     9    5    9 1
    10    5    6 1
    11    6    7 1
    12    6   14 1
    13    7    8 2
    14    7   22 1
    15    8    9 1
    16    8   10 1
    17   10   11 2
    18   10   12 2
    19   10   13 1
    20   13   18 1
    21   14   19 1
    22   14   20 1
    23   14   21 1
@<TRIPOS>MOLECULE
ZINC12503151
   23    23     0     0     0
SMALL
NO_CHARGES

@<TRIPOS>ATOM
      1 C1         -1.1346    0.9241    0.3407 C.3       1 <0>        -0.1307
      2 C2          0.0031   -0.0044    0.0020 C.2       1 <0>         0.4894
      3 O1          0.9224   -0.1509    0.7852 O.3       1 <0>        -0.3736
      4 N1          0.0020   -0.6621   -1.1500 N.2       1 <0>        -0.6464
      5 C3         -0.0802   -1.9949   -1.1578 C.2       1 <0>         0.3469
      6 N2          0.0027   -2.8388   -2.2117 N.pl3     1 <0>        -0.3538
      7 N3         -0.1119   -4.1925   -1.9774 N.pl3     1 <0>        -0.2782
      8 C4         -0.2944   -4.5840   -0.7486 C.2       1 <0>        -0.3302
      9 S1         -0.3048   -3.0391    0.1407 S.3       1 <0>         0.0989
     10 S2         -0.4768   -6.2215   -0.1244 S.o2      1 <0>         2.5579
     11 O2         -1.5476   -6.1834    0.8090 O.2       1 <0>        -1.0001
     12 O3         -0.4786   -7.0877   -1.2508 O.2       1 <0>        -1.0219
     13 N4          0.8919   -6.5715    0.7396 N.2       1 <0>        -1.2976
     14 C5          0.2086   -2.3268   -3.5688 C.3       1 <0>         0.0360
     15 H1         -0.9060    1.9262   -0.0224 H         1 <0>         0.1254
     16 H2         -2.0490    0.5661   -0.1324 H         1 <0>         0.1183
     17 H3         -1.2715    0.9518    1.4217 H         1 <0>         0.1209
     18 H4          0.9868   -7.4364    1.1685 H         1 <0>         0.3466
     19 H5          1.2771   -2.2630   -3.7748 H         1 <0>         0.0931
     20 H6         -0.2601   -3.0003   -4.2862 H         1 <0>         0.0994
     21 H7         -0.2378   -1.3362   -3.6550 H         1 <0>         0.1167
     22 H8         -0.0588   -4.8327   -2.7042 H         1 <0>         0.4514
     23 H9          1.5651   -0.8215    0.5163 H         1 <0>         0.4315
@<TRIPOS>BOND
     1    1    2 1
     2    1   15 1
     3    1   16 1
     4    1   17 1
     5    2    3 2
     6    2    4 1
     7    3   23 1
     8    4    5 2
     9    5    9 1
    10    5    6 1
    11    6    7 1
    12    6   14 1
    13    7    8 2
    14    7   22 1
    15    8    9 1
    16    8   10 1
    17   10   11 2
    18   10   12 2
    19   10   13 1
    20   13   18 1
    21   14   19 1
    22   14   20 1
    23   14   21 1
@<TRIPOS>MOLECULE
ZINC01532612
   32    31     0     0     0
SMALL
USER_CHARGES

@<TRIPOS>ATOM
      1 C1         -0.0187    1.5258    0.0104 C.3       1 <0>        -0.1525
      2 C2          0.0021   -0.0041    0.0020 C.3       1 <0>        -0.1508
      3 C3         -1.4333   -0.5336    0.0129 C.3       1 <0>        -0.0098
      4 N1         -1.4134   -2.0025    0.0048 N.4       1 <0>        -0.5105
      5 C4         -2.7915   -2.5110    0.0152 C.3       1 <0>        -0.0048
      6 C5         -2.7708   -4.0408    0.0068 C.3       1 <0>        -0.1881
      7 C6         -4.2062   -4.5704    0.0177 C.3       1 <0>        -0.0022
      8 N2         -4.1863   -6.0392    0.0096 N.4       1 <0>        -0.6386
      9 C7          1.4167    2.0553   -0.0004 C.3       1 <0>        -0.0083
     10 N3          1.3968    3.5242    0.0076 N.4       1 <0>        -0.6396
     11 H1         -0.5459    1.8868   -0.8726 H         1 <0>         0.1012
     12 H2         -0.5289    1.8773    0.9072 H         1 <0>         0.1012
     13 H3          0.5123   -0.3556   -0.8948 H         1 <0>         0.1018
     14 H4          0.5293   -0.3651    0.8851 H         1 <0>         0.1017
     15 H5         -1.9435   -0.1821    0.9097 H         1 <0>         0.1401
     16 H6         -1.9605   -0.1726   -0.8702 H         1 <0>         0.1401
     17 H7         -0.9411   -2.3279   -0.8254 H         1 <0>         0.4346
     18 H8         -3.3017   -2.1594    0.9120 H         1 <0>         0.1457
     19 H9         -3.3187   -2.1499   -0.8678 H         1 <0>         0.1457
     20 H10        -2.2606   -4.3923   -0.8900 H         1 <0>         0.1137
     21 H11        -2.2436   -4.4019    0.8899 H         1 <0>         0.1137
     22 H12        -4.7164   -4.2189    0.9145 H         1 <0>         0.1458
     23 H13        -4.7334   -4.2093   -0.8654 H         1 <0>         0.1458
     24 H14        -3.7140   -6.3646   -0.8206 H         1 <0>         0.4411
     25 H15        -3.6982   -6.3735    0.8270 H         1 <0>         0.4411
     26 H16         1.9439    1.6943    0.8826 H         1 <0>         0.1382
     27 H17         1.9269    1.7038   -0.8972 H         1 <0>         0.1382
     28 H18         0.9088    3.8584   -0.8098 H         1 <0>         0.4394
     29 H19         0.9245    3.8496    0.8378 H         1 <0>         0.4394
     30 H20        -5.1329   -6.3885    0.0168 H         1 <0>         0.4534
     31 H21         2.3434    3.8734    0.0005 H         1 <0>         0.4488
     32 H22        -0.9254   -2.3367    0.8222 H         1 <0>         0.4346
@<TRIPOS>BOND
     1    1    2 1
     2    1    9 1
     3    1   11 1
     4    1   12 1
     5    2    3 1
     6    2   13 1
     7    2   14 1
     8    3    4 1
     9    3   15 1
    10    3   16 1
    11    4    5 1
    12    4   17 1
    13    4   32 1
    14    5    6 1
    15    5   18 1
    16    5   19 1
    17    6    7 1
    18    6   20 1
    19    6   21 1
    20    7    8 1
    21    7   22 1
    22    7   23 1
    23    8   24 1
    24    8   25 1
    25    8   30 1
    26    9   10 1
    27    9   26 1
    28    9   27 1
    29   10   28 1
    30   10   29 1
    31   10   31 1
@<TRIPOS>MOLECULE
ZINC28564707
   22    22     0     0     0
SMALL
USER_CHARGES
difluoro-(p-tolyl)methanesulfonamide
@<TRIPOS>ATOM
      1 C1          1.1921    0.7479    6.4723 C.3       1 <0>        -0.1148
      2 C2          0.5917    1.0794    5.1305 C.ar      1 <0>        -0.0757
      3 C3         -0.2020    2.2020    4.9867 C.ar      1 <0>        -0.1252
      4 C4         -0.7528    2.5061    3.7558 C.ar      1 <0>        -0.0733
      5 C5         -0.5092    1.6881    2.6685 C.ar      1 <0>        -0.1574
      6 C6          0.2806    0.5628    2.8133 C.ar      1 <0>        -0.1133
      7 C7          0.8349    0.2611    4.0432 C.ar      1 <0>        -0.1144
      8 C8         -1.1096    2.0196    1.3266 C.3       1 <0>        -0.1162
      9 F1         -1.2575    3.4060    1.2116 F         1 <0>        -0.1712
     10 F2         -2.3615    1.4059    1.2114 F         1 <0>        -0.1703
     11 S1         -0.0172    1.4168    0.0098 S.o2      1 <0>         2.4846
     12 O1          0.0021   -0.0041    0.0020 O.2       1 <0>        -1.0199
     13 O2          1.1953    2.1578    0.0022 O.2       1 <0>        -1.0159
     14 N1         -0.7779    1.8368   -1.3998 N.2       1 <0>        -1.2986
     15 H1          0.8889    1.5079    7.2075 H         1 <0>         0.0657
     16 H2          2.2889    0.7344    6.3899 H         1 <0>         0.0721
     17 H3          0.8367   -0.2406    6.7989 H         1 <0>         0.0713
     18 H4         -0.3921    2.8414    5.8361 H         1 <0>         0.1284
     19 H5         -1.3732    3.3830    3.6436 H         1 <0>         0.1310
     20 H6          0.4673   -0.0787    1.9648 H         1 <0>         0.1527
     21 H7          1.4553   -0.6158    4.1554 H         1 <0>         0.1323
     22 H8         -0.3206    1.5845   -2.3679 H         1 <0>         0.3281
@<TRIPOS>BOND
     1    1    2 1
     2    1   15 1
     3    1   16 1
     4    1   17 1
     5    2    7 ar
     6    2    3 ar
     7    3    4 ar
     8    3   18 1
     9    4    5 ar
    10    4   19 1
    11    5    6 ar
    12    5    8 1
    13    6    7 ar
    14    6   20 1
    15    7   21 1
    16    8    9 1
    17    8   10 1
    18    8   11 1
    19   11   12 2
    20   11   13 2
    21   11   14 1
    22   14   22 1
@<TRIPOS>MOLECULE
ZINC28564707
   23    23     0     0     0
SMALL
USER_CHARGES
difluoro-(p-tolyl)methanesulfonamide
@<TRIPOS>ATOM
      1 C1          1.1921    0.7479    6.4723 C.3       1 <0>        -0.1250
      2 C2          0.5917    1.0794    5.1305 C.ar      1 <0>        -0.0528
      3 C3         -0.2020    2.2020    4.9867 C.ar      1 <0>        -0.1178
      4 C4         -0.7528    2.5061    3.7558 C.ar      1 <0>        -0.0593
      5 C5         -0.5092    1.6881    2.6685 C.ar      1 <0>        -0.1834
      6 C6          0.2806    0.5628    2.8133 C.ar      1 <0>        -0.1180
      7 C7          0.8349    0.2611    4.0432 C.ar      1 <0>        -0.1077
      8 C8         -1.1096    2.0196    1.3266 C.3       1 <0>        -0.1220
      9 F1         -1.2575    3.4060    1.2116 F         1 <0>        -0.1623
     10 F2         -2.3615    1.4059    1.2114 F         1 <0>        -0.1525
     11 S1         -0.0172    1.4168    0.0098 S.o2      1 <0>         2.5491
     12 O1          0.0021   -0.0041    0.0020 O.2       1 <0>        -0.9017
     13 O2          1.1953    2.1578    0.0022 O.2       1 <0>        -0.9321
     14 N1         -0.7779    1.8368   -1.3998 N.pl3     1 <0>        -1.1491
     15 H1          0.8889    1.5079    7.2075 H         1 <0>         0.0721
     16 H2          2.2889    0.7344    6.3899 H         1 <0>         0.0792
     17 H3          0.8367   -0.2406    6.7989 H         1 <0>         0.0789
     18 H4         -0.3921    2.8414    5.8361 H         1 <0>         0.1377
     19 H5         -1.3732    3.3830    3.6436 H         1 <0>         0.1369
     20 H6          0.4673   -0.0787    1.9648 H         1 <0>         0.1459
     21 H7          1.4553   -0.6158    4.1554 H         1 <0>         0.1407
     22 H8         -0.1734    1.5032   -2.2561 H         1 <0>         0.4260
     23 H9         -0.8988    2.9294   -1.4397 H         1 <0>         0.4171
@<TRIPOS>BOND
     1    1    2 1
     2    1   15 1
     3    1   16 1
     4    1   17 1
     5    2    7 ar
     6    2    3 ar
     7    3    4 ar
     8    3   18 1
     9    4    5 ar
    10    4   19 1
    11    5    6 ar
    12    5    8 1
    13    6    7 ar
    14    6   20 1
    15    7   21 1
    16    8    9 1
    17    8   10 1
    18    8   11 1
    19   11   12 2
    20   11   13 2
    21   11   14 1
    22   14   22 1
    23   14   23 1
@<TRIPOS>MOLECULE
ZINC03813042
   19    19     0     0     0
SMALL
USER_CHARGES

@<TRIPOS>ATOM
      1 C1         -0.0184    1.5028    0.0103 C.3       1 <0>        -0.1669
      2 C2          0.0021   -0.0041    0.0020 C.2       1 <0>         0.5048
      3 O1          1.0605   -0.5961   -0.0113 O.2       1 <0>        -0.4597
      4 N1         -1.1558   -0.6938    0.0094 N.am      1 <0>        -0.6127
      5 C3         -1.1370   -2.0844    0.0017 C.2       1 <0>         0.2593
      6 N2         -0.1026   -2.9019   -0.0067 N.2       1 <0>        -0.3105
      7 N3         -0.2439   -4.1575   -0.0130 N.2       1 <0>        -0.1075
      8 C4         -1.4599   -4.6659   -0.0111 C.2       1 <0>        -0.5832
      9 S1         -2.4308   -3.1653    0.0083 S.3       1 <0>         0.2359
     10 S2         -1.9811   -6.3490   -0.0183 S.o2      1 <0>         2.7480
     11 O2         -1.9574   -6.7873    1.3333 O.2       1 <0>        -0.9356
     12 O3         -3.1545   -6.4075   -0.8177 O.2       1 <0>        -0.9350
     13 N4         -0.8199   -7.2178   -0.8179 N.pl3     1 <0>        -1.2313
     14 H1          1.0042    1.8801    0.0026 H         1 <0>         0.1076
     15 H2         -0.5455    1.8639   -0.8728 H         1 <0>         0.1002
     16 H3         -0.5286    1.8543    0.9071 H         1 <0>         0.1002
     17 H4         -2.0023   -0.2203    0.0200 H         1 <0>         0.4348
     18 H5         -0.6611   -8.1456   -0.5837 H         1 <0>         0.4284
     19 H6         -0.2986   -6.7988   -1.5204 H         1 <0>         0.4232
@<TRIPOS>BOND
     1    1    2 1
     2    1   14 1
     3    1   15 1
     4    1   16 1
     5    2    3 2
     6    2    4 am
     7    4    5 1
     8    4   17 1
     9    5    9 1
    10    5    6 2
    11    6    7 1
    12    7    8 2
    13    8    9 1
    14    8   10 1
    15   10   11 2
    16   10   12 2
    17   10   13 1
    18   13   18 1
    19   13   19 1
@<TRIPOS>MOLECULE
ZINC03813042
   18    18     0     0     0
SMALL
USER_CHARGES

@<TRIPOS>ATOM
      1 C1         -0.0184    1.5028    0.0103 C.3       1 <0>        -0.1624
      2 C2          0.0021   -0.0041    0.0020 C.2       1 <0>         0.5010
      3 O1          0.0203   -0.6161    1.0490 O.2       1 <0>        -0.4698
      4 N1          0.0001   -0.6716   -1.1688 N.am      1 <0>        -0.6150
      5 C3          0.0189   -2.0622   -1.1765 C.2       1 <0>         0.2229
      6 N2          0.0342   -2.8992   -0.1578 N.2       1 <0>        -0.3133
      7 N3          0.0506   -4.1518   -0.3231 N.2       1 <0>        -0.1306
      8 C4          0.0525   -4.6369   -1.5486 C.2       1 <0>        -0.4261
      9 S1          0.0209   -3.1183   -2.4906 S.3       1 <0>         0.1375
     10 S2          0.0731   -6.3097   -2.1017 S.o2      1 <0>         2.6009
     11 O2         -1.2748   -6.7592   -2.0864 O.2       1 <0>        -1.0365
     12 O3          0.8728   -6.3393   -3.2760 O.2       1 <0>        -1.0415
     13 N4          0.8799   -7.1939   -0.9573 N.2       1 <0>        -1.3126
     14 H1          1.0042    1.8801    0.0026 H         1 <0>         0.1013
     15 H2         -0.5455    1.8639   -0.8728 H         1 <0>         0.0851
     16 H3         -0.5286    1.8543    0.9071 H         1 <0>         0.1022
     17 H4         -0.0145   -0.1822   -2.0061 H         1 <0>         0.4269
     18 H5          0.9999   -8.1489   -1.0779 H         1 <0>         0.3298
@<TRIPOS>BOND
     1    1    2 1
     2    1   14 1
     3    1   15 1
     4    1   16 1
     5    2    3 2
     6    2    4 am
     7    4    5 1
     8    4   17 1
     9    5    9 1
    10    5    6 2
    11    6    7 1
    12    7    8 2
    13    8    9 1
    14    8   10 1
    15   10   11 2
    16   10   12 2
    17   10   13 1
    18   13   18 1
@<TRIPOS>MOLECULE
ZINC00119978
   35    37     0     0     0
SMALL
USER_CHARGES

@<TRIPOS>ATOM
      1 C1         -0.0167    1.3779    0.0096 C.ar      1 <0>        -0.0610
      2 C2          1.1696    2.0886    0.0021 C.ar      1 <0>        -0.1355
      3 C3          2.3802    1.4154   -0.0130 C.ar      1 <0>         0.0908
      4 C4          2.3990    0.0236   -0.0206 C.ar      1 <0>         0.0771
      5 C5          1.2071   -0.6822   -0.0130 C.ar      1 <0>        -0.1167
      6 C6          0.0021   -0.0041    0.0020 C.ar      1 <0>        -0.0830
      7 C7         -1.2936   -0.7736    0.0102 C.3       1 <0>         0.1458
      8 H1         -1.1201   -1.7884   -0.3479 H         1 <0>         0.0970
      9 C8         -1.8590   -0.8183    1.4356 C.3       1 <0>         0.0774
     10 H2         -1.1168   -1.2422    2.1121 H         1 <0>         0.0795
     11 C9         -3.1120   -1.6975    1.4281 C.3       1 <0>        -0.1008
     12 C10        -4.0118   -1.2895    0.2891 C.ar      1 <0>        -0.1920
     13 C11        -5.3448   -1.6839    0.3168 C.ar      1 <0>         0.1573
     14 C12        -6.1992   -1.3308   -0.7146 C.ar      1 <0>        -0.2027
     15 C13        -5.7231   -0.5806   -1.7796 C.ar      1 <0>         0.1581
     16 C14        -4.3960   -0.1855   -1.8071 C.ar      1 <0>        -0.1851
     17 C15        -3.5373   -0.5380   -0.7709 C.ar      1 <0>         0.1753
     18 O1         -2.2452   -0.1223   -0.8323 O.3       1 <0>        -0.2920
     19 O2         -6.5574   -0.2342   -2.7948 O.3       1 <0>        -0.4925
     20 O3         -5.8113   -2.4194    1.3600 O.3       1 <0>        -0.4918
     21 O4         -2.1991    0.5029    1.8606 O.3       1 <0>        -0.5471
     22 O5          3.5850   -0.6417   -0.0359 O.3       1 <0>        -0.4856
     23 O6          3.5476    2.1129   -0.0209 O.3       1 <0>        -0.4877
     24 H3         -0.9598    1.9038    0.0259 H         1 <0>         0.1392
     25 H4          1.1522    3.1684    0.0077 H         1 <0>         0.1364
     26 H5          1.2190   -1.7621   -0.0189 H         1 <0>         0.1353
     27 H6         -2.8221   -2.7410    1.3054 H         1 <0>         0.0902
     28 H7         -3.6445   -1.5781    2.3716 H         1 <0>         0.0880
     29 H8         -7.2339   -1.6393   -0.6898 H         1 <0>         0.1380
     30 H9         -4.0260    0.3985   -2.6368 H         1 <0>         0.1409
     31 H10        -7.0114    0.6089   -2.6604 H         1 <0>         0.3966
     32 H11        -6.1571   -1.8895    2.0913 H         1 <0>         0.3930
     33 H12        -2.5632    0.5468    2.7553 H         1 <0>         0.3808
     34 H13         3.9367   -0.8389    0.8430 H         1 <0>         0.3875
     35 H14         3.8938    2.3101    0.8602 H         1 <0>         0.3892
@<TRIPOS>BOND
     1    1    6 ar
     2    1    2 ar
     3    1   24 1
     4    2    3 ar
     5    2   25 1
     6    3    4 ar
     7    3   23 1
     8    4    5 ar
     9    4   22 1
    10    5    6 ar
    11    5   26 1
    12    6    7 1
    13    7    8 1
    14    7   18 1
    15    7    9 1
    16    9   10 1
    17    9   11 1
    18    9   21 1
    19   11   12 1
    20   11   27 1
    21   11   28 1
    22   12   17 ar
    23   12   13 ar
    24   13   14 ar
    25   13   20 1
    26   14   15 ar
    27   14   29 1
    28   15   16 ar
    29   15   19 1
    30   16   17 ar
    31   16   30 1
    32   17   18 1
    33   19   31 1
    34   20   32 1
    35   21   33 1
    36   22   34 1
    37   23   35 1
@<TRIPOS>MOLECULE
ZINC00119983
   35    37     0     0     0
SMALL
USER_CHARGES

@<TRIPOS>ATOM
      1 C1         -0.0167    1.3779    0.0096 C.ar      1 <0>        -0.0875
      2 C2          1.1696    2.0886    0.0021 C.ar      1 <0>        -0.1321
      3 C3          2.3802    1.4154   -0.0130 C.ar      1 <0>         0.0878
      4 C4          2.3990    0.0236   -0.0206 C.ar      1 <0>         0.0799
      5 C5          1.2071   -0.6822   -0.0130 C.ar      1 <0>        -0.0978
      6 C6          0.0021   -0.0041    0.0020 C.ar      1 <0>        -0.0724
      7 C7         -1.2936   -0.7736    0.0102 C.3       1 <0>         0.1449
      8 H1         -1.1302   -1.7631    0.4371 H         1 <0>         0.0922
      9 C8         -1.8224   -0.9103   -1.4233 C.3       1 <0>         0.0817
     10 H2         -2.0734    0.0744   -1.8178 H         1 <0>         0.0737
     11 C9         -3.0759   -1.7881   -1.3913 C.3       1 <0>        -0.1054
     12 C10        -4.0042   -1.3085   -0.3042 C.ar      1 <0>        -0.1944
     13 C11        -5.3364   -1.7051   -0.3406 C.ar      1 <0>         0.1607
     14 C12        -6.2168   -1.2864    0.6434 C.ar      1 <0>        -0.1995
     15 C13        -5.7673   -0.4690    1.6698 C.ar      1 <0>         0.1586
     16 C14        -4.4409   -0.0726    1.7062 C.ar      1 <0>        -0.1804
     17 C15        -3.5564   -0.4901    0.7171 C.ar      1 <0>         0.1616
     18 O1         -2.2659   -0.0703    0.7846 O.3       1 <0>        -0.2950
     19 O2         -6.6274   -0.0572    2.6380 O.3       1 <0>        -0.4915
     20 O3         -5.7767   -2.5064   -1.3460 O.3       1 <0>        -0.4913
     21 O4         -0.8272   -1.5201   -2.2478 O.3       1 <0>        -0.5487
     22 O5          3.5850   -0.6417   -0.0359 O.3       1 <0>        -0.4855
     23 O6          3.5476    2.1129   -0.0209 O.3       1 <0>        -0.4877
     24 H3         -0.9598    1.9038    0.0259 H         1 <0>         0.1338
     25 H4          1.1522    3.1684    0.0077 H         1 <0>         0.1365
     26 H5          1.2190   -1.7621   -0.0189 H         1 <0>         0.1360
     27 H6         -3.5841   -1.7300   -2.3539 H         1 <0>         0.0942
     28 H7         -2.7902   -2.8214   -1.1946 H         1 <0>         0.0882
     29 H8         -7.2509   -1.5961    0.6116 H         1 <0>         0.1400
     30 H9         -4.0917    0.5638    2.5059 H         1 <0>         0.1428
     31 H10        -6.6766   -0.6517    3.3991 H         1 <0>         0.3973
     32 H11        -5.7049   -3.4517   -1.1556 H         1 <0>         0.3955
     33 H12        -1.0970   -1.6366   -3.1690 H         1 <0>         0.3873
     34 H13         3.9367   -0.8389    0.8430 H         1 <0>         0.3877
     35 H14         3.8938    2.3101    0.8602 H         1 <0>         0.3889
@<TRIPOS>BOND
     1    1    6 ar
     2    1    2 ar
     3    1   24 1
     4    2    3 ar
     5    2   25 1
     6    3    4 ar
     7    3   23 1
     8    4    5 ar
     9    4   22 1
    10    5    6 ar
    11    5   26 1
    12    6    7 1
    13    7    8 1
    14    7   18 1
    15    7    9 1
    16    9   10 1
    17    9   11 1
    18    9   21 1
    19   11   12 1
    20   11   27 1
    21   11   28 1
    22   12   17 ar
    23   12   13 ar
    24   13   14 ar
    25   13   20 1
    26   14   15 ar
    27   14   29 1
    28   15   16 ar
    29   15   19 1
    30   16   17 ar
    31   16   30 1
    32   17   18 1
    33   19   31 1
    34   20   32 1
    35   21   33 1
    36   22   34 1
    37   23   35 1
@<TRIPOS>MOLECULE
ZINC00119985
   35    37     0     0     0
SMALL
USER_CHARGES

@<TRIPOS>ATOM
      1 C1         -0.0167    1.3779    0.0096 C.ar      1 <0>        -0.0867
      2 C2          1.1696    2.0886    0.0021 C.ar      1 <0>        -0.1323
      3 C3          2.3802    1.4154   -0.0130 C.ar      1 <0>         0.0885
      4 C4          2.3990    0.0236   -0.0206 C.ar      1 <0>         0.0807
      5 C5          1.2071   -0.6822   -0.0130 C.ar      1 <0>        -0.0990
      6 C6          0.0021   -0.0041    0.0020 C.ar      1 <0>        -0.0707
      7 C7         -1.2936   -0.7736    0.0102 C.3       1 <0>         0.1435
      8 H1         -1.1201   -1.7884   -0.3479 H         1 <0>         0.0926
      9 C8         -1.8590   -0.8183    1.4356 C.3       1 <0>         0.0823
     10 H2         -2.1191    0.1894    1.7595 H         1 <0>         0.0731
     11 C9         -3.1120   -1.6975    1.4281 C.3       1 <0>        -0.1021
     12 C10        -4.0118   -1.2895    0.2891 C.ar      1 <0>        -0.1942
     13 C11        -5.3448   -1.6839    0.3168 C.ar      1 <0>         0.1598
     14 C12        -6.1992   -1.3308   -0.7146 C.ar      1 <0>        -0.1989
     15 C13        -5.7231   -0.5806   -1.7796 C.ar      1 <0>         0.1590
     16 C14        -4.3960   -0.1855   -1.8071 C.ar      1 <0>        -0.1806
     17 C15        -3.5373   -0.5380   -0.7709 C.ar      1 <0>         0.1614
     18 O1         -2.2452   -0.1223   -0.8323 O.3       1 <0>        -0.2944
     19 O2         -6.5574   -0.2342   -2.7948 O.3       1 <0>        -0.4914
     20 O3         -5.8113   -2.4194    1.3600 O.3       1 <0>        -0.4904
     21 O4         -0.8856   -1.3731    2.3226 O.3       1 <0>        -0.5492
     22 O5          3.5850   -0.6417   -0.0359 O.3       1 <0>        -0.4860
     23 O6          3.5476    2.1129   -0.0209 O.3       1 <0>        -0.4876
     24 H3         -0.9598    1.9038    0.0259 H         1 <0>         0.1324
     25 H4          1.1522    3.1684    0.0077 H         1 <0>         0.1364
     26 H5          1.2190   -1.7621   -0.0189 H         1 <0>         0.1358
     27 H6         -2.8221   -2.7410    1.3054 H         1 <0>         0.0925
     28 H7         -3.6445   -1.5781    2.3716 H         1 <0>         0.0873
     29 H8         -7.2339   -1.6393   -0.6898 H         1 <0>         0.1400
     30 H9         -4.0260    0.3985   -2.6368 H         1 <0>         0.1432
     31 H10        -7.0114    0.6089   -2.6604 H         1 <0>         0.3973
     32 H11        -6.1571   -1.8895    2.0913 H         1 <0>         0.3941
     33 H12        -1.1790   -1.4304    3.2423 H         1 <0>         0.3861
     34 H13         3.9367   -0.8389    0.8430 H         1 <0>         0.3885
     35 H14         3.8938    2.3101    0.8602 H         1 <0>         0.3890
@<TRIPOS>BOND
     1    1    6 ar
     2    1    2 ar
     3    1   24 1
     4    2    3 ar
     5    2   25 1
     6    3    4 ar
     7    3   23 1
     8    4    5 ar
     9    4   22 1
    10    5    6 ar
    11    5   26 1
    12    6    7 1
    13    7    8 1
    14    7   18 1
    15    7    9 1
    16    9   10 1
    17    9   11 1
    18    9   21 1
    19   11   12 1
    20   11   27 1
    21   11   28 1
    22   12   17 ar
    23   12   13 ar
    24   13   14 ar
    25   13   20 1
    26   14   15 ar
    27   14   29 1
    28   15   16 ar
    29   15   19 1
    30   16   17 ar
    31   16   30 1
    32   17   18 1
    33   19   31 1
    34   20   32 1
    35   21   33 1
    36   22   34 1
    37   23   35 1
@<TRIPOS>MOLECULE
ZINC00119988
   35    37     0     0     0
SMALL
USER_CHARGES

@<TRIPOS>ATOM
      1 C1         -0.0167    1.3779    0.0096 C.ar      1 <0>        -0.0628
      2 C2          1.1696    2.0886    0.0021 C.ar      1 <0>        -0.1339
      3 C3          2.3802    1.4154   -0.0130 C.ar      1 <0>         0.0896
      4 C4          2.3990    0.0236   -0.0206 C.ar      1 <0>         0.0776
      5 C5          1.2071   -0.6822   -0.0130 C.ar      1 <0>        -0.1181
      6 C6          0.0021   -0.0041    0.0020 C.ar      1 <0>        -0.0813
      7 C7         -1.2936   -0.7736    0.0102 C.3       1 <0>         0.1464
      8 H1         -1.1302   -1.7631    0.4371 H         1 <0>         0.0966
      9 C8         -1.8224   -0.9103   -1.4233 C.3       1 <0>         0.0774
     10 H2         -1.0636   -1.3761   -2.0520 H         1 <0>         0.0797
     11 C9         -3.0759   -1.7881   -1.3913 C.3       1 <0>        -0.1047
     12 C10        -4.0042   -1.3085   -0.3042 C.ar      1 <0>        -0.1922
     13 C11        -5.3364   -1.7051   -0.3406 C.ar      1 <0>         0.1583
     14 C12        -6.2168   -1.2864    0.6434 C.ar      1 <0>        -0.2033
     15 C13        -5.7673   -0.4690    1.6698 C.ar      1 <0>         0.1577
     16 C14        -4.4409   -0.0726    1.7062 C.ar      1 <0>        -0.1847
     17 C15        -3.5564   -0.4901    0.7171 C.ar      1 <0>         0.1751
     18 O1         -2.2659   -0.0703    0.7846 O.3       1 <0>        -0.2923
     19 O2         -6.6274   -0.0572    2.6380 O.3       1 <0>        -0.4921
     20 O3         -5.7767   -2.5064   -1.3460 O.3       1 <0>        -0.4921
     21 O4         -2.1505    0.3807   -1.9409 O.3       1 <0>        -0.5467
     22 O5          3.5850   -0.6417   -0.0359 O.3       1 <0>        -0.4863
     23 O6          3.5476    2.1129   -0.0209 O.3       1 <0>        -0.4879
     24 H3         -0.9598    1.9038    0.0259 H         1 <0>         0.1388
     25 H4          1.1522    3.1684    0.0077 H         1 <0>         0.1366
     26 H5          1.2190   -1.7621   -0.0189 H         1 <0>         0.1349
     27 H6         -3.5841   -1.7300   -2.3539 H         1 <0>         0.0950
     28 H7         -2.7902   -2.8214   -1.1946 H         1 <0>         0.0859
     29 H8         -7.2509   -1.5961    0.6116 H         1 <0>         0.1380
     30 H9         -4.0917    0.5638    2.5059 H         1 <0>         0.1406
     31 H10        -6.6766   -0.6517    3.3991 H         1 <0>         0.3961
     32 H11        -5.7049   -3.4517   -1.1556 H         1 <0>         0.3938
     33 H12        -2.4917    0.3667   -2.8456 H         1 <0>         0.3831
     34 H13         3.9367   -0.8389    0.8430 H         1 <0>         0.3881
     35 H14         3.8938    2.3101    0.8602 H         1 <0>         0.3893
@<TRIPOS>BOND
     1    1    6 ar
     2    1    2 ar
     3    1   24 1
     4    2    3 ar
     5    2   25 1
     6    3    4 ar
     7    3   23 1
     8    4    5 ar
     9    4   22 1
    10    5    6 ar
    11    5   26 1
    12    6    7 1
    13    7    8 1
    14    7   18 1
    15    7    9 1
    16    9   10 1
    17    9   11 1
    18    9   21 1
    19   11   12 1
    20   11   27 1
    21   11   28 1
    22   12   17 ar
    23   12   13 ar
    24   13   14 ar
    25   13   20 1
    26   14   15 ar
    27   14   29 1
    28   15   16 ar
    29   15   19 1
    30   16   17 ar
    31   16   30 1
    32   17   18 1
    33   19   31 1
    34   20   32 1
    35   21   33 1
    36   22   34 1
    37   23   35 1
@<TRIPOS>MOLECULE
ZINC00119988
   35    37     0     0     0
SMALL
USER_CHARGES

@<TRIPOS>ATOM
      1 C1         -0.0167    1.3809    0.0096 C.ar      1 <0>        -0.2034
      2 C2          1.1766    2.0878    0.0020 C.ar      1 <0>         0.1587
      3 C3          2.3823    1.4068   -0.0152 C.ar      1 <0>        -0.1833
      4 C4          2.4025    0.0159   -0.0241 C.ar      1 <0>         0.1747
      5 C5          1.2122   -0.6887   -0.0130 C.ar      1 <0>        -0.1921
      6 C6          0.0021   -0.0041    0.0020 C.ar      1 <0>         0.1579
      7 O1         -1.1671   -0.6966    0.0088 O.3       1 <0>        -0.4928
      8 C7          1.1916   -2.1964   -0.0108 C.3       1 <0>        -0.1012
      9 C8          2.5519   -2.7315   -0.4648 C.3       1 <0>         0.0660
     10 H1          2.6125   -3.8007   -0.2614 H         1 <0>         0.0829
     11 C9          3.6454   -1.9935    0.3180 C.3       1 <0>         0.1091
     12 H2          3.4637   -2.0957    1.3879 H         1 <0>         0.0966
     13 O2          3.6065   -0.6132   -0.0469 O.3       1 <0>        -0.2931
     14 C10         5.0145   -2.5810   -0.0306 C.3       1 <0>        -0.0576
     15 H3          5.1878   -2.4642   -1.1004 H         1 <0>         0.1250
     16 C11         6.0934   -1.8145    0.7342 C.3       1 <0>        -0.1579
     17 C12         7.3999   -2.5792    0.6040 C.2       1 <0>         0.3268
     18 O3          8.4121   -2.0692    0.1868 O.2       1 <0>        -0.3922
     19 C13         7.3376   -4.0204    1.0348 C.2       1 <0>         0.3440
     20 O4          8.2788   -4.5790    1.5616 O.2       1 <0>        -0.3988
     21 C14         6.0607   -4.7093    0.7765 C.2       1 <0>        -0.2091
     22 C15         5.0182   -4.0387    0.3064 C.2       1 <0>        -0.0650
     23 O5          2.7189   -2.4973   -1.8645 O.3       1 <0>        -0.5485
     24 O6          1.1626    3.4467    0.0110 O.3       1 <0>        -0.4928
     25 H4         -0.9585    1.9092    0.0260 H         1 <0>         0.1381
     26 H5          3.3110    1.9580   -0.0220 H         1 <0>         0.1415
     27 H6         -1.5134   -0.8923   -0.8726 H         1 <0>         0.3943
     28 H7          0.9786   -2.5547    0.9963 H         1 <0>         0.0908
     29 H8          0.4173   -2.5494   -0.6920 H         1 <0>         0.0885
     30 H9          6.2071   -0.8171    0.3095 H         1 <0>         0.1147
     31 H10         5.8152   -1.7380    1.7853 H         1 <0>         0.1120
     32 H11         5.9735   -5.7677    0.9729 H         1 <0>         0.1507
     33 H12         4.1010   -4.5881    0.1539 H         1 <0>         0.1343
     34 H13         2.0487   -2.9221   -2.4171 H         1 <0>         0.3838
     35 H14         1.1675    3.8342    0.8969 H         1 <0>         0.3974
@<TRIPOS>BOND
     1    1    6 ar
     2    1    2 ar
     3    1   25 1
     4    2    3 ar
     5    2   24 1
     6    3    4 ar
     7    3   26 1
     8    4   13 1
     9    4    5 ar
    10    5    6 ar
    11    5    8 1
    12    6    7 1
    13    7   27 1
    14    8    9 1
    15    8   28 1
    16    8   29 1
    17    9   10 1
    18    9   11 1
    19    9   23 1
    20   11   12 1
    21   11   13 1
    22   11   14 1
    23   14   15 1
    24   14   22 1
    25   14   16 1
    26   16   17 1
    27   16   30 1
    28   16   31 1
    29   17   18 2
    30   17   19 1
    31   19   20 2
    32   19   21 1
    33   21   22 2
    34   21   32 1
    35   22   33 1
    36   23   34 1
    37   24   35 1
@<TRIPOS>MOLECULE
ZINC00119988
   35    37     0     0     0
SMALL
USER_CHARGES

@<TRIPOS>ATOM
      1 C1         -0.0115    1.3874    0.0191 C.ar      1 <0>        -0.2033
      2 C2          1.1827    2.0928    0.0180 C.ar      1 <0>         0.1585
      3 C3          2.3876    1.4102   -0.0001 C.ar      1 <0>        -0.1836
      4 C4          2.4060    0.0194   -0.0163 C.ar      1 <0>         0.1747
      5 C5          1.2147   -0.6837   -0.0116 C.ar      1 <0>        -0.1914
      6 C6          0.0055    0.0025    0.0043 C.ar      1 <0>         0.1581
      7 O1         -1.1647   -0.6886    0.0048 O.3       1 <0>        -0.4928
      8 C7          1.1921   -2.1913   -0.0174 C.3       1 <0>        -0.1014
      9 C8          2.5527   -2.7259   -0.4711 C.3       1 <0>         0.0670
     10 H1          2.6114   -3.7962   -0.2733 H         1 <0>         0.0832
     11 C9          3.6454   -1.9935    0.3180 C.3       1 <0>         0.1093
     12 H2          3.4611   -2.1011    1.3869 H         1 <0>         0.0965
     13 O2          3.6091   -0.6112   -0.0397 O.3       1 <0>        -0.2948
     14 C10         5.0145   -2.5810   -0.0306 C.3       1 <0>        -0.0588
     15 H3          5.1593   -2.5253   -1.1095 H         1 <0>         0.1255
     16 C11         5.0503   -4.0471    0.4005 C.3       1 <0>        -0.1613
     17 C12         6.4876   -4.5317    0.3122 C.2       1 <0>         0.3305
     18 O3          6.8066   -5.5054   -0.3275 O.2       1 <0>        -0.3919
     19 C13         7.4842   -3.7066    1.0817 C.2       1 <0>         0.3458
     20 O4          8.4561   -4.2003    1.6175 O.2       1 <0>        -0.4006
     21 C14         7.2047   -2.2609    1.1425 C.2       1 <0>        -0.2224
     22 C15         6.0768   -1.7729    0.6451 C.2       1 <0>        -0.0536
     23 O5          2.7232   -2.4845   -1.8692 O.3       1 <0>        -0.5492
     24 O6          1.1705    3.4515    0.0340 O.3       1 <0>        -0.4928
     25 H4         -0.9527    1.9168    0.0361 H         1 <0>         0.1381
     26 H5          3.3171    1.9602   -0.0019 H         1 <0>         0.1412
     27 H6         -1.5093   -0.8792   -0.8784 H         1 <0>         0.3945
     28 H7          0.9763   -2.5547    0.9873 H         1 <0>         0.0909
     29 H8          0.4189   -2.5398   -0.7022 H         1 <0>         0.0886
     30 H9          4.6940   -4.1377    1.4266 H         1 <0>         0.1150
     31 H10         4.4205   -4.6409   -0.2620 H         1 <0>         0.1107
     32 H11         7.9233   -1.5947    1.5966 H         1 <0>         0.1490
     33 H12         5.9137   -0.7089    0.7331 H         1 <0>         0.1393
     34 H13         2.0536   -2.9055   -2.4256 H         1 <0>         0.3843
     35 H14         1.1740    3.8344    0.9220 H         1 <0>         0.3974
@<TRIPOS>BOND
     1    1    6 ar
     2    1    2 ar
     3    1   25 1
     4    2    3 ar
     5    2   24 1
     6    3    4 ar
     7    3   26 1
     8    4   13 1
     9    4    5 ar
    10    5    6 ar
    11    5    8 1
    12    6    7 1
    13    7   27 1
    14    8    9 1
    15    8   28 1
    16    8   29 1
    17    9   10 1
    18    9   11 1
    19    9   23 1
    20   11   12 1
    21   11   13 1
    22   11   14 1
    23   14   15 1
    24   14   22 1
    25   14   16 1
    26   16   17 1
    27   16   30 1
    28   16   31 1
    29   17   18 2
    30   17   19 1
    31   19   20 2
    32   19   21 1
    33   21   22 2
    34   21   32 1
    35   22   33 1
    36   23   34 1
    37   24   35 1
@<TRIPOS>MOLECULE
ZINC04809416
   19    19     0     0     0
SMALL
USER_CHARGES
1-(3,4-dichlorophenyl)-3-hydroxy-urea
@<TRIPOS>ATOM
      1 C1         -1.2042    3.0657   -0.0283 C.ar      1 <0>        -0.1281
      2 C2         -2.3934    3.7678    0.0072 C.ar      1 <0>        -0.0773
      3 C3         -3.5940    3.0919    0.1305 C.ar      1 <0>        -0.0471
      4 C4         -3.6075    1.7092    0.2132 C.ar      1 <0>        -0.0113
      5 C5         -2.4208    1.0022    0.1722 C.ar      1 <0>        -0.1020
      6 C6         -1.2148    1.6794    0.0486 C.ar      1 <0>         0.1818
      7 N1         -0.0111    0.9658    0.0074 N.am      1 <0>        -0.6752
      8 C7          0.0388   -0.2370   -0.5985 C.2       1 <0>         0.7208
      9 O1         -0.9774   -0.7382   -1.0397 O.2       1 <0>        -0.5469
     10 N2          1.2151   -0.8844   -0.7154 N.am      1 <0>        -0.6058
     11 O2          1.2675   -2.1482   -1.3520 O.3       1 <0>        -0.2939
     12 Cl1        -5.1160    0.8640    0.3678 Cl        1 <0>        -0.0395
     13 Cl2        -5.0862    3.9777    0.1809 Cl        1 <0>        -0.0460
     14 H1         -0.2671    3.5946   -0.1200 H         1 <0>         0.1440
     15 H2         -2.3855    4.8459   -0.0567 H         1 <0>         0.1496
     16 H3         -2.4312   -0.0758    0.2367 H         1 <0>         0.1617
     17 H4          0.7861    1.3353    0.4183 H         1 <0>         0.4134
     18 H5          2.0258   -0.4846   -0.3635 H         1 <0>         0.4082
     19 H6          2.1535   -2.5340   -1.3880 H         1 <0>         0.3937
@<TRIPOS>BOND
     1    1    6 ar
     2    1    2 ar
     3    1   14 1
     4    2    3 ar
     5    2   15 1
     6    3    4 ar
     7    3   13 1
     8    4    5 ar
     9    4   12 1
    10    5    6 ar
    11    5   16 1
    12    6    7 1
    13    7    8 am
    14    7   17 1
    15    8    9 2
    16    8   10 am
    17   10   11 1
    18   10   18 1
    19   11   19 1
@<TRIPOS>MOLECULE
ZINC01530621
   36    37     0     0     0
SMALL
USER_CHARGES

@<TRIPOS>ATOM
      1 C1         -0.1492    1.5288   -2.3323 C.3       1 <0>        -0.1908
      2 C2         -0.1164   -0.0009   -2.3383 C.3       1 <0>        -0.0181
      3 N1          0.6897   -0.4778   -1.2066 N.4       1 <0>        -0.5107
      4 C3          0.6171   -1.9434   -1.1370 C.3       1 <0>         0.0811
      5 H1         -0.4294   -2.2430   -1.0818 H         1 <0>         0.1707
      6 C4          1.2315   -2.5278   -2.3982 C.3       1 <0>        -0.1422
      7 C5          1.0962   -4.0576   -2.4201 C.3       1 <0>        -0.5404
      8 H2          1.3613   -4.4411   -3.4054 H         1 <0>         0.1747
      9 S1          2.2539   -4.7069   -1.1650 S.o2      1 <0>         2.5047
     10 O1          3.5991   -4.5241   -1.5850 O.2       1 <0>        -0.8957
     11 O2          1.8041   -5.9618   -0.6729 O.2       1 <0>        -0.8922
     12 C6          2.0269   -3.5802    0.1606 C.2       1 <0>        -0.7063
     13 C7          1.3317   -2.4135    0.1206 C.2       1 <0>        -0.0916
     14 C8          1.3152   -1.6792    1.3120 C.2       1 <0>        -0.0530
     15 C9          1.9529   -2.1428    2.4103 C.2       1 <0>        -0.7342
     16 S2          2.6320   -3.6831    1.8188 S.3       1 <0>         0.4502
     17 S3          2.0784   -1.4167    4.0108 S.o2      1 <0>         2.7294
     18 O3          3.2503   -1.9529    4.6093 O.2       1 <0>        -0.9323
     19 O4          1.8813   -0.0198    3.8397 O.2       1 <0>        -0.9386
     20 N2          0.7966   -1.9699    4.9014 N.pl3     1 <0>        -1.2425
     21 C10        -0.3376   -4.4611   -2.0706 C.3       1 <0>        -0.1547
     22 H3         -0.5902    1.8790   -1.3990 H         1 <0>         0.0836
     23 H4          0.8664    1.9144   -2.4215 H         1 <0>         0.0841
     24 H5         -0.7473    1.8826   -3.1720 H         1 <0>         0.1120
     25 H6         -1.1320   -0.3865   -2.2491 H         1 <0>         0.1372
     26 H7          0.3246   -0.3511   -3.2716 H         1 <0>         0.1380
     27 H8          1.6496   -0.1943   -1.3342 H         1 <0>         0.4338
     28 H9          0.7251   -2.1113   -3.2689 H         1 <0>         0.1303
     29 H10         2.2877   -2.2615   -2.4382 H         1 <0>         0.1132
     30 H11         0.7901   -0.7364    1.3541 H         1 <0>         0.1546
     31 H12         0.1572   -2.5812    4.5032 H         1 <0>         0.4194
     32 H13         0.6850   -1.6827    5.8211 H         1 <0>         0.4322
     33 H14        -1.0243   -4.0299   -2.7990 H         1 <0>         0.0942
     34 H15        -0.4240   -5.5475   -2.0887 H         1 <0>         0.0985
     35 H16        -0.5861   -4.0934   -1.0750 H         1 <0>         0.0698
     36 H17         0.3332   -0.0823   -0.3495 H         1 <0>         0.4317
@<TRIPOS>BOND
     1    1    2 1
     2    1   22 1
     3    1   23 1
     4    1   24 1
     5    2    3 1
     6    2   25 1
     7    2   26 1
     8    3    4 1
     9    3   27 1
    10    3   36 1
    11    4    5 1
    12    4   13 1
    13    4    6 1
    14    6    7 1
    15    6   28 1
    16    6   29 1
    17    7    8 1
    18    7    9 1
    19    7   21 1
    20    9   10 2
    21    9   11 2
    22    9   12 1
    23   12   16 1
    24   12   13 2
    25   13   14 1
    26   14   15 2
    27   14   30 1
    28   15   16 1
    29   15   17 1
    30   17   18 2
    31   17   19 2
    32   17   20 1
    33   20   31 1
    34   20   32 1
    35   21   33 1
    36   21   34 1
    37   21   35 1
@<TRIPOS>MOLECULE
ZINC01530621
   35    36     0     0     0
SMALL
USER_CHARGES

@<TRIPOS>ATOM
      1 C1         -0.1492    1.5288   -2.3323 C.3       1 <0>        -0.1899
      2 C2         -0.1164   -0.0009   -2.3383 C.3       1 <0>        -0.0168
      3 N1          0.6897   -0.4778   -1.2066 N.4       1 <0>        -0.5101
      4 C3          0.6171   -1.9434   -1.1370 C.3       1 <0>         0.0836
      5 H1         -0.4294   -2.2430   -1.0818 H         1 <0>         0.1646
      6 C4          1.2315   -2.5278   -2.3982 C.3       1 <0>        -0.1369
      7 C5          1.0962   -4.0576   -2.4201 C.3       1 <0>        -0.5464
      8 H2          1.3613   -4.4411   -3.4054 H         1 <0>         0.1665
      9 S1          2.2539   -4.7069   -1.1650 S.o2      1 <0>         2.5192
     10 O1          3.5991   -4.5241   -1.5850 O.2       1 <0>        -0.9107
     11 O2          1.8041   -5.9618   -0.6729 O.2       1 <0>        -0.9035
     12 C6          2.0269   -3.5802    0.1606 C.2       1 <0>        -0.7471
     13 C7          1.3317   -2.4135    0.1206 C.2       1 <0>        -0.0802
     14 C8          1.3152   -1.6792    1.3120 C.2       1 <0>        -0.1090
     15 C9          1.9529   -2.1428    2.4103 C.2       1 <0>        -0.5881
     16 S2          2.6320   -3.6831    1.8188 S.3       1 <0>         0.3963
     17 S3          2.0784   -1.4167    4.0108 S.o2      1 <0>         2.5827
     18 O3          3.2503   -1.9529    4.6093 O.2       1 <0>        -1.0359
     19 O4          1.8813   -0.0198    3.8397 O.2       1 <0>        -1.0427
     20 N2          0.7966   -1.9699    4.9014 N.2       1 <0>        -1.3223
     21 C10        -0.3376   -4.4611   -2.0706 C.3       1 <0>        -0.1530
     22 H3         -0.5902    1.8790   -1.3990 H         1 <0>         0.0843
     23 H4          0.8664    1.9144   -2.4215 H         1 <0>         0.0823
     24 H5         -0.7473    1.8826   -3.1720 H         1 <0>         0.1074
     25 H6         -1.1320   -0.3865   -2.2491 H         1 <0>         0.1347
     26 H7          0.3246   -0.3511   -3.2716 H         1 <0>         0.1340
     27 H8          1.6496   -0.1943   -1.3342 H         1 <0>         0.4317
     28 H9          0.7251   -2.1113   -3.2689 H         1 <0>         0.1221
     29 H10         2.2877   -2.2615   -2.4382 H         1 <0>         0.1096
     30 H11         0.7901   -0.7364    1.3541 H         1 <0>         0.1443
     31 H12         0.6850   -1.6827    5.8211 H         1 <0>         0.3366
     32 H13        -1.0243   -4.0299   -2.7990 H         1 <0>         0.0883
     33 H14        -0.4240   -5.5475   -2.0887 H         1 <0>         0.0947
     34 H15        -0.5861   -4.0934   -1.0750 H         1 <0>         0.0739
     35 H16         0.3332   -0.0823   -0.3495 H         1 <0>         0.4358
@<TRIPOS>BOND
     1    1    2 1
     2    1   22 1
     3    1   23 1
     4    1   24 1
     5    2    3 1
     6    2   25 1
     7    2   26 1
     8    3    4 1
     9    3   27 1
    10    3   35 1
    11    4    5 1
    12    4   13 1
    13    4    6 1
    14    6    7 1
    15    6   28 1
    16    6   29 1
    17    7    8 1
    18    7    9 1
    19    7   21 1
    20    9   10 2
    21    9   11 2
    22    9   12 1
    23   12   16 1
    24   12   13 2
    25   13   14 1
    26   14   15 2
    27   14   30 1
    28   15   16 1
    29   15   17 1
    30   17   18 2
    31   17   19 2
    32   17   20 1
    33   20   31 1
    34   21   32 1
    35   21   33 1
    36   21   34 1
@<TRIPOS>MOLECULE
ZINC03953037
   45    46     0     0     0
SMALL
USER_CHARGES

@<TRIPOS>ATOM
      1 C1         -0.1443    1.5287   -2.3361 C.3       1 <0>        -0.1906
      2 C2         -0.1122   -0.0010   -2.3413 C.3       1 <0>        -0.0185
      3 N1          0.6897   -0.4778   -1.2066 N.4       1 <0>        -0.5081
      4 C3          0.6170   -1.9434   -1.1372 C.3       1 <0>         0.0658
      5 H1         -0.4299   -2.2419   -1.0821 H         1 <0>         0.1708
      6 C4          1.2290   -2.5266   -2.4008 C.3       1 <0>         0.0853
      7 N2          1.2178   -4.0017   -2.3725 N.pl3     1 <0>        -0.9751
      8 S1          2.1913   -4.6964   -1.1964 S.o2      1 <0>         2.6993
      9 O1          3.5356   -4.5934   -1.6450 O.2       1 <0>        -0.9052
     10 O2          1.5909   -5.9295   -0.8245 O.2       1 <0>        -0.9104
     11 C5          2.0056   -3.5925    0.1555 C.2       1 <0>        -0.7299
     12 C6          1.3290   -2.4121    0.1220 C.2       1 <0>        -0.0847
     13 C7          1.3364   -1.6821    1.3141 C.2       1 <0>        -0.0518
     14 C8          1.9728   -2.1632    2.4071 C.2       1 <0>        -0.7315
     15 S2          2.6159   -3.7161    1.8064 S.3       1 <0>         0.4568
     16 S3          2.1242   -1.4453    4.0091 S.o2      1 <0>         2.7294
     17 O3          3.2891   -2.0074    4.5975 O.2       1 <0>        -0.9316
     18 O4          1.9545   -0.0442    3.8439 O.2       1 <0>        -0.9372
     19 N3          0.8376   -1.9754    4.9067 N.pl3     1 <0>        -1.2424
     20 C9          0.4155   -4.8004   -3.3024 C.3       1 <0>         0.1263
     21 C10         1.1924   -4.9992   -4.6054 C.3       1 <0>        -0.1475
     22 C11         0.3545   -5.8334   -5.5765 C.3       1 <0>         0.0598
     23 O5          1.0801   -6.0191   -6.7935 O.3       1 <0>        -0.3912
     24 C12         0.3826   -6.7895   -7.7743 C.3       1 <0>         0.0300
     25 H2         -0.5884    1.8796   -1.4045 H         1 <0>         0.0836
     26 H3          0.8718    1.9137   -2.4219 H         1 <0>         0.0846
     27 H4         -0.7393    1.8825   -3.1781 H         1 <0>         0.1124
     28 H5         -1.1283   -0.3860   -2.2555 H         1 <0>         0.1382
     29 H6          0.3319   -0.3519   -3.2729 H         1 <0>         0.1384
     30 H7          1.6500   -0.1942   -1.3306 H         1 <0>         0.4345
     31 H8          0.6601   -2.1822   -3.2644 H         1 <0>         0.1336
     32 H9          2.2582   -2.1795   -2.4917 H         1 <0>         0.1084
     33 H10         0.8317   -0.7286    1.3630 H         1 <0>         0.1566
     34 H11         0.1832   -2.5721    4.5111 H         1 <0>         0.4194
     35 H12         0.7383   -1.6891    5.8282 H         1 <0>         0.4325
     36 H13         0.2008   -5.7712   -2.8556 H         1 <0>         0.1064
     37 H14        -0.5201   -4.2823   -3.5126 H         1 <0>         0.0967
     38 H15         1.4071   -4.0284   -5.0521 H         1 <0>         0.0821
     39 H16         2.1280   -5.5174   -4.3951 H         1 <0>         0.0798
     40 H17         0.1398   -6.8042   -5.1298 H         1 <0>         0.0563
     41 H18        -0.5811   -5.3152   -5.7868 H         1 <0>         0.0538
     42 H19         0.1684   -7.7802   -7.3732 H         1 <0>         0.0459
     43 H20        -0.5525   -6.2912   -8.0301 H         1 <0>         0.0441
     44 H21         0.9998   -6.8849   -8.6676 H         1 <0>         0.0916
     45 H22         0.3300   -0.0823   -0.3509 H         1 <0>         0.4332
@<TRIPOS>BOND
     1    1    2 1
     2    1   25 1
     3    1   26 1
     4    1   27 1
     5    2    3 1
     6    2   28 1
     7    2   29 1
     8    3    4 1
     9    3   30 1
    10    3   45 1
    11    4    5 1
    12    4   12 1
    13    4    6 1
    14    6    7 1
    15    6   31 1
    16    6   32 1
    17    7    8 1
    18    7   20 1
    19    8    9 2
    20    8   10 2
    21    8   11 1
    22   11   15 1
    23   11   12 2
    24   12   13 1
    25   13   14 2
    26   13   33 1
    27   14   15 1
    28   14   16 1
    29   16   17 2
    30   16   18 2
    31   16   19 1
    32   19   34 1
    33   19   35 1
    34   20   21 1
    35   20   36 1
    36   20   37 1
    37   21   22 1
    38   21   38 1
    39   21   39 1
    40   22   23 1
    41   22   40 1
    42   22   41 1
    43   23   24 1
    44   24   42 1
    45   24   43 1
    46   24   44 1
@<TRIPOS>MOLECULE
ZINC03953037
   44    45     0     0     0
SMALL
USER_CHARGES

@<TRIPOS>ATOM
      1 C1          2.0763    1.5400    1.0749 C.3       1 <0>        -0.1898
      2 C2          2.0886    0.0101    1.0747 C.3       1 <0>        -0.0171
      3 N1          0.7126   -0.4907    1.1921 N.4       1 <0>        -0.5075
      4 C3          0.7116   -1.9542    1.0652 C.3       1 <0>         0.0682
      5 H1          1.1917   -2.2265    0.1253 H         1 <0>         0.1647
      6 C4          1.5092   -2.5482    2.2152 C.3       1 <0>         0.0909
      7 N2          1.5133   -4.0226    2.1618 N.pl3     1 <0>        -0.9789
      8 S1          0.0190   -4.7457    2.4028 S.o2      1 <0>         2.7115
      9 O1         -0.2658   -4.6749    3.7932 O.2       1 <0>        -0.9213
     10 O2          0.0162   -5.9646    1.6724 O.2       1 <0>        -0.9224
     11 C5         -1.0762   -3.6422    1.5883 C.2       1 <0>        -0.7709
     12 C6         -0.7274   -2.4451    1.0428 C.2       1 <0>        -0.0734
     13 C7         -1.7749   -1.7197    0.4678 C.2       1 <0>        -0.1075
     14 C8         -3.0320   -2.2204    0.4627 C.2       1 <0>        -0.5845
     15 S2         -2.8090   -3.7869    1.2888 S.3       1 <0>         0.4019
     16 S3         -4.5062   -1.5121   -0.1927 S.o2      1 <0>         2.5818
     17 O3         -5.5893   -2.1053    0.5104 O.2       1 <0>        -1.0351
     18 O4         -4.3002   -0.1066   -0.2291 O.2       1 <0>        -1.0413
     19 N3         -4.6325   -2.0129   -1.7661 N.2       1 <0>        -1.3217
     20 C9          2.7319   -4.7977    1.9161 C.3       1 <0>         0.1279
     21 C10         3.4753   -5.0114    3.2362 C.3       1 <0>        -0.1467
     22 C11         4.7480   -5.8209    2.9796 C.3       1 <0>         0.0605
     23 O5          5.4423   -6.0204    4.2126 O.3       1 <0>        -0.3916
     24 C12         6.6522   -6.7697    4.0836 C.3       1 <0>         0.0305
     25 H2          1.6368    1.8998    2.0052 H         1 <0>         0.0828
     26 H3          3.0973    1.9116    0.9877 H         1 <0>         0.1079
     27 H4          1.4859    1.8987    0.2317 H         1 <0>         0.0843
     28 H5          2.5280   -0.3497    0.1444 H         1 <0>         0.1356
     29 H6          2.6789   -0.3486    1.9179 H         1 <0>         0.1344
     30 H7          0.3357   -0.2309    2.0913 H         1 <0>         0.4324
     31 H8          2.5361   -2.1866    2.1612 H         1 <0>         0.1259
     32 H9          1.0682   -2.2267    3.1587 H         1 <0>         0.1045
     33 H10        -1.5798   -0.7540    0.0254 H         1 <0>         0.1463
     34 H11        -5.3853   -1.7274   -2.3070 H         1 <0>         0.3370
     35 H12         2.4675   -5.7644    1.4875 H         1 <0>         0.1042
     36 H13         3.3735   -4.2555    1.2215 H         1 <0>         0.0930
     37 H14         3.7397   -4.0447    3.6649 H         1 <0>         0.0806
     38 H15         2.8337   -5.5536    3.9308 H         1 <0>         0.0792
     39 H16         4.4835   -6.7875    2.5510 H         1 <0>         0.0562
     40 H17         5.3896   -5.2787    2.2850 H         1 <0>         0.0533
     41 H18         6.4273   -7.7561    3.6779 H         1 <0>         0.0449
     42 H19         7.3333   -6.2472    3.4119 H         1 <0>         0.0428
     43 H20         7.1190   -6.8774    5.0627 H         1 <0>         0.0893
     44 H21         0.1450   -0.0893    0.4608 H         1 <0>         0.4372
@<TRIPOS>BOND
     1    1    2 1
     2    1   25 1
     3    1   26 1
     4    1   27 1
     5    2    3 1
     6    2   28 1
     7    2   29 1
     8    3    4 1
     9    3   30 1
    10    3   44 1
    11    4    5 1
    12    4   12 1
    13    4    6 1
    14    6    7 1
    15    6   31 1
    16    6   32 1
    17    7    8 1
    18    7   20 1
    19    8    9 2
    20    8   10 2
    21    8   11 1
    22   11   15 1
    23   11   12 2
    24   12   13 1
    25   13   14 2
    26   13   33 1
    27   14   15 1
    28   14   16 1
    29   16   17 2
    30   16   18 2
    31   16   19 1
    32   19   34 1
    33   20   21 1
    34   20   35 1
    35   20   36 1
    36   21   22 1
    37   21   37 1
    38   21   38 1
    39   22   23 1
    40   22   39 1
    41   22   40 1
    42   23   24 1
    43   24   41 1
    44   24   42 1
    45   24   43 1
@<TRIPOS>MOLECULE
ZINC01530804
   42    44     0     0     0
SMALL
USER_CHARGES

@<TRIPOS>ATOM
      1 C1         -0.1414    1.1782    1.1025 C.3       1 <0>        -0.1657
      2 C2         -0.0047   -0.3406    0.9788 C.3       1 <0>         0.2393
      3 O1          0.4336   -0.6809   -0.3520 O.3       1 <0>        -0.3486
      4 C3          1.8586   -0.8253   -0.2194 C.3       1 <0>         0.0180
      5 H1          2.3279    0.1582   -0.1959 H         1 <0>         0.0955
      6 C4          2.4671   -1.6561   -1.3282 C.3       1 <0>         0.0615
      7 O2          1.9135   -2.9701   -1.3154 O.3       1 <0>        -0.3068
      8 C5          2.1315   -3.6952   -0.1268 C.3       1 <0>         0.2582
      9 C6          1.5886   -2.9749    1.1170 C.3       1 <0>         0.0223
     10 H2          0.5124   -3.1112    1.2238 H         1 <0>         0.1391
     11 C7          1.9968   -1.5000    1.1552 C.3       1 <0>         0.0492
     12 H3          2.9929   -1.3657    1.5768 H         1 <0>         0.1317
     13 O3          0.9684   -0.8158    1.9209 O.3       1 <0>        -0.3662
     14 O4          2.3254   -3.6306    2.1835 O.3       1 <0>        -0.3622
     15 C8          3.5307   -4.1478    1.6005 C.3       1 <0>         0.2431
     16 O5          3.5253   -3.8561    0.1888 O.3       1 <0>        -0.3666
     17 C9          4.7443   -3.4871    2.2574 C.3       1 <0>        -0.1505
     18 C10         3.5958   -5.6617    1.8124 C.3       1 <0>        -0.1864
     19 C11         1.4685   -5.0698   -0.2356 C.3       1 <0>         0.0825
     20 O6          2.1389   -5.8445   -1.2317 O.3       1 <0>        -0.7265
     21 S1          1.5597   -7.2386   -1.4254 S.o2      1 <0>         2.6826
     22 O7          2.4548   -7.9350   -2.2815 O.2       1 <0>        -1.0652
     23 O8          1.2135   -7.7177   -0.1332 O.2       1 <0>        -1.0999
     24 N1          0.1411   -7.0674   -2.2625 N.2       1 <0>        -1.3687
     25 C12        -1.3558   -1.0027    1.2569 C.3       1 <0>        -0.1582
     26 H4          0.8207    1.6475    0.8968 H         1 <0>         0.0616
     27 H5         -0.8808    1.5361    0.3860 H         1 <0>         0.0773
     28 H6         -0.4614    1.4331    2.1128 H         1 <0>         0.0749
     29 H7          2.2585   -1.1852   -2.2889 H         1 <0>         0.1202
     30 H8          3.5458   -1.7168   -1.1842 H         1 <0>         0.0862
     31 H9          4.7535   -3.7210    3.3219 H         1 <0>         0.0808
     32 H10         5.6571   -3.8626    1.7950 H         1 <0>         0.0792
     33 H11         4.6869   -2.4069    2.1231 H         1 <0>         0.0625
     34 H12         2.5933   -6.0827    1.7363 H         1 <0>         0.0832
     35 H13         4.2360   -6.1079    1.0514 H         1 <0>         0.0832
     36 H14         4.0046   -5.8730    2.8005 H         1 <0>         0.0768
     37 H15         1.5314   -5.5806    0.7253 H         1 <0>         0.1099
     38 H16         0.4218   -4.9473   -0.5141 H         1 <0>         0.1013
     39 H17        -0.3863   -7.8495   -2.4881 H         1 <0>         0.3260
     40 H18        -2.0938   -0.6361    0.5434 H         1 <0>         0.0779
     41 H19        -1.2583   -2.0836    1.1559 H         1 <0>         0.0696
     42 H20        -1.6777   -0.7600    2.2696 H         1 <0>         0.0781
@<TRIPOS>BOND
     1    1    2 1
     2    1   26 1
     3    1   27 1
     4    1   28 1
     5    2   13 1
     6    2    3 1
     7    2   25 1
     8    3    4 1
     9    4    5 1
    10    4   11 1
    11    4    6 1
    12    6    7 1
    13    6   29 1
    14    6   30 1
    15    7    8 1
    16    8   16 1
    17    8    9 1
    18    8   19 1
    19    9   10 1
    20    9   11 1
    21    9   14 1
    22   11   12 1
    23   11   13 1
    24   14   15 1
    25   15   16 1
    26   15   17 1
    27   15   18 1
    28   17   31 1
    29   17   32 1
    30   17   33 1
    31   18   34 1
    32   18   35 1
    33   18   36 1
    34   19   20 1
    35   19   37 1
    36   19   38 1
    37   20   21 1
    38   21   22 2
    39   21   23 2
    40   21   24 1
    41   24   39 1
    42   25   40 1
    43   25   41 1
    44   25   42 1
@<TRIPOS>MOLECULE
ZINC01530804
   43    45     0     0     0
SMALL
USER_CHARGES

@<TRIPOS>ATOM
      1 C1         -0.1414    1.1782    1.1025 C.3       1 <0>        -0.1689
      2 C2         -0.0047   -0.3406    0.9788 C.3       1 <0>         0.2400
      3 O1          0.4336   -0.6809   -0.3520 O.3       1 <0>        -0.3516
      4 C3          1.8586   -0.8253   -0.2194 C.3       1 <0>         0.0156
      5 H1          2.3279    0.1582   -0.1959 H         1 <0>         0.1022
      6 C4          2.4671   -1.6561   -1.3282 C.3       1 <0>         0.0660
      7 O2          1.9135   -2.9701   -1.3154 O.3       1 <0>        -0.3195
      8 C5          2.1315   -3.6952   -0.1268 C.3       1 <0>         0.2579
      9 C6          1.5886   -2.9749    1.1170 C.3       1 <0>         0.0224
     10 H2          0.5124   -3.1112    1.2238 H         1 <0>         0.1406
     11 C7          1.9968   -1.5000    1.1552 C.3       1 <0>         0.0483
     12 H3          2.9929   -1.3657    1.5768 H         1 <0>         0.1355
     13 O3          0.9684   -0.8158    1.9209 O.3       1 <0>        -0.3615
     14 O4          2.3254   -3.6306    2.1835 O.3       1 <0>        -0.3573
     15 C8          3.5307   -4.1478    1.6005 C.3       1 <0>         0.2406
     16 O5          3.5253   -3.8561    0.1888 O.3       1 <0>        -0.3608
     17 C9          4.7443   -3.4871    2.2574 C.3       1 <0>        -0.1549
     18 C10         3.5958   -5.6617    1.8124 C.3       1 <0>        -0.1875
     19 C11         1.4685   -5.0698   -0.2356 C.3       1 <0>         0.0540
     20 O6          2.1389   -5.8445   -1.2317 O.3       1 <0>        -0.7190
     21 S1          1.5597   -7.2386   -1.4254 S.o2      1 <0>         2.7922
     22 O7          2.4548   -7.9350   -2.2815 O.2       1 <0>        -0.9521
     23 O8          1.2135   -7.7177   -0.1332 O.2       1 <0>        -0.9902
     24 N1          0.1411   -7.0674   -2.2625 N.pl3     1 <0>        -1.2682
     25 C12        -1.3558   -1.0027    1.2569 C.3       1 <0>        -0.1570
     26 H4          0.8207    1.6475    0.8968 H         1 <0>         0.0640
     27 H5         -0.8808    1.5361    0.3860 H         1 <0>         0.0795
     28 H6         -0.4614    1.4331    2.1128 H         1 <0>         0.0783
     29 H7          2.2585   -1.1852   -2.2889 H         1 <0>         0.1264
     30 H8          3.5458   -1.7168   -1.1842 H         1 <0>         0.0924
     31 H9          4.7535   -3.7210    3.3219 H         1 <0>         0.0862
     32 H10         5.6571   -3.8626    1.7950 H         1 <0>         0.0829
     33 H11         4.6869   -2.4069    2.1231 H         1 <0>         0.0666
     34 H12         2.5933   -6.0827    1.7363 H         1 <0>         0.0754
     35 H13         4.2360   -6.1079    1.0514 H         1 <0>         0.0857
     36 H14         4.0046   -5.8730    2.8005 H         1 <0>         0.0871
     37 H15         1.5314   -5.5806    0.7253 H         1 <0>         0.1339
     38 H16         0.4218   -4.9473   -0.5141 H         1 <0>         0.1071
     39 H17        -0.1624   -6.1849   -2.5271 H         1 <0>         0.4163
     40 H18        -2.0938   -0.6361    0.5434 H         1 <0>         0.0797
     41 H19        -1.2583   -2.0836    1.1559 H         1 <0>         0.0641
     42 H20        -1.6777   -0.7600    2.2696 H         1 <0>         0.0821
     43 H21        -0.3863   -7.8495   -2.4881 H         1 <0>         0.4258
@<TRIPOS>BOND
     1    1    2 1
     2    1   26 1
     3    1   27 1
     4    1   28 1
     5    2   13 1
     6    2    3 1
     7    2   25 1
     8    3    4 1
     9    4    5 1
    10    4   11 1
    11    4    6 1
    12    6    7 1
    13    6   29 1
    14    6   30 1
    15    7    8 1
    16    8   16 1
    17    8    9 1
    18    8   19 1
    19    9   10 1
    20    9   11 1
    21    9   14 1
    22   11   12 1
    23   11   13 1
    24   14   15 1
    25   15   16 1
    26   15   17 1
    27   15   18 1
    28   17   31 1
    29   17   32 1
    30   17   33 1
    31   18   34 1
    32   18   35 1
    33   18   36 1
    34   19   20 1
    35   19   37 1
    36   19   38 1
    37   20   21 1
    38   21   22 2
    39   21   23 2
    40   21   24 1
    41   24   39 1
    42   24   43 1
    43   25   40 1
    44   25   41 1
    45   25   42 1
@<TRIPOS>MOLECULE
ZINC12410597
   19    19     0     0     0
SMALL
USER_CHARGES

@<TRIPOS>ATOM
      1 C1         -0.0172    1.4140    0.0098 C.ar      1 <0>        -0.1214
      2 C2          1.1587    2.1044    0.0023 C.ar      1 <0>         0.0095
      3 C3          2.3710    1.4260   -0.0134 C.ar      1 <0>        -0.7024
      4 C4          2.4065    0.0372   -0.0216 C.ar      1 <0>         0.0263
      5 C5          1.2478   -0.6818   -0.0140 C.ar      1 <0>        -0.2169
      6 C6          0.0021   -0.0041    0.0020 C.ar      1 <0>         0.1824
      7 N1         -1.1323   -0.6888    0.0096 N.2       1 <0>        -0.3487
      8 N2         -1.1104   -1.8126    0.0034 N.1       1 <0>         0.3011
      9 N3         -1.0890   -2.9124   -0.0028 N.1       1 <0>        -0.0907
     10 S1          3.8794    2.3365   -0.0235 S.o2      1 <0>         2.7050
     11 O1          4.8651    1.4832   -0.5887 O.2       1 <0>        -0.9628
     12 O2          3.5781    3.6155   -0.5645 O.2       1 <0>        -0.9586
     13 N4          4.3143    2.5811    1.5556 N.pl3     1 <0>        -1.2483
     14 H1         -0.9579    1.9442    0.0261 H         1 <0>         0.1525
     15 H2          1.1476    3.1843    0.0082 H         1 <0>         0.1550
     16 H3          3.3568   -0.4758   -0.0346 H         1 <0>         0.1491
     17 H4          1.2786   -1.7613   -0.0208 H         1 <0>         0.1293
     18 H5          5.2515    2.6534    1.7949 H         1 <0>         0.4223
     19 H6          3.6318    2.6520    2.2412 H         1 <0>         0.4174
@<TRIPOS>BOND
     1    1    6 ar
     2    1    2 ar
     3    1   14 1
     4    2    3 ar
     5    2   15 1
     6    3    4 ar
     7    3   10 1
     8    4    5 ar
     9    4   16 1
    10    5    6 ar
    11    5   17 1
    12    6    7 1
    13    7    8 2
    14    8    9 2
    15   10   11 2
    16   10   12 2
    17   10   13 1
    18   13   18 1
    19   13   19 1
@<TRIPOS>MOLECULE
ZINC01532734
   44    43     0     0     0
SMALL
USER_CHARGES

@<TRIPOS>ATOM
      1 C1         -0.0187    1.5258    0.0104 C.3       1 <0>        -0.1507
      2 C2          0.0021   -0.0041    0.0020 C.3       1 <0>        -0.1507
      3 C3         -1.4333   -0.5336    0.0129 C.3       1 <0>        -0.0098
      4 N1         -1.4134   -2.0025    0.0048 N.4       1 <0>        -0.5106
      5 C4         -2.7915   -2.5110    0.0152 C.3       1 <0>        -0.0049
      6 C5         -2.7708   -4.0408    0.0068 C.3       1 <0>        -0.1883
      7 C6         -4.2062   -4.5704    0.0177 C.3       1 <0>        -0.0022
      8 N2         -4.1863   -6.0392    0.0096 N.4       1 <0>        -0.6388
      9 C7          1.4167    2.0553   -0.0004 C.3       1 <0>        -0.0098
     10 N3          1.3968    3.5242    0.0076 N.4       1 <0>        -0.5106
     11 C8          2.7749    4.0327   -0.0028 C.3       1 <0>        -0.0049
     12 C9          2.7542    5.5625    0.0056 C.3       1 <0>        -0.1882
     13 C10         4.1896    6.0921   -0.0052 C.3       1 <0>        -0.0022
     14 N4          4.1697    7.5609    0.0029 N.4       1 <0>        -0.6388
     15 H1         -0.5459    1.8868   -0.8726 H         1 <0>         0.1026
     16 H2         -0.5289    1.8773    0.9072 H         1 <0>         0.1026
     17 H3          0.5123   -0.3556   -0.8948 H         1 <0>         0.1026
     18 H4          0.5293   -0.3651    0.8851 H         1 <0>         0.1026
     19 H5         -1.9435   -0.1821    0.9097 H         1 <0>         0.1405
     20 H6         -1.9605   -0.1726   -0.8702 H         1 <0>         0.1405
     21 H7         -0.9411   -2.3279   -0.8254 H         1 <0>         0.4349
     22 H8         -3.3017   -2.1594    0.9120 H         1 <0>         0.1462
     23 H9         -3.3187   -2.1499   -0.8678 H         1 <0>         0.1462
     24 H10        -2.2606   -4.3923   -0.8900 H         1 <0>         0.1140
     25 H11        -2.2436   -4.4019    0.8899 H         1 <0>         0.1140
     26 H12        -4.7164   -4.2189    0.9145 H         1 <0>         0.1459
     27 H13        -4.7334   -4.2093   -0.8654 H         1 <0>         0.1459
     28 H14        -3.7140   -6.3646   -0.8206 H         1 <0>         0.4414
     29 H15        -3.6982   -6.3735    0.8270 H         1 <0>         0.4414
     30 H16         1.9439    1.6943    0.8826 H         1 <0>         0.1405
     31 H17         1.9269    1.7038   -0.8972 H         1 <0>         0.1405
     32 H18         0.9088    3.8584   -0.8098 H         1 <0>         0.4349
     33 H19         3.3021    3.6716    0.8803 H         1 <0>         0.1462
     34 H20         3.2851    3.6811   -0.8996 H         1 <0>         0.1462
     35 H21         2.2270    5.9236   -0.8774 H         1 <0>         0.1140
     36 H22         2.2440    5.9140    0.9024 H         1 <0>         0.1140
     37 H23         4.7168    5.7310    0.8778 H         1 <0>         0.1459
     38 H24         4.6998    5.7406   -0.9020 H         1 <0>         0.1459
     39 H25         3.6817    7.8952   -0.8146 H         1 <0>         0.4414
     40 H26         3.6974    7.8863    0.8330 H         1 <0>         0.4414
     41 H27        -5.1329   -6.3885    0.0168 H         1 <0>         0.4545
     42 H28         0.9245    3.8496    0.8378 H         1 <0>         0.4349
     43 H29        -0.9254   -2.3367    0.8222 H         1 <0>         0.4349
     44 H30         5.1163    7.9102   -0.0043 H         1 <0>         0.4545
@<TRIPOS>BOND
     1    1    2 1
     2    1    9 1
     3    1   15 1
     4    1   16 1
     5    2    3 1
     6    2   17 1
     7    2   18 1
     8    3    4 1
     9    3   19 1
    10    3   20 1
    11    4    5 1
    12    4   21 1
    13    4   43 1
    14    5    6 1
    15    5   22 1
    16    5   23 1
    17    6    7 1
    18    6   24 1
    19    6   25 1
    20    7    8 1
    21    7   26 1
    22    7   27 1
    23    8   28 1
    24    8   29 1
    25    8   41 1
    26    9   10 1
    27    9   30 1
    28    9   31 1
    29   10   11 1
    30   10   32 1
    31   10   42 1
    32   11   12 1
    33   11   33 1
    34   11   34 1
    35   12   13 1
    36   12   35 1
    37   12   36 1
    38   13   14 1
    39   13   37 1
    40   13   38 1
    41   14   39 1
    42   14   40 1
    43   14   44 1
@<TRIPOS>MOLECULE
ZINC01532734
   43    42     0     0     0
SMALL
USER_CHARGES

@<TRIPOS>ATOM
      1 C1         -0.0187    1.5258    0.0104 C.3       1 <0>        -0.1498
      2 C2          0.0021   -0.0041    0.0020 C.3       1 <0>        -0.1503
      3 C3         -1.4333   -0.5336    0.0129 C.3       1 <0>        -0.0094
      4 N1         -1.4134   -2.0025    0.0048 N.4       1 <0>        -0.5097
      5 C4         -2.7915   -2.5110    0.0152 C.3       1 <0>        -0.0075
      6 C5         -2.7708   -4.0408    0.0068 C.3       1 <0>        -0.1524
      7 C6         -4.2062   -4.5704    0.0177 C.3       1 <0>         0.0629
      8 N2         -4.1863   -6.0392    0.0096 N.3       1 <0>        -0.8529
      9 C7          1.4167    2.0553   -0.0004 C.3       1 <0>        -0.0099
     10 N3          1.3968    3.5242    0.0076 N.4       1 <0>        -0.5104
     11 C8          2.7749    4.0327   -0.0028 C.3       1 <0>        -0.0049
     12 C9          2.7542    5.5625    0.0056 C.3       1 <0>        -0.1880
     13 C10         4.1896    6.0921   -0.0052 C.3       1 <0>        -0.0023
     14 N4          4.1697    7.5609    0.0029 N.4       1 <0>        -0.6386
     15 H1         -0.5459    1.8868   -0.8726 H         1 <0>         0.1016
     16 H2         -0.5289    1.8773    0.9072 H         1 <0>         0.1013
     17 H3          0.5123   -0.3556   -0.8948 H         1 <0>         0.1012
     18 H4          0.5293   -0.3651    0.8851 H         1 <0>         0.1008
     19 H5         -1.9435   -0.1821    0.9097 H         1 <0>         0.1360
     20 H6         -1.9605   -0.1726   -0.8702 H         1 <0>         0.1366
     21 H7         -0.9411   -2.3279   -0.8254 H         1 <0>         0.4321
     22 H8         -3.3017   -2.1594    0.9120 H         1 <0>         0.1341
     23 H9         -3.3187   -2.1499   -0.8678 H         1 <0>         0.1364
     24 H10        -2.2606   -4.3923   -0.8900 H         1 <0>         0.0983
     25 H11        -2.2436   -4.4019    0.8899 H         1 <0>         0.0873
     26 H12        -4.7164   -4.2189    0.9145 H         1 <0>         0.0384
     27 H13        -4.7334   -4.2093   -0.8654 H         1 <0>         0.0835
     28 H14        -3.6478   -6.3978    0.7839 H         1 <0>         0.3472
     29 H15         1.9439    1.6943    0.8826 H         1 <0>         0.1402
     30 H16         1.9269    1.7038   -0.8972 H         1 <0>         0.1404
     31 H17         0.9088    3.8584   -0.8098 H         1 <0>         0.4344
     32 H18         3.3021    3.6716    0.8803 H         1 <0>         0.1456
     33 H19         3.2851    3.6811   -0.8996 H         1 <0>         0.1457
     34 H20         2.2270    5.9236   -0.8774 H         1 <0>         0.1137
     35 H21         2.2440    5.9140    0.9024 H         1 <0>         0.1136
     36 H22         4.7168    5.7310    0.8778 H         1 <0>         0.1458
     37 H23         4.6998    5.7406   -0.9020 H         1 <0>         0.1458
     38 H24         3.6817    7.8952   -0.8146 H         1 <0>         0.4411
     39 H25         3.6974    7.8863    0.8330 H         1 <0>         0.4410
     40 H26        -0.9254   -2.3367    0.8222 H         1 <0>         0.4310
     41 H27         5.1163    7.9102   -0.0043 H         1 <0>         0.4534
     42 H28         0.9245    3.8496    0.8378 H         1 <0>         0.4344
     43 H29        -5.1232   -6.4136    0.0165 H         1 <0>         0.3624
@<TRIPOS>BOND
     1    1    2 1
     2    1    9 1
     3    1   15 1
     4    1   16 1
     5    2    3 1
     6    2   17 1
     7    2   18 1
     8    3    4 1
     9    3   19 1
    10    3   20 1
    11    4    5 1
    12    4   21 1
    13    4   40 1
    14    5    6 1
    15    5   22 1
    16    5   23 1
    17    6    7 1
    18    6   24 1
    19    6   25 1
    20    7    8 1
    21    7   26 1
    22    7   27 1
    23    8   28 1
    24    8   43 1
    25    9   10 1
    26    9   29 1
    27    9   30 1
    28   10   11 1
    29   10   31 1
    30   10   42 1
    31   11   12 1
    32   11   32 1
    33   11   33 1
    34   12   13 1
    35   12   34 1
    36   12   35 1
    37   13   14 1
    38   13   36 1
    39   13   37 1
    40   14   38 1
    41   14   39 1
    42   14   41 1
@<TRIPOS>MOLECULE
ZINC01532734
   43    42     0     0     0
SMALL
USER_CHARGES

@<TRIPOS>ATOM
      1 C1         -0.0187    1.5258    0.0104 C.3       1 <0>        -0.1499
      2 C2          0.0021   -0.0041    0.0020 C.3       1 <0>        -0.1184
      3 C3         -1.4333   -0.5336    0.0129 C.3       1 <0>         0.0565
      4 N1         -1.4134   -2.0025    0.0048 N.3       1 <0>        -0.6914
      5 C4         -2.7775   -2.5475    0.0149 C.3       1 <0>         0.0596
      6 C5         -2.7159   -4.0763    0.0061 C.3       1 <0>        -0.1535
      7 C6         -4.1367   -4.6440    0.0166 C.3       1 <0>        -0.0070
      8 N2         -4.0776   -6.1118    0.0082 N.4       1 <0>        -0.6376
      9 C7          1.4167    2.0553   -0.0004 C.3       1 <0>        -0.0091
     10 N3          1.3968    3.5242    0.0076 N.4       1 <0>        -0.5103
     11 C8          2.7749    4.0327   -0.0028 C.3       1 <0>        -0.0050
     12 C9          2.7542    5.5625    0.0056 C.3       1 <0>        -0.1876
     13 C10         4.1896    6.0921   -0.0052 C.3       1 <0>        -0.0023
     14 N4          4.1697    7.5609    0.0029 N.4       1 <0>        -0.6384
     15 H1         -0.5459    1.8868   -0.8726 H         1 <0>         0.0896
     16 H2         -0.5289    1.8773    0.9072 H         1 <0>         0.0921
     17 H3          0.5123   -0.3556   -0.8948 H         1 <0>         0.0760
     18 H4          0.5293   -0.3651    0.8851 H         1 <0>         0.0871
     19 H5         -1.9435   -0.1821    0.9097 H         1 <0>         0.0806
     20 H6         -1.9605   -0.1726   -0.8702 H         1 <0>         0.0388
     21 H7         -3.2970   -2.2100    0.9117 H         1 <0>         0.0863
     22 H8         -3.3140   -2.2004   -0.8682 H         1 <0>         0.0447
     23 H9         -2.1964   -4.4138   -0.8907 H         1 <0>         0.0880
     24 H10        -2.1794   -4.4234    0.8891 H         1 <0>         0.0991
     25 H11        -4.6562   -4.3064    0.9134 H         1 <0>         0.1361
     26 H12        -4.6732   -4.2969   -0.8664 H         1 <0>         0.1337
     27 H13        -3.5967   -6.4242   -0.8220 H         1 <0>         0.4366
     28 H14        -3.5809   -6.4331    0.8256 H         1 <0>         0.4377
     29 H15         1.9439    1.6943    0.8826 H         1 <0>         0.1378
     30 H16         1.9269    1.7038   -0.8972 H         1 <0>         0.1364
     31 H17         0.9088    3.8584   -0.8098 H         1 <0>         0.4322
     32 H18         3.3021    3.6716    0.8803 H         1 <0>         0.1444
     33 H19         3.2851    3.6811   -0.8996 H         1 <0>         0.1440
     34 H20         2.2270    5.9236   -0.8774 H         1 <0>         0.1126
     35 H21         2.2440    5.9140    0.9024 H         1 <0>         0.1129
     36 H22         4.7168    5.7310    0.8778 H         1 <0>         0.1456
     37 H23         4.6998    5.7406   -0.9020 H         1 <0>         0.1455
     38 H24         3.6817    7.8952   -0.8146 H         1 <0>         0.4406
     39 H25         3.6974    7.8863    0.8330 H         1 <0>         0.4406
     40 H26        -0.8899   -2.3527   -0.7835 H         1 <0>         0.3476
     41 H27         5.1163    7.9102   -0.0043 H         1 <0>         0.4522
     42 H28         0.9245    3.8496    0.8378 H         1 <0>         0.4327
     43 H29        -5.0145   -6.4861    0.0151 H         1 <0>         0.4431
@<TRIPOS>BOND
     1    1    2 1
     2    1    9 1
     3    1   15 1
     4    1   16 1
     5    2    3 1
     6    2   17 1
     7    2   18 1
     8    3    4 1
     9    3   19 1
    10    3   20 1
    11    4    5 1
    12    4   40 1
    13    5    6 1
    14    5   21 1
    15    5   22 1
    16    6    7 1
    17    6   23 1
    18    6   24 1
    19    7    8 1
    20    7   25 1
    21    7   26 1
    22    8   27 1
    23    8   28 1
    24    8   43 1
    25    9   10 1
    26    9   29 1
    27    9   30 1
    28   10   11 1
    29   10   31 1
    30   10   42 1
    31   11   12 1
    32   11   32 1
    33   11   33 1
    34   12   13 1
    35   12   34 1
    36   12   35 1
    37   13   14 1
    38   13   36 1
    39   13   37 1
    40   14   38 1
    41   14   39 1
    42   14   41 1
@<TRIPOS>MOLECULE
ZINC00002028
   14    14     0     0     0
SMALL
USER_CHARGES

@<TRIPOS>ATOM
      1 C1         -0.0167    1.3775    0.0096 C.ar      1 <0>        -0.0860
      2 C2          1.1691    2.0869    0.0021 C.ar      1 <0>        -0.1556
      3 C3          2.3821    1.4130   -0.0131 C.ar      1 <0>         0.1220
      4 C4          2.4035    0.0268   -0.0207 C.ar      1 <0>        -0.1743
      5 C5          1.2125   -0.6826   -0.0131 C.ar      1 <0>         0.1220
      6 C6          0.0021   -0.0041    0.0020 C.ar      1 <0>        -0.1556
      7 O1          1.2303   -2.0415   -0.0210 O.3       1 <0>        -0.4973
      8 O2          3.5479    2.1112   -0.0209 O.3       1 <0>        -0.4972
      9 H1         -0.9596    1.9038    0.0259 H         1 <0>         0.1338
     10 H2          1.1518    3.1668    0.0077 H         1 <0>         0.1327
     11 H3          3.3465   -0.4995   -0.0328 H         1 <0>         0.1354
     12 H4         -0.9260   -0.5563    0.0079 H         1 <0>         0.1327
     13 H5          1.2440   -2.4398    0.8601 H         1 <0>         0.3937
     14 H6          3.8939    2.3088    0.8602 H         1 <0>         0.3937
@<TRIPOS>BOND
     1    1    6 ar
     2    1    2 ar
     3    1    9 1
     4    2    3 ar
     5    2   10 1
     6    3    4 ar
     7    3    8 1
     8    4    5 ar
     9    4   11 1
    10    5    6 ar
    11    5    7 1
    12    6   12 1
    13    7   13 1
    14    8   14 1
@<TRIPOS>MOLECULE
ZINC04654875
   64    65     0     0     0
SMALL
USER_CHARGES
N-[3-[4-(3-aminopropylamino)butylamino]propyl]-2-(1-naphthyl)acetamide
@<TRIPOS>ATOM
      1 C1         -3.8495   -0.7218    3.5888 C.ar      1 <0>        -0.1196
      2 C2         -2.8010    0.1963    3.6085 C.ar      1 <0>        -0.1075
      3 C3         -2.3339    0.7514    2.4571 C.ar      1 <0>        -0.1176
      4 C4         -2.9126    0.3929    1.2275 C.ar      1 <0>        -0.0322
      5 C5         -3.9818   -0.5375    1.2079 C.ar      1 <0>        -0.0531
      6 C6         -4.4367   -1.0899    2.4176 C.ar      1 <0>        -0.0966
      7 C7         -4.5632   -0.8928   -0.0209 C.ar      1 <0>        -0.0933
      8 C8         -4.0966   -0.3369   -1.1725 C.ar      1 <0>        -0.1187
      9 C9         -3.0488    0.5813   -1.1527 C.ar      1 <0>        -0.0948
     10 C10        -2.4616    0.9495    0.0189 C.ar      1 <0>        -0.0734
     11 C11        -1.3296    1.9443    0.0189 C.3       1 <0>        -0.0991
     12 C12        -0.0144    1.2086    0.0087 C.2       1 <0>         0.5177
     13 O1          0.0021   -0.0041    0.0020 O.2       1 <0>        -0.5092
     14 N1          1.1435    1.8983    0.0013 N.am      1 <0>        -0.7442
     15 C13         2.4220    1.1832   -0.0147 C.3       1 <0>         0.1232
     16 C14         3.5713    2.1931   -0.0203 C.3       1 <0>        -0.1643
     17 C15         4.9065    1.4462   -0.0370 C.3       1 <0>        -0.0016
     18 C16         7.3106    1.7333   -0.0584 C.3       1 <0>        -0.0058
     19 C17         8.4325    2.7736   -0.0636 C.3       1 <0>        -0.1502
     20 C18         9.7872    2.0626   -0.0803 C.3       1 <0>        -0.1504
     21 C19        10.9091    3.1028   -0.0854 C.3       1 <0>        -0.0056
     22 C20        13.3132    3.3899   -0.1069 C.3       1 <0>        -0.0009
     23 C21        14.6485    2.6430   -0.1236 C.3       1 <0>        -0.1889
     24 C22        15.7977    3.6530   -0.1292 C.3       1 <0>         0.0020
     25 H1         -4.2010   -1.1478    4.5169 H         1 <0>         0.1267
     26 H2         -2.3523    0.4710    4.5517 H         1 <0>         0.1220
     27 H3         -1.5202    1.4610    2.4877 H         1 <0>         0.1157
     28 H4         -5.2478   -1.8030    2.4176 H         1 <0>         0.1315
     29 H5         -5.3758   -1.6035   -0.0515 H         1 <0>         0.1317
     30 H6         -4.5450   -0.6120   -2.1157 H         1 <0>         0.1278
     31 H7         -2.6975    1.0076   -2.0808 H         1 <0>         0.1206
     32 H8         -1.3916    2.5653    0.9126 H         1 <0>         0.1075
     33 H9         -1.4000    2.5749   -0.8673 H         1 <0>         0.1082
     34 H10         1.1304    2.8682    0.0067 H         1 <0>         0.4036
     35 H11         2.4967    0.5526    0.8712 H         1 <0>         0.0773
     36 H12         2.4797    0.5621   -0.9086 H         1 <0>         0.0773
     37 H13         3.4966    2.8237   -0.9062 H         1 <0>         0.0968
     38 H14         3.5136    2.8141    0.8737 H         1 <0>         0.0967
     39 H15         4.9812    0.8157    0.8489 H         1 <0>         0.1384
     40 H16         4.9642    0.8252   -0.9309 H         1 <0>         0.1385
     41 H17         7.4020    1.1047    0.8274 H         1 <0>         0.1363
     42 H18         7.3850    1.1143   -0.9525 H         1 <0>         0.1362
     43 H19         8.3411    3.4022   -0.9493 H         1 <0>         0.1007
     44 H20         8.3581    3.3926    0.8305 H         1 <0>         0.1006
     45 H21         9.8786    1.4340    0.8055 H         1 <0>         0.1013
     46 H22         9.8616    1.4435   -0.9744 H         1 <0>         0.1013
     47 H23        10.8177    3.7314   -0.9712 H         1 <0>         0.1392
     48 H24        10.8347    3.7219    0.8086 H         1 <0>         0.1392
     49 H25        13.2385    4.0205   -0.9928 H         1 <0>         0.1445
     50 H26        13.2555    4.0109    0.7871 H         1 <0>         0.1445
     51 H27        14.7232    2.0124    0.7623 H         1 <0>         0.1133
     52 H28        14.7062    2.0220   -1.0175 H         1 <0>         0.1129
     53 H29        15.7230    4.2836   -1.0151 H         1 <0>         0.1437
     54 H30        15.7400    4.2740    0.7648 H         1 <0>         0.1463
     55 H31        17.8551    3.5815   -0.1492 H         1 <0>         0.4555
     56 H32        17.1459    2.2960    0.6321 H         1 <0>         0.4428
     57 N2          6.0087    2.4266   -0.0423 N.4       1 <0>        -0.5198
     58 H33         5.9465    3.0107    0.7997 H         1 <0>         0.4357
     59 H34         5.9305    3.0196   -0.8769 H         1 <0>         0.4358
     60 N3         12.2111    2.4096   -0.1016 N.4       1 <0>        -0.5208
     61 H35        12.2733    1.8254   -0.9437 H         1 <0>         0.4386
     62 H36        12.2894    1.8165    0.7329 H         1 <0>         0.4387
     63 N4         17.0776    2.9237   -0.1673 N.4       1 <0>        -0.6482
     64 H37        17.1258    2.3717   -1.0317 H         1 <0>         0.4453
@<TRIPOS>BOND
     1    1    6 ar
     2    1    2 ar
     3    1   25 1
     4    2    3 ar
     5    2   26 1
     6    3    4 ar
     7    3   27 1
     8    4   10 ar
     9    4    5 ar
    10    5    6 ar
    11    5    7 ar
    12    6   28 1
    13    7    8 ar
    14    7   29 1
    15    8    9 ar
    16    8   30 1
    17    9   10 ar
    18    9   31 1
    19   10   11 1
    20   11   12 1
    21   11   32 1
    22   11   33 1
    23   12   13 2
    24   12   14 am
    25   14   15 1
    26   14   34 1
    27   15   16 1
    28   15   35 1
    29   15   36 1
    30   16   17 1
    31   16   37 1
    32   16   38 1
    33   17   39 1
    34   17   40 1
    35   17   57 1
    36   18   19 1
    37   18   41 1
    38   18   42 1
    39   18   57 1
    40   19   20 1
    41   19   43 1
    42   19   44 1
    43   20   21 1
    44   20   45 1
    45   20   46 1
    46   21   47 1
    47   21   48 1
    48   21   60 1
    49   22   23 1
    50   22   49 1
    51   22   50 1
    52   22   60 1
    53   23   24 1
    54   23   51 1
    55   23   52 1
    56   24   53 1
    57   24   54 1
    58   24   63 1
    59   55   63 1
    60   56   63 1
    61   57   58 1
    62   57   59 1
    63   60   61 1
    64   60   62 1
    65   63   64 1
@<TRIPOS>MOLECULE
ZINC06716957
   61    65     0     0     0
SMALL
USER_CHARGES
4-methyl-N-[3-(4-methylimidazol-1-yl)-5-(trifluoromethyl)phenyl]-3-[4-(3-pyridyl)pyrimidin-2-yl]amino-benzamide
@<TRIPOS>ATOM
      1 C1          4.8797   -3.9669    0.1547 C.3       1 <0>        -0.1225
      2 C2          3.5754   -4.7217    0.1669 C.ar      1 <0>        -0.0869
      3 C3          3.5795   -6.1039    0.1964 C.ar      1 <0>        -0.1014
      4 C4          2.3894   -6.8021    0.2020 C.ar      1 <0>        -0.1034
      5 C5          1.1753   -6.1126    0.1832 C.ar      1 <0>        -0.1270
      6 C6          1.1710   -4.7182    0.1589 C.ar      1 <0>        -0.0590
      7 C7          2.3724   -4.0259    0.1535 C.ar      1 <0>         0.1619
      8 N1          2.3736   -2.6277    0.1286 N.pl3     1 <0>        -0.6325
      9 C8          1.2893   -1.9432   -0.3959 C.ar      1 <0>         0.5614
     10 N2          0.3200   -2.6260   -0.9883 N.ar      1 <0>        -0.5534
     11 C9         -0.7320   -2.0090   -1.5021 C.ar      1 <0>         0.1977
     12 C10        -0.8164   -0.6303   -1.4172 C.ar      1 <0>        -0.2657
     13 C11         0.2206    0.0624   -0.7871 C.ar      1 <0>         0.2658
     14 N3          1.2507   -0.6239   -0.2975 N.ar      1 <0>        -0.5571
     15 C12         0.1772    1.5403   -0.6710 C.ar      1 <0>        -0.1169
     16 C13         1.2145    2.2342   -0.0406 C.ar      1 <0>        -0.0276
     17 C14         1.1266    3.6129    0.0420 C.ar      1 <0>        -0.1784
     18 C15         0.0258    4.2543   -0.4966 C.ar      1 <0>         0.1175
     19 N4         -0.9376    3.5726   -1.0856 N.ar      1 <0>        -0.4841
     20 C16        -0.8952    2.2604   -1.1934 C.ar      1 <0>         0.1340
     21 C17        -0.1012   -6.8583    0.1887 C.2       1 <0>         0.5673
     22 O1         -1.1570   -6.2560    0.1719 O.2       1 <0>        -0.5061
     23 N5         -0.0944   -8.2058    0.2122 N.am      1 <0>        -0.6669
     24 C18        -1.2963   -8.9130    0.1072 C.ar      1 <0>         0.1849
     25 C19        -1.4127  -10.1752    0.6766 C.ar      1 <0>        -0.1112
     26 C20        -2.6011  -10.8720    0.5773 C.ar      1 <0>        -0.1296
     27 C21        -3.6741  -10.3211   -0.0973 C.ar      1 <0>        -0.1084
     28 C22        -3.5624   -9.0626   -0.6729 C.ar      1 <0>         0.1652
     29 C23        -2.3721   -8.3576   -0.5706 C.ar      1 <0>        -0.1152
     30 N6         -4.6520   -8.5044   -1.3568 N.pl3     1 <0>        -0.4135
     31 C24        -4.6878   -7.2792   -1.9710 C.2       1 <0>        -0.0484
     32 C25        -5.9185   -7.1442   -2.5004 C.2       1 <0>         0.0096
     33 N7         -6.6190   -8.2532   -2.2203 N.2       1 <0>        -0.4758
     34 C26        -5.8695   -9.0779   -1.5408 C.2       1 <0>         0.1944
     35 C27        -6.4219   -5.9529   -3.2741 C.3       1 <0>        -0.0703
     36 C28        -2.7260  -12.2385    1.2004 C.3       1 <0>         0.5133
     37 F1         -2.3418  -13.2115    0.2714 F         1 <0>        -0.1709
     38 F2         -1.8981  -12.3154    2.3255 F         1 <0>        -0.1721
     39 F3         -4.0538  -12.4572    1.5826 F         1 <0>        -0.1717
     40 H1          5.1932   -3.7667    1.1793 H         1 <0>         0.0780
     41 H2          5.6404   -4.5642   -0.3479 H         1 <0>         0.0781
     42 H3          4.7488   -3.0240   -0.3761 H         1 <0>         0.0665
     43 H4          4.5175   -6.6391    0.2106 H         1 <0>         0.1366
     44 H5          2.3969   -7.8819    0.2212 H         1 <0>         0.1267
     45 H6          0.2351   -4.1794    0.1439 H         1 <0>         0.1656
     46 H7          3.1337   -2.1370    0.4786 H         1 <0>         0.4259
     47 H8         -1.5163   -2.5753   -1.9823 H         1 <0>         0.1768
     48 H9         -1.6642   -0.1022   -1.8280 H         1 <0>         0.1524
     49 H10         2.0625    1.7077    0.3717 H         1 <0>         0.1463
     50 H11         1.9093    4.1820    0.5216 H         1 <0>         0.1425
     51 H12        -0.0458    5.3301   -0.4343 H         1 <0>         0.1622
     52 H13        -1.7012    1.7376   -1.6869 H         1 <0>         0.1630
     53 H14         0.7441   -8.6851    0.3020 H         1 <0>         0.4178
     54 H15        -0.5744  -10.6101    1.2006 H         1 <0>         0.1488
     55 H16        -4.6008  -10.8701   -0.1765 H         1 <0>         0.1477
     56 H17        -2.2829   -7.3787   -1.0179 H         1 <0>         0.1618
     57 H18        -3.8832   -6.5605   -2.0210 H         1 <0>         0.1795
     58 H19        -6.1682  -10.0519   -1.1825 H         1 <0>         0.2113
     59 H20        -6.2142   -6.0943   -4.3347 H         1 <0>         0.0711
     60 H21        -7.4967   -5.8505   -3.1248 H         1 <0>         0.0731
     61 H22        -5.9187   -5.0522   -2.9223 H         1 <0>         0.0710
@<TRIPOS>BOND
     1    1    2 1
     2    1   40 1
     3    1   41 1
     4    1   42 1
     5    2    7 ar
     6    2    3 ar
     7    3    4 ar
     8    3   43 1
     9    4    5 ar
    10    4   44 1
    11    5    6 ar
    12    5   21 1
    13    6    7 ar
    14    6   45 1
    15    7    8 1
    16    8    9 1
    17    8   46 1
    18    9   14 ar
    19    9   10 ar
    20   10   11 ar
    21   11   12 ar
    22   11   47 1
    23   12   13 ar
    24   12   48 1
    25   13   14 ar
    26   13   15 1
    27   15   20 ar
    28   15   16 ar
    29   16   17 ar
    30   16   49 1
    31   17   18 ar
    32   17   50 1
    33   18   19 ar
    34   18   51 1
    35   19   20 ar
    36   20   52 1
    37   21   22 2
    38   21   23 am
    39   23   24 1
    40   23   53 1
    41   24   29 ar
    42   24   25 ar
    43   25   26 ar
    44   25   54 1
    45   26   27 ar
    46   26   36 1
    47   27   28 ar
    48   27   55 1
    49   28   29 ar
    50   28   30 1
    51   29   56 1
    52   30   34 1
    53   30   31 1
    54   31   32 2
    55   31   57 1
    56   32   33 1
    57   32   35 1
    58   33   34 2
    59   34   58 1
    60   35   59 1
    61   35   60 1
    62   35   61 1
    63   36   37 1
    64   36   38 1
    65   36   39 1
@<TRIPOS>MOLECULE
ZINC00020229
   47    48     0     0     0
SMALL
USER_CHARGES

@<TRIPOS>ATOM
      1 C1         -1.2761   -4.3639   -3.1085 C.3       1 <0>        -0.1860
      2 C2         -0.7301   -3.6161   -1.8905 C.3       1 <0>        -0.0234
      3 N1          0.2843   -2.6466   -2.3253 N.4       1 <0>        -0.3833
      4 C3          1.4464   -3.3632   -2.8927 C.3       1 <0>        -0.0112
      5 C4          2.6766   -2.5276   -2.4593 C.3       1 <0>        -0.1411
      6 C5          2.2619   -2.0751   -1.0345 C.3       1 <0>        -0.1419
      7 C6          0.7406   -1.8536   -1.1692 C.3       1 <0>         0.0089
      8 H1          0.5334   -0.7970   -1.3392 H         1 <0>         0.1471
      9 C7          0.0311   -2.3285    0.1004 C.3       1 <0>         0.1054
     10 N2          0.4414   -1.4922    1.2311 N.am      1 <0>        -0.7353
     11 C8          0.0201   -1.7888    2.4765 C.2       1 <0>         0.5739
     12 O1         -0.7005   -2.7505    2.6616 O.2       1 <0>        -0.5006
     13 C9          0.4333   -0.9466    3.6152 C.ar      1 <0>        -0.2025
     14 C10         1.2564    0.1627    3.4063 C.ar      1 <0>         0.0538
     15 C11         1.6384    0.9456    4.4739 C.ar      1 <0>        -0.7232
     16 C12         1.2099    0.6379    5.7550 C.ar      1 <0>         0.0546
     17 C13         0.3962   -0.4554    5.9756 C.ar      1 <0>        -0.2336
     18 C14        -0.0024   -1.2513    4.9118 C.ar      1 <0>         0.2462
     19 O2         -0.8061   -2.3229    5.1263 O.3       1 <0>        -0.2744
     20 C15        -1.2100   -2.5714    6.4743 C.3       1 <0>         0.0127
     21 S1          2.6771    2.3440    4.2087 S.o2      1 <0>         2.7060
     22 O3          3.3381    2.5983    5.4406 O.2       1 <0>        -0.9541
     23 O4          3.3846    2.1011    3.0005 O.2       1 <0>        -0.9646
     24 N3          1.6882    3.6417    3.9255 N.pl3     1 <0>        -1.2497
     25 H2         -1.7267   -3.6520   -3.8000 H         1 <0>         0.0803
     26 H3         -0.4617   -4.8893   -3.6074 H         1 <0>         0.0801
     27 H4         -2.0288   -5.0832   -2.7858 H         1 <0>         0.1066
     28 H5         -1.5444   -3.0907   -1.3916 H         1 <0>         0.1351
     29 H6         -0.2794   -4.3280   -1.1990 H         1 <0>         0.1332
     30 H7          1.5084   -4.3710   -2.4820 H         1 <0>         0.1334
     31 H8          1.3761   -3.3993   -3.9799 H         1 <0>         0.1378
     32 H9          3.5754   -3.1435   -2.4272 H         1 <0>         0.1196
     33 H10         2.8167   -1.6692   -3.1163 H         1 <0>         0.1013
     34 H11         2.4744   -2.8565   -0.3048 H         1 <0>         0.1036
     35 H12         2.7641   -1.1464   -0.7636 H         1 <0>         0.1180
     36 H13        -1.0477   -2.2516   -0.0358 H         1 <0>         0.0915
     37 H14         0.2990   -3.3661    0.2999 H         1 <0>         0.0952
     38 H15         1.0162   -0.7250    1.0834 H         1 <0>         0.4053
     39 H16         1.5932    0.4061    2.4094 H         1 <0>         0.1478
     40 H17         1.5144    1.2568    6.5860 H         1 <0>         0.1569
     41 H18         0.0663   -0.6888    6.9771 H         1 <0>         0.1535
     42 H19        -0.3283   -2.7381    7.0930 H         1 <0>         0.0668
     43 H20        -1.7619   -1.7109    6.8527 H         1 <0>         0.0666
     44 H21        -1.8481   -3.4546    6.5055 H         1 <0>         0.1133
     45 H22         0.7249    3.5276    3.9304 H         1 <0>         0.4171
     46 H23         2.0722    4.5159    3.7546 H         1 <0>         0.4246
     47 H24        -0.1083   -2.0336   -3.0240 H         1 <0>         0.4289
@<TRIPOS>BOND
     1    1    2 1
     2    1   25 1
     3    1   26 1
     4    1   27 1
     5    2    3 1
     6    2   28 1
     7    2   29 1
     8    3    7 1
     9    3    4 1
    10    3   47 1
    11    4    5 1
    12    4   30 1
    13    4   31 1
    14    5    6 1
    15    5   32 1
    16    5   33 1
    17    6    7 1
    18    6   34 1
    19    6   35 1
    20    7    8 1
    21    7    9 1
    22    9   10 1
    23    9   36 1
    24    9   37 1
    25   10   11 am
    26   10   38 1
    27   11   12 2
    28   11   13 1
    29   13   18 ar
    30   13   14 ar
    31   14   15 ar
    32   14   39 1
    33   15   16 ar
    34   15   21 1
    35   16   17 ar
    36   16   40 1
    37   17   18 ar
    38   17   41 1
    39   18   19 1
    40   19   20 1
    41   20   42 1
    42   20   43 1
    43   20   44 1
    44   21   22 2
    45   21   23 2
    46   21   24 1
    47   24   45 1
    48   24   46 1
@<TRIPOS>MOLECULE
ZINC00057008
   47    48     0     0     0
SMALL
USER_CHARGES

@<TRIPOS>ATOM
      1 C1         -0.0187    1.5258    0.0104 C.3       1 <0>        -0.1897
      2 C2          0.0021   -0.0041    0.0020 C.3       1 <0>        -0.0136
      3 N1          0.6897   -0.4778   -1.2066 N.4       1 <0>        -0.3974
      4 C3         -0.0977   -0.1111   -2.4030 C.3       1 <0>        -0.0106
      5 C4          0.0876   -1.3002   -3.3783 C.3       1 <0>        -0.1438
      6 C5          0.0948   -2.5070   -2.4033 C.3       1 <0>        -0.1316
      7 C6          0.8183   -1.9459   -1.1611 C.3       1 <0>         0.0107
      8 H1          0.3514   -2.3311   -0.2546 H         1 <0>         0.1483
      9 C7          2.2961   -2.3403   -1.1970 C.3       1 <0>         0.1010
     10 N2          3.0089   -1.6628   -0.1111 N.am      1 <0>        -0.7578
     11 C8          4.3318   -1.8612    0.0535 C.2       1 <0>         0.5719
     12 O1          4.9337   -2.6023   -0.6993 O.2       1 <0>        -0.4872
     13 C9          5.0496   -1.1789    1.1471 C.ar      1 <0>        -0.2038
     14 C10         4.3608   -0.3309    2.0180 C.ar      1 <0>         0.0500
     15 C11         5.0369    0.3029    3.0376 C.ar      1 <0>        -0.7236
     16 C12         6.3978    0.1034    3.2039 C.ar      1 <0>         0.0551
     17 C13         7.0907   -0.7318    2.3505 C.ar      1 <0>        -0.2312
     18 C14         6.4251   -1.3822    1.3219 C.ar      1 <0>         0.2480
     19 O2          7.1035   -2.2073    0.4857 O.3       1 <0>        -0.2733
     20 C15         8.5034   -2.3657    0.7254 C.3       1 <0>         0.0122
     21 S1          4.1669    1.3725    4.1347 S.o2      1 <0>         2.7072
     22 O3          5.1271    2.2718    4.6717 O.2       1 <0>        -0.9524
     23 O4          3.0123    1.8184    3.4366 O.2       1 <0>        -0.9690
     24 N3          3.6282    0.4460    5.3971 N.pl3     1 <0>        -1.2496
     25 H2          1.0039    1.9031    0.0027 H         1 <0>         0.0828
     26 H3         -0.5459    1.8868   -0.8726 H         1 <0>         0.0811
     27 H4         -0.5289    1.8773    0.9072 H         1 <0>         0.1105
     28 H5          0.5293   -0.3651    0.8851 H         1 <0>         0.1249
     29 H6         -1.0205   -0.3814    0.0098 H         1 <0>         0.1346
     30 H7         -1.1498    0.0064   -2.1435 H         1 <0>         0.1360
     31 H8          0.2896    0.8066   -2.8456 H         1 <0>         0.1357
     32 H9         -0.7473   -1.3669   -4.0759 H         1 <0>         0.1211
     33 H10         1.0351   -1.2237   -3.9118 H         1 <0>         0.0999
     34 H11        -0.9229   -2.8070   -2.1539 H         1 <0>         0.1077
     35 H12         0.6508   -3.3426   -2.8285 H         1 <0>         0.1183
     36 H13         2.3873   -3.4195   -1.0737 H         1 <0>         0.1172
     37 H14         2.7275   -2.0462   -2.1538 H         1 <0>         0.0984
     38 H15         2.5287   -1.0715    0.4895 H         1 <0>         0.3924
     39 H16         3.3000   -0.1722    1.8919 H         1 <0>         0.1417
     40 H17         6.9199    0.6046    4.0056 H         1 <0>         0.1577
     41 H18         8.1514   -0.8823    2.4865 H         1 <0>         0.1548
     42 H19         8.9974   -1.3974    0.6459 H         1 <0>         0.0674
     43 H20         8.6572   -2.7711    1.7254 H         1 <0>         0.0675
     44 H21         8.9232   -3.0494   -0.0124 H         1 <0>         0.1149
     45 H22         3.8201   -0.5046    5.4176 H         1 <0>         0.4178
     46 H23         3.1208    0.8539    6.1162 H         1 <0>         0.4251
     47 H24         1.6056   -0.0583   -1.2636 H         1 <0>         0.4224
@<TRIPOS>BOND
     1    1    2 1
     2    1   25 1
     3    1   26 1
     4    1   27 1
     5    2    3 1
     6    2   28 1
     7    2   29 1
     8    3    7 1
     9    3    4 1
    10    3   47 1
    11    4    5 1
    12    4   30 1
    13    4   31 1
    14    5    6 1
    15    5   32 1
    16    5   33 1
    17    6    7 1
    18    6   34 1
    19    6   35 1
    20    7    8 1
    21    7    9 1
    22    9   10 1
    23    9   36 1
    24    9   37 1
    25   10   11 am
    26   10   38 1
    27   11   12 2
    28   11   13 1
    29   13   18 ar
    30   13   14 ar
    31   14   15 ar
    32   14   39 1
    33   15   16 ar
    34   15   21 1
    35   16   17 ar
    36   16   40 1
    37   17   18 ar
    38   17   41 1
    39   18   19 1
    40   19   20 1
    41   20   42 1
    42   20   43 1
    43   20   44 1
    44   21   22 2
    45   21   23 2
    46   21   24 1
    47   24   45 1
    48   24   46 1
@<TRIPOS>MOLECULE
ZINC16969869
   14    14     0     0     0
SMALL
USER_CHARGES

@<TRIPOS>ATOM
      1 C1         -0.0222    1.7864    0.0119 C.2       1 <0>         0.3566
      2 N1          1.2813    2.0320    0.0007 N.2       1 <0>        -0.3577
      3 N2          2.1329    1.1018   -0.0124 N.2       1 <0>        -0.1157
      4 C2          1.7849   -0.1689   -0.0159 C.2       1 <0>        -0.5637
      5 S1          0.0021   -0.0041    0.0020 S.3       1 <0>         0.1000
      6 S2          2.7879   -1.6175   -0.0337 S.o2      1 <0>         2.7528
      7 O1          3.1517   -1.8762    1.3153 O.2       1 <0>        -0.9384
      8 O2          2.1073   -2.5728   -0.8358 O.2       1 <0>        -0.9428
      9 N3          4.1854   -1.2355   -0.8359 N.pl3     1 <0>        -1.2381
     10 N4         -1.0958    2.6643    0.0316 N.pl3     1 <0>        -0.7629
     11 H1          4.3135   -0.3408   -1.1879 H         1 <0>         0.4233
     12 H2          4.8758   -1.9066   -0.9538 H         1 <0>         0.4264
     13 H3         -2.0029    2.3210    0.0425 H         1 <0>         0.4307
     14 H4         -0.9394    3.6216    0.0345 H         1 <0>         0.4296
@<TRIPOS>BOND
     1    1    5 1
     2    1    2 2
     3    1   10 1
     4    2    3 1
     5    3    4 2
     6    4    5 1
     7    4    6 1
     8    6    7 2
     9    6    8 2
    10    6    9 1
    11    9   11 1
    12    9   12 1
    13   10   13 1
    14   10   14 1
@<TRIPOS>MOLECULE
ZINC16969869
   13    13     0     0     0
SMALL
USER_CHARGES

@<TRIPOS>ATOM
      1 C1         -0.0222    1.7864    0.0119 C.2       1 <0>         0.3260
      2 N1          1.2813    2.0320    0.0007 N.2       1 <0>        -0.3664
      3 N2          2.1329    1.1018   -0.0124 N.2       1 <0>        -0.1390
      4 C2          1.7849   -0.1689   -0.0159 C.2       1 <0>        -0.4090
      5 S1          0.0021   -0.0041    0.0020 S.3       1 <0>         0.0024
      6 S2          2.7879   -1.6175   -0.0337 S.o2      1 <0>         2.6062
      7 O1          3.1517   -1.8762    1.3153 O.2       1 <0>        -1.0408
      8 O2          2.1073   -2.5728   -0.8358 O.2       1 <0>        -1.0448
      9 N3          4.1854   -1.2355   -0.8359 N.2       1 <0>        -1.3165
     10 N4         -1.0958    2.6643    0.0316 N.pl3     1 <0>        -0.7864
     11 H1          4.8758   -1.9066   -0.9538 H         1 <0>         0.3281
     12 H2         -2.0029    2.3210    0.0425 H         1 <0>         0.4206
     13 H3         -0.9394    3.6216    0.0345 H         1 <0>         0.4195
@<TRIPOS>BOND
     1    1    5 1
     2    1    2 2
     3    1   10 1
     4    2    3 1
     5    3    4 2
     6    4    5 1
     7    4    6 1
     8    6    7 2
     9    6    8 2
    10    6    9 1
    11    9   11 1
    12   10   12 1
    13   10   13 1
@<TRIPOS>MOLECULE
ZINC06392199
   37    38     0     0     0
SMALL
USER_CHARGES

@<TRIPOS>ATOM
      1 C1         -0.0167    1.3781    0.0096 C.ar      1 <0>        -0.1239
      2 C2          1.1709    2.0855    0.0021 C.ar      1 <0>        -0.0191
      3 C3          2.3773    1.4107   -0.0130 C.ar      1 <0>        -0.6701
      4 C4          2.3960    0.0285   -0.0201 C.ar      1 <0>        -0.0181
      5 C5          1.2085   -0.6789   -0.0117 C.ar      1 <0>        -0.1211
      6 C6          0.0021   -0.0041    0.0020 C.ar      1 <0>        -0.0415
      7 C7         -1.2926   -0.7753    0.0107 C.3       1 <0>         0.1504
      8 N1         -1.7258   -1.0177   -1.3676 N.pl3     1 <0>        -1.1166
      9 S1         -2.8982   -2.1445   -1.6810 S.o2      1 <0>         2.6988
     10 O1         -3.1132   -2.1271   -3.0855 O.2       1 <0>        -0.9580
     11 O2         -2.5251   -3.3241   -0.9819 O.2       1 <0>        -0.9584
     12 C8         -4.3874   -1.5677   -0.9365 C.ar      1 <0>        -0.7357
     13 C9         -4.6847   -1.9132    0.3691 C.ar      1 <0>         0.0258
     14 C10        -5.8511   -1.4629    0.9557 C.ar      1 <0>        -0.2178
     15 C11        -6.7260   -0.6620    0.2327 C.ar      1 <0>         0.2700
     16 C12        -6.4242   -0.3168   -1.0786 C.ar      1 <0>        -0.2180
     17 C13        -5.2534   -0.7660   -1.6572 C.ar      1 <0>         0.0306
     18 N2         -7.9067   -0.2051    0.8227 N.pl3     1 <0>        -0.8653
     19 S2          3.8911    2.3124   -0.0238 S.o2      1 <0>         2.7009
     20 O3          4.8717    1.4529   -0.5884 O.2       1 <0>        -0.9608
     21 O4          3.5973    3.5927   -0.5658 O.2       1 <0>        -0.9616
     22 N3          4.3274    2.5556    1.5551 N.pl3     1 <0>        -1.2496
     23 H1         -0.9591    1.9053    0.0259 H         1 <0>         0.1383
     24 H2          1.1563    3.1654    0.0076 H         1 <0>         0.1462
     25 H3          3.3385   -0.4987   -0.0326 H         1 <0>         0.1471
     26 H4          1.2231   -1.7588   -0.0179 H         1 <0>         0.1407
     27 H5         -1.1443   -1.7285    0.5180 H         1 <0>         0.0962
     28 H6         -2.0551   -0.1993    0.5352 H         1 <0>         0.0818
     29 H7         -1.3259   -0.5183   -2.0967 H         1 <0>         0.4211
     30 H8         -4.0042   -2.5362    0.9305 H         1 <0>         0.1393
     31 H9         -6.0829   -1.7333    1.9753 H         1 <0>         0.1310
     32 H10        -7.1025    0.3054   -1.6436 H         1 <0>         0.1309
     33 H11        -5.0161   -0.4944   -2.6752 H         1 <0>         0.1396
     34 H12        -8.1165   -0.4471    1.7383 H         1 <0>         0.4040
     35 H13        -8.5169    0.3541    0.3169 H         1 <0>         0.4041
     36 H14         3.7682    2.2150    2.2708 H         1 <0>         0.4169
     37 H15         5.1421    3.0386    1.7642 H         1 <0>         0.4221
@<TRIPOS>BOND
     1    1    6 ar
     2    1    2 ar
     3    1   23 1
     4    2    3 ar
     5    2   24 1
     6    3    4 ar
     7    3   19 1
     8    4    5 ar
     9    4   25 1
    10    5    6 ar
    11    5   26 1
    12    6    7 1
    13    7    8 1
    14    7   27 1
    15    7   28 1
    16    8    9 1
    17    8   29 1
    18    9   10 2
    19    9   11 2
    20    9   12 1
    21   12   17 ar
    22   12   13 ar
    23   13   14 ar
    24   13   30 1
    25   14   15 ar
    26   14   31 1
    27   15   16 ar
    28   15   18 1
    29   16   17 ar
    30   16   32 1
    31   17   33 1
    32   18   34 1
    33   18   35 1
    34   19   20 2
    35   19   21 2
    36   19   22 1
    37   22   36 1
    38   22   37 1
@<TRIPOS>MOLECULE
ZINC01530783
   24    24     0     0     0
SMALL
USER_CHARGES

@<TRIPOS>ATOM
      1 C1         -0.0167    1.3778    0.0096 C.ar      1 <0>        -0.2151
      2 C2          1.1778    2.0868    0.0020 C.ar      1 <0>         0.3679
      3 C3          2.3873    1.4040   -0.0132 C.ar      1 <0>        -0.7704
      4 C4          2.3995    0.0228   -0.0207 C.ar      1 <0>         0.1443
      5 C5          1.2095   -0.6808   -0.0136 C.ar      1 <0>        -0.7462
      6 C6          0.0021   -0.0041    0.0020 C.ar      1 <0>         0.1376
      7 Cl1        -1.4897   -0.8918    0.0121 Cl        1 <0>        -0.0170
      8 S1          1.2298   -2.4427   -0.0244 S.o2      1 <0>         2.7025
      9 O1          0.3289   -2.8530   -1.0439 O.2       1 <0>        -0.9456
     10 O2          2.5961   -2.8332   -0.0128 O.2       1 <0>        -0.9565
     11 N1          0.5807   -2.9487    1.4126 N.pl3     1 <0>        -1.2467
     12 S2          3.9050    2.2991   -0.0235 S.o2      1 <0>         2.7027
     13 O3          3.8097    3.2719    1.0080 O.2       1 <0>        -0.9578
     14 O4          4.9461    1.3329   -0.0656 O.2       1 <0>        -0.9492
     15 N2          3.9732    3.1309   -1.4538 N.pl3     1 <0>        -1.2515
     16 N3          1.1627    3.4834    0.0092 N.pl3     1 <0>        -0.8462
     17 H1         -0.9587    1.9057    0.0259 H         1 <0>         0.1559
     18 H2          3.3399   -0.5082   -0.0326 H         1 <0>         0.1771
     19 H3          0.2785   -2.2970    2.0644 H         1 <0>         0.4160
     20 H4          0.5026   -3.8967    1.6024 H         1 <0>         0.4242
     21 H5          3.2464    3.0584   -2.0921 H         1 <0>         0.4178
     22 H6          4.7398    3.6907   -1.6532 H         1 <0>         0.4259
     23 H7          0.3174    3.9592    0.0195 H         1 <0>         0.4187
     24 H8          1.9974    3.9775    0.0039 H         1 <0>         0.4116
@<TRIPOS>BOND
     1    1    6 ar
     2    1    2 ar
     3    1   17 1
     4    2    3 ar
     5    2   16 1
     6    3    4 ar
     7    3   12 1
     8    4    5 ar
     9    4   18 1
    10    5    6 ar
    11    5    8 1
    12    6    7 1
    13    8    9 2
    14    8   10 2
    15    8   11 1
    16   11   19 1
    17   11   20 1
    18   12   13 2
    19   12   14 2
    20   12   15 1
    21   15   21 1
    22   15   22 1
    23   16   23 1
    24   16   24 1
@<TRIPOS>MOLECULE
ZINC01031283
   19    19     0     0     0
SMALL
USER_CHARGES

@<TRIPOS>ATOM
      1 C1         -0.0167    1.3781    0.0096 C.ar      1 <0>        -0.0767
      2 C2          1.1709    2.0855    0.0021 C.ar      1 <0>        -0.0150
      3 C3          2.3773    1.4107   -0.0130 C.ar      1 <0>        -0.6394
      4 C4          2.3961    0.0285   -0.0201 C.ar      1 <0>        -0.0150
      5 C5          1.2084   -0.6789   -0.0117 C.ar      1 <0>        -0.0767
      6 C6          0.0021   -0.0041    0.0020 C.ar      1 <0>         0.0066
      7 N1         -1.2696   -0.7615    0.0105 N.pl3     1 <0>         0.0214
      8 O1         -2.3247   -0.1714    0.0241 O.2       1 <0>        -0.1403
      9 O2         -1.2532   -1.9704    0.0039 O.3       1 <0>        -0.1404
     10 S1          3.8911    2.3124   -0.0238 S.o2      1 <0>         2.7045
     11 O3          4.8717    1.4529   -0.5884 O.2       1 <0>        -0.9494
     12 O4          3.5973    3.5927   -0.5658 O.2       1 <0>        -0.9494
     13 N2          4.3274    2.5556    1.5551 N.pl3     1 <0>        -1.2463
     14 H1         -0.9591    1.9053    0.0259 H         1 <0>         0.1670
     15 H2          1.1563    3.1654    0.0076 H         1 <0>         0.1689
     16 H3          3.3385   -0.4987   -0.0326 H         1 <0>         0.1689
     17 H4          1.2231   -1.7588   -0.0179 H         1 <0>         0.1670
     18 H5          3.7682    2.2150    2.2708 H         1 <0>         0.4182
     19 H6          5.1421    3.0386    1.7642 H         1 <0>         0.4261
@<TRIPOS>BOND
     1    1    6 ar
     2    1    2 ar
     3    1   14 1
     4    2    3 ar
     5    2   15 1
     6    3    4 ar
     7    3   10 1
     8    4    5 ar
     9    4   16 1
    10    5    6 ar
    11    5   17 1
    12    6    7 1
    13    7    8 2
    14    7    9 1
    15   10   11 2
    16   10   12 2
    17   10   13 1
    18   13   18 1
    19   13   19 1
@<TRIPOS>MOLECULE
ZINC01549366
   36    38     0     0     0
SMALL
USER_CHARGES
oxo-sulfamoyloxy-BLAH
@<TRIPOS>ATOM
      1 C1          2.0878   -1.3376    2.0956 C.ar      1 <0>        -0.1108
      2 C2          2.7188   -1.2078    3.2993 C.ar      1 <0>        -0.0400
      3 C3          3.3764   -0.0128    3.6120 C.ar      1 <0>        -0.1280
      4 C4          3.3849    1.0490    2.6913 C.ar      1 <0>         0.1602
      5 C5          2.7439    0.8995    1.4712 C.ar      1 <0>        -0.1411
      6 C6          2.0937   -0.2888    1.1784 C.ar      1 <0>         0.1152
      7 O1          1.4619   -0.4342   -0.0142 O.3       1 <0>        -0.6647
      8 S1          0.0021   -0.0041    0.0020 S.o2      1 <0>         2.7792
      9 O2         -0.5313   -0.4243    1.2503 O.2       1 <0>        -0.9692
     10 O3         -0.5551   -0.4110   -1.2403 O.2       1 <0>        -0.9445
     11 N1         -0.0204    1.6518    0.0111 N.pl3     1 <0>        -1.2638
     12 O4          4.0224    2.1973    3.0032 O.3       1 <0>        -0.2644
     13 C7          4.6457    2.3490    4.1789 C.2       1 <0>         0.5115
     14 O5          5.2101    3.4021    4.4151 O.2       1 <0>        -0.4472
     15 C8          4.6703    1.3229    5.1577 C.2       1 <0>        -0.1893
     16 C9          4.0685    0.1463    4.8999 C.2       1 <0>         0.0212
     17 C10         4.0796   -1.0290    5.8423 C.3       1 <0>        -0.0930
     18 C11         4.1555   -0.5753    7.3000 C.3       1 <0>        -0.1273
     19 C12         5.6292   -0.5008    7.7075 C.3       1 <0>        -0.1259
     20 C13         6.3525    0.5078    6.8185 C.3       1 <0>        -0.1176
     21 C14         5.3609    1.6175    6.4623 C.3       1 <0>        -0.0771
     22 H1          1.5802   -2.2595    1.8529 H         1 <0>         0.1555
     23 H2          2.7103   -2.0236    4.0070 H         1 <0>         0.1600
     24 H3          2.7474    1.7069    0.7539 H         1 <0>         0.1604
     25 H4          0.8130    2.1481    0.0058 H         1 <0>         0.4144
     26 H5         -0.8669    2.1253    0.0177 H         1 <0>         0.4281
     27 H6          3.1694   -1.6109    5.6970 H         1 <0>         0.0885
     28 H7          4.9421   -1.6569    5.6190 H         1 <0>         0.0977
     29 H8          3.6962    0.4078    7.4027 H         1 <0>         0.0780
     30 H9          3.6350   -1.2922    7.9350 H         1 <0>         0.0765
     31 H10         5.7029   -0.1860    8.7484 H         1 <0>         0.0683
     32 H11         6.0884   -1.4825    7.5913 H         1 <0>         0.0674
     33 H12         7.2017    0.9304    7.3555 H         1 <0>         0.0750
     34 H13         6.6988    0.0163    5.9093 H         1 <0>         0.0654
     35 H14         5.8959    2.5635    6.3789 H         1 <0>         0.0891
     36 H15         4.6146    1.6972    7.2528 H         1 <0>         0.0924
@<TRIPOS>BOND
     1    1    6 ar
     2    1    2 ar
     3    1   22 1
     4    2    3 ar
     5    2   23 1
     6    3   16 1
     7    3    4 ar
     8    4    5 ar
     9    4   12 1
    10    5    6 ar
    11    5   24 1
    12    6    7 1
    13    7    8 1
    14    8    9 2
    15    8   10 2
    16    8   11 1
    17   11   25 1
    18   11   26 1
    19   12   13 1
    20   13   14 2
    21   13   15 1
    22   15   21 1
    23   15   16 2
    24   16   17 1
    25   17   18 1
    26   17   27 1
    27   17   28 1
    28   18   19 1
    29   18   29 1
    30   18   30 1
    31   19   20 1
    32   19   31 1
    33   19   32 1
    34   20   21 1
    35   20   33 1
    36   20   34 1
    37   21   35 1
    38   21   36 1
@<TRIPOS>MOLECULE
ZINC00001504
   17    17     0     0     0
SMALL
USER_CHARGES

@<TRIPOS>ATOM
      1 C1         -0.0167    1.3773    0.0096 C.ar      1 <0>        -0.1008
      2 C2          1.1859    2.0916    0.0020 C.ar      1 <0>        -0.1093
      3 C3          2.4041    1.4044   -0.0134 C.ar      1 <0>        -0.1008
      4 C4          2.4161    0.0229   -0.0209 C.ar      1 <0>         0.0731
      5 C5          1.2168   -0.6855   -0.0137 C.ar      1 <0>         0.0424
      6 C6          0.0021   -0.0041    0.0020 C.ar      1 <0>         0.0741
      7 O1         -1.1668   -0.6993    0.0099 O.3       1 <0>        -0.4936
      8 O2          1.2319   -2.0439   -0.0216 O.3       1 <0>        -0.4848
      9 O3          3.6001   -0.6461   -0.0358 O.3       1 <0>        -0.4884
     10 C7          1.1695    3.5640    0.0095 C.2       1 <0>         0.5214
     11 O4          0.1034    4.1638    0.0225 O.co2     1 <0>        -0.6808
     12 O5          2.2221    4.1875    0.0028 O.co2     1 <0>        -0.6809
     13 H1         -0.9588    1.9051    0.0260 H         1 <0>         0.1414
     14 H2          3.3343    1.9531   -0.0196 H         1 <0>         0.1412
     15 H3         -1.5136   -0.8957   -0.8712 H         1 <0>         0.3861
     16 H4          1.2445   -2.4422    0.8595 H         1 <0>         0.3793
     17 H5          3.9509   -0.8443    0.8433 H         1 <0>         0.3804
@<TRIPOS>BOND
     1    1    6 ar
     2    1    2 ar
     3    1   13 1
     4    2    3 ar
     5    2   10 1
     6    3    4 ar
     7    3   14 1
     8    4    5 ar
     9    4    9 1
    10    5    6 ar
    11    5    8 1
    12    6    7 1
    13    7   15 1
    14    8   16 1
    15    9   17 1
    16   10   11 2
    17   10   12 1
@<TRIPOS>MOLECULE
ZINC01543408
   26    25     0     0     0
SMALL
USER_CHARGES

@<TRIPOS>ATOM
      1 C1         -0.0187    1.5258    0.0104 C.3       1 <0>        -0.1207
      2 C2          0.0021   -0.0041    0.0020 C.3       1 <0>        -0.1207
      3 C3         -1.4333   -0.5336    0.0129 C.3       1 <0>        -0.1546
      4 C4         -1.4126   -2.0635    0.0045 C.3       1 <0>        -0.0098
      5 N1         -2.7907   -2.5720    0.0149 N.4       1 <0>        -0.6391
      6 C5          1.4167    2.0553   -0.0004 C.3       1 <0>        -0.1546
      7 C6          1.3960    3.5852    0.0080 C.3       1 <0>        -0.0098
      8 N2          2.7741    4.0937   -0.0024 N.4       1 <0>        -0.6392
      9 H1         -0.5459    1.8868   -0.8726 H         1 <0>         0.0793
     10 H2         -0.5289    1.8773    0.9072 H         1 <0>         0.0793
     11 H3          0.5123   -0.3556   -0.8948 H         1 <0>         0.0793
     12 H4          0.5293   -0.3651    0.8851 H         1 <0>         0.0793
     13 H5         -1.9435   -0.1821    0.9097 H         1 <0>         0.0904
     14 H6         -1.9605   -0.1726   -0.8702 H         1 <0>         0.0904
     15 H7         -0.9024   -2.4150   -0.8923 H         1 <0>         0.1344
     16 H8         -0.8854   -2.4246    0.8875 H         1 <0>         0.1344
     17 H9         -3.2630   -2.2466    0.8450 H         1 <0>         0.4368
     18 H10        -3.2787   -2.2377   -0.8025 H         1 <0>         0.4368
     19 H11         1.9439    1.6943    0.8826 H         1 <0>         0.0904
     20 H12         1.9269    1.7038   -0.8972 H         1 <0>         0.0904
     21 H13         0.8688    3.9463   -0.8751 H         1 <0>         0.1345
     22 H14         0.8858    3.9367    0.9048 H         1 <0>         0.1344
     23 H15         3.2621    3.7594    0.8150 H         1 <0>         0.4368
     24 H16         3.2464    3.7683   -0.8326 H         1 <0>         0.4368
     25 H17        -2.7770   -3.5808    0.0093 H         1 <0>         0.4425
     26 H18         2.7604    5.1025    0.0031 H         1 <0>         0.4425
@<TRIPOS>BOND
     1    1    2 1
     2    1    6 1
     3    1    9 1
     4    1   10 1
     5    2    3 1
     6    2   11 1
     7    2   12 1
     8    3    4 1
     9    3   13 1
    10    3   14 1
    11    4    5 1
    12    4   15 1
    13    4   16 1
    14    5   17 1
    15    5   18 1
    16    5   25 1
    17    6    7 1
    18    6   19 1
    19    6   20 1
    20    7    8 1
    21    7   21 1
    22    7   22 1
    23    8   23 1
    24    8   24 1
    25    8   26 1
