@<TRIPOS>MOLECULE
ZINC04598914
   56    56     0     0     0
SMALL
USER_CHARGES
2-(2-benzyloxycarbonylamino-4-methyl-pentanoyl)amino-4-methyl-pentanoic acid
@<TRIPOS>ATOM
      1 C1         -0.3566   -2.8801   -2.4985 C.3       1 <0>        -0.1500
      2 C2         -0.8904   -2.3479   -1.1670 C.3       1 <0>        -0.1168
      3 C3         -2.3244   -2.8394   -0.9595 C.3       1 <0>        -0.1363
      4 C4         -0.0074   -2.8541   -0.0247 C.3       1 <0>        -0.1165
      5 C5          1.3884   -2.2399   -0.1484 C.3       1 <0>         0.1458
      6 H1          1.8183   -2.5063   -1.1139 H         1 <0>         0.1102
      7 C6          1.2887   -0.7401   -0.0395 C.2       1 <0>         0.5159
      8 O1          1.5041   -0.1935    1.0215 O.2       1 <0>        -0.5358
      9 N1          0.9601   -0.0063   -1.1212 N.am      1 <0>        -0.6903
     10 C7          0.9680    1.4566   -1.0438 C.3       1 <0>         0.0999
     11 H2          1.7746    1.7814   -0.3865 H         1 <0>         0.0910
     12 C8          1.1830    2.0401   -2.4417 C.3       1 <0>        -0.1048
     13 C9          2.5491    1.6013   -2.9729 C.3       1 <0>        -0.0984
     14 C10         2.7007    2.0543   -4.4264 C.3       1 <0>        -0.1444
     15 C11         3.6537    2.2336   -2.1238 C.3       1 <0>        -0.1470
     16 C12        -0.3509    1.9378   -0.4961 C.2       1 <0>         0.4587
     17 O2         -1.2094    1.1405   -0.2007 O.co2     1 <0>        -0.6254
     18 N2          2.2440   -2.7516    0.9251 N.am      1 <0>        -0.6902
     19 C13         2.8464   -3.9500    0.7933 C.2       1 <0>         0.6526
     20 O3          2.7568   -4.5634   -0.2518 O.2       1 <0>        -0.5743
     21 O4          3.5476   -4.4675    1.8196 O.3       1 <0>        -0.3634
     22 C14         4.1696   -5.7621    1.6067 C.3       1 <0>         0.1294
     23 C15         4.9051   -6.1774    2.8547 C.ar      1 <0>        -0.0980
     24 C16         6.2329   -5.8313    3.0220 C.ar      1 <0>        -0.0930
     25 C17         6.9062   -6.2081    4.1690 C.ar      1 <0>        -0.1243
     26 C18         6.2545   -6.9396    5.1442 C.ar      1 <0>        -0.1099
     27 C19         4.9283   -7.2906    4.9744 C.ar      1 <0>        -0.1244
     28 C20         4.2535   -6.9093    3.8297 C.ar      1 <0>        -0.0928
     29 H3         -0.4285   -3.9676   -2.5102 H         1 <0>         0.0556
     30 H4         -0.9467   -2.4681   -3.3172 H         1 <0>         0.0570
     31 H5          0.6856   -2.5835   -2.6167 H         1 <0>         0.0512
     32 H6         -0.8782   -1.2581   -1.1802 H         1 <0>         0.1027
     33 H7         -2.7047   -2.4603   -0.0109 H         1 <0>         0.0565
     34 H8         -2.9535   -2.4788   -1.7733 H         1 <0>         0.0551
     35 H9         -2.3366   -3.9293   -0.9463 H         1 <0>         0.0470
     36 H10         0.0676   -3.9402   -0.0773 H         1 <0>         0.0752
     37 H11        -0.4478   -2.5661    0.9299 H         1 <0>         0.0745
     38 H12         0.7184   -0.4468   -1.9509 H         1 <0>         0.3937
     39 H13         0.4007    1.6803   -3.1099 H         1 <0>         0.0608
     40 H14         1.1455    3.1283   -2.3910 H         1 <0>         0.0871
     41 H15         2.6274    0.5153   -2.9208 H         1 <0>         0.0652
     42 H16         3.6357    1.6678   -4.8319 H         1 <0>         0.0490
     43 H17         1.8651    1.6745   -5.0144 H         1 <0>         0.0527
     44 H18         2.7091    3.1435   -4.4685 H         1 <0>         0.0543
     45 H19         3.5457    1.9108   -1.0883 H         1 <0>         0.0569
     46 H20         4.6269    1.9209   -2.5023 H         1 <0>         0.0472
     47 H21         3.5754    3.3195   -2.1759 H         1 <0>         0.0557
     48 H22         2.3769   -2.2279    1.7307 H         1 <0>         0.4171
     49 H23         3.4019   -6.5003    1.3747 H         1 <0>         0.0804
     50 H24         4.8723   -5.6953    0.7761 H         1 <0>         0.0801
     51 H25         6.7433   -5.2633    2.2582 H         1 <0>         0.1253
     52 H26         7.9425   -5.9342    4.3015 H         1 <0>         0.1251
     53 H27         6.7816   -7.2372    6.0386 H         1 <0>         0.1234
     54 H28         4.4192   -7.8624    5.7361 H         1 <0>         0.1251
     55 H29         3.2174   -7.1835    3.6970 H         1 <0>         0.1255
     56 O5         -0.5720    3.2521   -0.3364 O.co2     1 <0>        -0.7670
@<TRIPOS>BOND
     1    1    2 1
     2    1   29 1
     3    1   30 1
     4    1   31 1
     5    2    3 1
     6    2    4 1
     7    2   32 1
     8    3   33 1
     9    3   34 1
    10    3   35 1
    11    4    5 1
    12    4   36 1
    13    4   37 1
    14    5    6 1
    15    5    7 1
    16    5   18 1
    17    7    8 2
    18    7    9 am
    19    9   10 1
    20    9   38 1
    21   10   11 1
    22   10   12 1
    23   10   16 1
    24   12   13 1
    25   12   39 1
    26   12   40 1
    27   13   14 1
    28   13   15 1
    29   13   41 1
    30   14   42 1
    31   14   43 1
    32   14   44 1
    33   15   45 1
    34   15   46 1
    35   15   47 1
    36   16   17 2
    37   16   56 1
    38   18   19 am
    39   18   48 1
    40   19   20 2
    41   19   21 1
    42   21   22 1
    43   22   23 1
    44   22   49 1
    45   22   50 1
    46   23   28 ar
    47   23   24 ar
    48   24   25 ar
    49   24   51 1
    50   25   26 ar
    51   25   52 1
    52   26   27 ar
    53   26   53 1
    54   27   28 ar
    55   27   54 1
    56   28   55 1
@<TRIPOS>MOLECULE
ZINC01605725
   39    39     0     0     0
SMALL
USER_CHARGES
2-(2-amino-3-methyl-butanoyl)amino-3-phenyl-propanoic acid
@<TRIPOS>ATOM
      1 C1          2.8376    2.8908    3.7933 C.3       1 <0>        -0.1754
      2 C2          4.2369    2.3610    3.4736 C.3       1 <0>        -0.1055
      3 C3          4.9389    1.9586    4.7722 C.3       1 <0>        -0.1652
      4 C4          4.1234    1.1418    2.5562 C.3       1 <0>         0.0139
      5 H1          3.5457    0.3640    3.0555 H         1 <0>         0.1556
      6 C5          3.4320    1.5382    1.2772 C.2       1 <0>         0.5041
      7 O1          4.0841    1.7593    0.2788 O.2       1 <0>        -0.5316
      8 N1          2.0891    1.6470    1.2428 N.am      1 <0>        -0.6645
      9 C6          1.4170    2.0324   -0.0006 C.3       1 <0>         0.1059
     10 H2          1.9538    1.6096   -0.8498 H         1 <0>         0.0981
     11 C7         -0.0184    1.5028    0.0103 C.3       1 <0>        -0.0795
     12 C8          0.0021   -0.0041    0.0020 C.ar      1 <0>        -0.0728
     13 C9         -0.0057   -0.6888   -1.1988 C.ar      1 <0>        -0.1129
     14 C10         0.0179   -2.0709   -1.2065 C.ar      1 <0>        -0.1144
     15 C11         0.0387   -2.7685   -0.0132 C.ar      1 <0>        -0.1297
     16 C12         0.0412   -2.0838    1.1877 C.ar      1 <0>        -0.1220
     17 C13         0.0229   -0.7016    1.1953 C.ar      1 <0>        -0.1258
     18 C14         1.3973    3.5348   -0.1161 C.2       1 <0>         0.4585
     19 O2          1.8937    4.2140    0.7511 O.co2     1 <0>        -0.6269
     20 H3          2.3376    3.1775    2.8681 H         1 <0>         0.1034
     21 H4          2.2599    2.1130    4.2926 H         1 <0>         0.0616
     22 H5          2.9185    3.7594    4.4468 H         1 <0>         0.0801
     23 H6          4.8146    3.1389    2.9743 H         1 <0>         0.1036
     24 H7          5.9357    1.5812    4.5444 H         1 <0>         0.0505
     25 H8          5.0197    2.8272    5.4257 H         1 <0>         0.0875
     26 H9          4.3611    1.1808    5.2715 H         1 <0>         0.0729
     27 H10         1.5676    1.4702    2.0414 H         1 <0>         0.3994
     28 H11        -0.5455    1.8639   -0.8728 H         1 <0>         0.1063
     29 H12        -0.5286    1.8543    0.9071 H         1 <0>         0.0765
     30 H13        -0.0264   -0.1439   -2.1310 H         1 <0>         0.1265
     31 H14         0.0156   -2.6059   -2.1447 H         1 <0>         0.1220
     32 H15         0.0527   -3.8484   -0.0191 H         1 <0>         0.1191
     33 H16         0.0571   -2.6288    2.1200 H         1 <0>         0.1184
     34 H17         0.0244   -0.1667    2.1335 H         1 <0>         0.1151
     35 H18         5.4170   -0.2101    1.6975 H         1 <0>         0.4390
     36 H19         6.0226    1.3363    1.7857 H         1 <0>         0.4435
     37 O3          0.8282    4.1184   -1.1826 O.co2     1 <0>        -0.7441
     38 N2          5.4753    0.6286    2.2728 N.4       1 <0>        -0.6285
     39 H20         5.9404    0.3959    3.1580 H         1 <0>         0.4376
@<TRIPOS>BOND
     1    1    2 1
     2    1   20 1
     3    1   21 1
     4    1   22 1
     5    2    3 1
     6    2    4 1
     7    2   23 1
     8    3   24 1
     9    3   25 1
    10    3   26 1
    11    4    5 1
    12    4    6 1
    13    4   38 1
    14    6    7 2
    15    6    8 am
    16    8    9 1
    17    8   27 1
    18    9   10 1
    19    9   11 1
    20    9   18 1
    21   11   12 1
    22   11   28 1
    23   11   29 1
    24   12   17 ar
    25   12   13 ar
    26   13   14 ar
    27   13   30 1
    28   14   15 ar
    29   14   31 1
    30   15   16 ar
    31   15   32 1
    32   16   17 ar
    33   16   33 1
    34   17   34 1
    35   18   19 2
    36   18   37 1
    37   35   38 1
    38   36   38 1
    39   38   39 1
