@<TRIPOS>MOLECULE
ZINC40891759
   55    59     0     0     0
SMALL
USER_CHARGES

@<TRIPOS>ATOM
      1 C1          4.9241   -2.6995   -6.1875 C.3       1 <0>        -0.1839
      2 C2          3.9355   -3.8483   -5.9782 C.3       1 <0>         0.0083
      3 H1          3.7394   -3.9693   -4.9128 H         1 <0>         0.1698
      4 C3          2.6462   -3.5383   -6.6942 C.2       1 <0>         0.4995
      5 O1          2.2434   -4.2791   -7.5659 O.2       1 <0>        -0.5236
      6 N1          1.9408   -2.4378   -6.3659 N.am      1 <0>        -0.6984
      7 C4          0.6874   -2.1365   -7.0620 C.3       1 <0>         0.1634
      8 C5          0.1007   -0.8623   -6.5112 C.ar      1 <0>        -0.1082
      9 C6         -0.7699   -0.9102   -5.4376 C.ar      1 <0>        -0.0787
     10 C7         -1.3106    0.2566   -4.9296 C.ar      1 <0>        -0.1051
     11 C8         -0.9823    1.4742   -5.4931 C.ar      1 <0>        -0.0742
     12 C9         -0.1082    1.5258   -6.5707 C.ar      1 <0>         0.1236
     13 C10         0.4374    0.3523   -7.0754 C.ar      1 <0>        -0.0506
     14 N2          0.2264    2.7586   -7.1445 N.pl3     1 <0>        -0.2773
     15 C11         0.2868    3.0361   -8.4832 C.2       1 <0>         0.1503
     16 C12         0.6527    4.3618   -8.6051 C.2       1 <0>        -0.1554
     17 C13         0.8111    4.8767   -7.3197 C.2       1 <0>        -0.0097
     18 N3          0.5533    3.9308   -6.4515 N.2       1 <0>        -0.1885
     19 C14         1.2073    6.2914   -6.9840 C.3       1 <0>         0.5591
     20 F1          0.0588    7.0814   -6.8646 F         1 <0>        -0.1594
     21 F2          1.9101    6.3044   -5.7745 F         1 <0>        -0.1607
     22 F3          2.0206    6.8018   -8.0015 F         1 <0>        -0.1583
     23 C15         0.0142    2.0992   -9.5840 C.2       1 <0>         0.2161
     24 N4         -0.4398    0.8699   -9.4661 N.2       1 <0>        -0.2431
     25 N5         -0.5587    0.3447  -10.6345 N.2       1 <0>        -0.2630
     26 C16        -0.1859    1.2162  -11.5455 C.2       1 <0>         0.2354
     27 O2          0.1781    2.3444  -10.9012 O.3       1 <0>        -0.1943
     28 C17        -0.1731    1.0019  -13.0051 C.ar      1 <0>         0.0124
     29 C18         0.2553    2.0164  -13.8658 C.ar      1 <0>        -0.0460
     30 C19         0.2581    1.7912  -15.2314 C.ar      1 <0>        -0.1133
     31 C20        -0.1505    0.5936  -15.7649 C.ar      1 <0>        -0.0193
     32 C21        -0.5902   -0.4562  -14.9306 C.ar      1 <0>         0.0801
     33 C22        -0.5805   -0.2109  -13.5404 C.ar      1 <0>        -0.1407
     34 S1         -1.1786   -1.7485  -12.8897 S.3       1 <0>         0.1519
     35 C23        -1.3820   -2.5590  -14.3508 C.2       1 <0>         0.0716
     36 N6         -1.0265   -1.6917  -15.2532 N.2       1 <0>        -0.5074
     37 N7          4.5073   -5.0903   -6.5151 N.4       1 <0>        -0.6205
     38 H2          5.1201   -2.5784   -7.2529 H         1 <0>         0.0901
     39 H3          4.4997   -1.7779   -5.7891 H         1 <0>         0.1104
     40 H4          5.8566   -2.9237   -5.6696 H         1 <0>         0.1005
     41 H5          2.2629   -1.8453   -5.6687 H         1 <0>         0.4112
     42 H6          0.8835   -2.0154   -8.1273 H         1 <0>         0.0927
     43 H7         -0.0169   -2.9549   -6.9128 H         1 <0>         0.0953
     44 H8         -1.0282   -1.8610   -4.9953 H         1 <0>         0.1361
     45 H9         -1.9907    0.2158   -4.0917 H         1 <0>         0.1438
     46 H10        -1.4053    2.3852   -5.0961 H         1 <0>         0.1409
     47 H11         1.1210    0.3894   -7.9107 H         1 <0>         0.1278
     48 H12         0.7914    4.9022   -9.5297 H         1 <0>         0.1839
     49 H13         0.5805    2.9669  -13.4692 H         1 <0>         0.1511
     50 H14         0.5896    2.5771  -15.8939 H         1 <0>         0.1522
     51 H15        -0.1356    0.4536  -16.8357 H         1 <0>         0.1474
     52 H16        -1.7378   -3.5670  -14.5049 H         1 <0>         0.2279
     53 H17         5.3706   -5.2979   -6.0357 H         1 <0>         0.4433
     54 H18         3.8554   -5.8480   -6.3770 H         1 <0>         0.4434
     55 H19         4.6888   -4.9783   -7.5013 H         1 <0>         0.4404
@<TRIPOS>BOND
     1    1    2 1
     2    1   38 1
     3    1   39 1
     4    1   40 1
     5    2    3 1
     6    2    4 1
     7    2   37 1
     8    4    5 2
     9    4    6 am
    10    6    7 1
    11    6   41 1
    12    7    8 1
    13    7   42 1
    14    7   43 1
    15    8   13 ar
    16    8    9 ar
    17    9   10 ar
    18    9   44 1
    19   10   11 ar
    20   10   45 1
    21   11   12 ar
    22   11   46 1
    23   12   13 ar
    24   12   14 1
    25   13   47 1
    26   14   18 1
    27   14   15 1
    28   15   16 2
    29   15   23 1
    30   16   17 1
    31   16   48 1
    32   17   18 2
    33   17   19 1
    34   19   20 1
    35   19   21 1
    36   19   22 1
    37   23   27 1
    38   23   24 2
    39   24   25 1
    40   25   26 2
    41   26   27 1
    42   26   28 1
    43   28   33 ar
    44   28   29 ar
    45   29   30 ar
    46   29   49 1
    47   30   31 ar
    48   30   50 1
    49   31   32 ar
    50   31   51 1
    51   32   36 1
    52   32   33 ar
    53   33   34 1
    54   34   35 1
    55   35   36 2
    56   35   52 1
    57   37   53 1
    58   37   54 1
    59   37   55 1
