@<TRIPOS>MOLECULE
ZINC03975668
   55    57     0     0     0
SMALL
USER_CHARGES

@<TRIPOS>ATOM
      1 C1          5.4172   -6.5944    1.5236 C.3       1 <0>        -0.1796
      2 C2          6.2018   -6.1937    0.2728 C.3       1 <0>         0.0639
      3 C3          5.5283   -6.7906   -0.9646 C.3       1 <0>        -0.1804
      4 C4          7.6340   -6.7214    0.3784 C.3       1 <0>        -0.0920
      5 C5          7.6086   -8.2236    0.4957 C.ar      1 <0>        -0.0977
      6 C6          7.5488   -8.8127    1.7574 C.ar      1 <0>        -0.1201
      7 C7          7.5189  -10.1660    1.8982 C.ar      1 <0>        -0.0904
      8 C8          7.5606  -10.9848    0.7568 C.ar      1 <0>        -0.0468
      9 C9          7.5383  -12.3861    0.8627 C.ar      1 <0>        -0.1081
     10 C10         7.5798  -13.1473   -0.2646 C.ar      1 <0>        -0.1044
     11 C11         7.6450  -12.5583   -1.5262 C.ar      1 <0>        -0.1051
     12 C12         7.6687  -11.2049   -1.6673 C.ar      1 <0>        -0.1105
     13 C13         7.6269  -10.3860   -0.5260 C.ar      1 <0>        -0.0532
     14 C14         7.6500   -8.9847   -0.6317 C.ar      1 <0>        -0.0884
     15 C15         4.8656   -4.1863    0.0548 C.3       1 <0>        -0.0444
     16 C16         4.9322   -2.6623   -0.0624 C.3       1 <0>         0.0860
     17 H1          5.4989   -2.2578    0.7762 H         1 <0>         0.1353
     18 C17         3.5146   -2.0870   -0.0449 C.3       1 <0>         0.0262
     19 O1          3.5799   -0.6595   -0.0370 O.3       1 <0>        -0.2919
     20 C18         2.4002    0.0111   -0.0212 C.ar      1 <0>         0.1790
     21 C19         1.2027   -0.6870   -0.0135 C.ar      1 <0>        -0.2072
     22 C20         0.0021   -0.0041    0.0020 C.ar      1 <0>        -0.0338
     23 C21        -0.0167    1.3804    0.0096 C.ar      1 <0>        -0.1374
     24 C22         1.1653    2.0923    0.0022 C.ar      1 <0>         0.0405
     25 C23         2.3874    1.4128   -0.0131 C.ar      1 <0>        -0.0447
     26 C24         3.6184    2.1445   -0.0204 C.1       1 <0>         0.2479
     27 N1          4.5949    2.7249   -0.0262 N.1       1 <0>        -0.3846
     28 Cl1         1.1352    3.8280    0.0112 Cl        1 <0>        -0.0266
     29 O2          5.5756   -2.3064   -1.2878 O.3       1 <0>        -0.5410
     30 H2          4.3968   -6.2185    1.4484 H         1 <0>         0.0803
     31 H3          5.3987   -7.6809    1.6085 H         1 <0>         0.1113
     32 H4          5.8969   -6.1692    2.4052 H         1 <0>         0.0833
     33 H5          6.0873   -6.5052   -1.8558 H         1 <0>         0.0829
     34 H6          5.5099   -7.8771   -0.8798 H         1 <0>         0.1108
     35 H7          4.5080   -6.4147   -1.0399 H         1 <0>         0.0804
     36 H8          8.1930   -6.4360   -0.5128 H         1 <0>         0.0967
     37 H9          8.1138   -6.2962    1.2599 H         1 <0>         0.0977
     38 H10         7.5214   -8.1857    2.6364 H         1 <0>         0.1243
     39 H11         7.4688  -10.6084    2.8821 H         1 <0>         0.1328
     40 H12         7.4879  -12.8563    1.8337 H         1 <0>         0.1321
     41 H13         7.5622  -14.2239   -0.1805 H         1 <0>         0.1300
     42 H14         7.6776  -13.1854   -2.4049 H         1 <0>         0.1294
     43 H15         7.7198  -10.7626   -2.6512 H         1 <0>         0.1294
     44 H16         7.7007   -8.5144   -1.6026 H         1 <0>         0.1281
     45 H17         4.2974   -4.4578    0.9444 H         1 <0>         0.1477
     46 H18         4.3766   -4.5976   -0.8283 H         1 <0>         0.1420
     47 H19         2.9936   -2.4319    0.8482 H         1 <0>         0.0891
     48 H20         2.9759   -2.4211   -0.9316 H         1 <0>         0.0846
     49 H21         1.2084   -1.7670   -0.0194 H         1 <0>         0.1425
     50 H22        -0.9278   -0.5534    0.0079 H         1 <0>         0.1495
     51 H23        -0.9605    1.9053    0.0169 H         1 <0>         0.1530
     52 H24         5.1249   -2.6340   -2.0782 H         1 <0>         0.3904
     53 N2          6.2355   -4.7235    0.1583 N.4       1 <0>        -0.5085
     54 H25         6.7665   -4.4612   -0.6804 H         1 <0>         0.4367
     55 H26         6.6919   -4.3294    0.9894 H         1 <0>         0.4331
@<TRIPOS>BOND
     1    1    2 1
     2    1   30 1
     3    1   31 1
     4    1   32 1
     5    2    3 1
     6    2    4 1
     7    2   53 1
     8    3   33 1
     9    3   34 1
    10    3   35 1
    11    4    5 1
    12    4   36 1
    13    4   37 1
    14    5   14 ar
    15    5    6 ar
    16    6    7 ar
    17    6   38 1
    18    7    8 ar
    19    7   39 1
    20    8   13 ar
    21    8    9 ar
    22    9   10 ar
    23    9   40 1
    24   10   11 ar
    25   10   41 1
    26   11   12 ar
    27   11   42 1
    28   12   13 ar
    29   12   43 1
    30   13   14 ar
    31   14   44 1
    32   15   16 1
    33   15   45 1
    34   15   46 1
    35   15   53 1
    36   16   17 1
    37   16   18 1
    38   16   29 1
    39   18   19 1
    40   18   47 1
    41   18   48 1
    42   19   20 1
    43   20   25 ar
    44   20   21 ar
    45   21   22 ar
    46   21   49 1
    47   22   23 ar
    48   22   50 1
    49   23   24 ar
    50   23   51 1
    51   24   25 ar
    52   24   28 1
    53   25   26 1
    54   26   27 3
    55   29   52 1
    56   53   54 1
    57   53   55 1
