@<TRIPOS>MOLECULE
ZINC26576268
   95    97     0     0     0
SMALL
USER_CHARGES
methyl (2R)-3-[[(1S,2R,3S)-1-(cyclohexylmethyl)-2,3-dihydroxy-5-methyl-hexyl]amino]-2-[[(2S)-2-(morpholinosulfonylamino)-3-phenyl-propanoyl]amino]-3-oxo-propanoate
@<TRIPOS>ATOM
      1 C1          4.0286    2.6174    4.1799 C.3       1 <0>        -0.1499
      2 C2          2.8607    1.7420    3.7211 C.3       1 <0>        -0.0946
      3 C3          2.3366    2.2537    2.3779 C.3       1 <0>        -0.1546
      4 C4          3.3373    0.2965    3.5654 C.3       1 <0>        -0.1024
      5 C5          2.1444   -0.6003    3.2281 C.3       1 <0>         0.1255
      6 H1          1.5743   -0.2019    2.3759 H         1 <0>         0.0660
      7 C6          2.6375   -2.0217    2.9499 C.3       1 <0>         0.0815
      8 H2          3.2076   -2.4200    3.8021 H         1 <0>         0.0723
      9 C7          1.4447   -2.9185    2.6127 C.3       1 <0>         0.1147
     10 H3          0.7136   -2.9160    3.4346 H         1 <0>         0.1001
     11 C8          1.9378   -4.3399    2.3345 C.3       1 <0>        -0.1298
     12 C9          0.7370   -5.2635    2.1199 C.3       1 <0>        -0.0793
     13 C10        -0.0693   -5.3612    3.4165 C.3       1 <0>        -0.1055
     14 C11        -1.2701   -6.2848    3.2020 C.3       1 <0>        -0.1109
     15 C12        -0.7777   -7.6769    2.8014 C.3       1 <0>        -0.1220
     16 C13         0.0286   -7.5791    1.5048 C.3       1 <0>        -0.1172
     17 C14         1.2294   -6.6556    1.7194 C.3       1 <0>        -0.1161
     18 N1          0.7621   -2.3974    1.4257 N.am      1 <0>        -0.7165
     19 C15        -0.5418   -2.6716    1.2234 C.2       1 <0>         0.5206
     20 O1         -1.1502   -3.3498    2.0240 O.2       1 <0>        -0.5081
     21 C16        -1.2439   -2.1355    0.0025 C.3       1 <0>         0.1388
     22 H4         -0.7735   -2.5297   -0.9104 H         1 <0>         0.1508
     23 C17        -1.1855   -0.6297    0.0100 C.2       1 <0>         0.4533
     24 O2         -2.2076    0.0145    0.0232 O.2       1 <0>        -0.4778
     25 O3          0.0021   -0.0041    0.0020 O.3       1 <0>        -0.3582
     26 C18        -0.0176    1.4478    0.0100 C.3       1 <0>         0.0325
     27 N2         -2.6430   -2.5700    0.0135 N.am      1 <0>        -0.7055
     28 C19        -3.3278   -2.6664   -1.1433 C.2       1 <0>         0.5272
     29 O4         -2.7858   -2.3935   -2.1934 O.2       1 <0>        -0.5256
     30 C20        -4.7670   -3.1133   -1.1320 C.3       1 <0>         0.1577
     31 H5         -5.3754   -2.3964   -0.5611 H         1 <0>         0.1024
     32 C21        -4.8606   -4.5164   -0.5289 C.3       1 <0>        -0.0865
     33 C22        -6.3088   -4.9140   -0.4043 C.ar      1 <0>        -0.0836
     34 C23        -7.0072   -4.6268    0.7537 C.ar      1 <0>        -0.1096
     35 C24        -8.3370   -4.9872    0.8661 C.ar      1 <0>        -0.1179
     36 C25        -8.9655   -5.6441   -0.1752 C.ar      1 <0>        -0.1071
     37 C26        -8.2657   -5.9359   -1.3310 C.ar      1 <0>        -0.0990
     38 C27        -6.9374   -5.5708   -1.4456 C.ar      1 <0>        -0.0660
     39 N3         -5.2821   -3.1358   -2.5032 N.pl3     1 <0>        -1.1171
     40 S1         -6.8595   -2.7295   -2.8019 S.o2      1 <0>         2.7624
     41 O5         -7.0432   -2.8209   -4.2080 O.2       1 <0>        -0.9750
     42 O6         -7.6505   -3.4677   -1.8807 O.2       1 <0>        -0.9330
     43 N4         -7.0372   -1.1318   -2.4042 N.pl3     1 <0>        -1.0128
     44 C28        -7.4321   -0.7288   -1.0452 C.3       1 <0>         0.0841
     45 C29        -6.4414    0.3395   -0.5553 C.3       1 <0>         0.0473
     46 O7         -6.3592    1.3840   -1.5280 O.3       1 <0>        -0.3725
     47 C30        -5.8557    0.9628   -2.7980 C.3       1 <0>         0.0480
     48 C31        -6.8109   -0.0733   -3.4012 C.3       1 <0>         0.0860
     49 O8          3.5464   -2.0034    1.8474 O.3       1 <0>        -0.5877
     50 O9          1.2355   -0.6187    4.3306 O.3       1 <0>        -0.5850
     51 H6          4.4053    2.2494    5.1456 H         1 <0>         0.0538
     52 H7          3.6859    3.6567    4.2919 H         1 <0>         0.0543
     53 H8          4.8341    2.5755    3.4320 H         1 <0>         0.0540
     54 H9          2.0551    1.7840    4.4689 H         1 <0>         0.0757
     55 H10         1.4969    1.6243    2.0481 H         1 <0>         0.0556
     56 H11         3.1421    2.2118    1.6300 H         1 <0>         0.0554
     57 H12         1.9939    3.2929    2.4899 H         1 <0>         0.0533
     58 H13         4.0790    0.2403    2.7550 H         1 <0>         0.0862
     59 H14         3.7959   -0.0418    4.5063 H         1 <0>         0.0660
     60 H15         2.5663   -4.3398    1.4317 H         1 <0>         0.0684
     61 H16         2.5272   -4.6979    3.1915 H         1 <0>         0.0735
     62 H17         0.0993   -4.8564    1.3213 H         1 <0>         0.0759
     63 H18         0.5684   -5.7683    4.2150 H         1 <0>         0.0463
     64 H19        -0.4234   -4.3603    3.7044 H         1 <0>         0.0775
     65 H20        -1.8497   -6.3551    4.1343 H         1 <0>         0.0545
     66 H21        -1.9079   -5.8776    2.4036 H         1 <0>         0.0647
     67 H22        -0.1400   -8.0841    3.5999 H         1 <0>         0.0574
     68 H23        -1.6410   -8.3409    2.6471 H         1 <0>         0.0575
     69 H24         0.3826   -8.5800    1.2168 H         1 <0>         0.0575
     70 H25        -0.6090   -7.1719    0.7063 H         1 <0>         0.0584
     71 H26         1.8091   -6.5853    0.7872 H         1 <0>         0.0557
     72 H27         1.8670   -7.0628    2.5179 H         1 <0>         0.0585
     73 H28         1.3139   -1.7823    0.6996 H         1 <0>         0.4369
     74 H29         1.0144    1.8285    0.0022 H         1 <0>         0.1099
     75 H30        -0.5325    1.8025    0.9150 H         1 <0>         0.0676
     76 H31        -0.5496    1.8122   -0.8812 H         1 <0>         0.0676
     77 H32        -3.1346   -2.8176    0.9659 H         1 <0>         0.4442
     78 H33        -4.3388   -5.2316   -1.1817 H         1 <0>         0.0878
     79 H34        -4.3925   -4.5196    0.4665 H         1 <0>         0.0892
     80 H35        -6.5149   -4.1176    1.5690 H         1 <0>         0.1120
     81 H36        -8.8836   -4.7596    1.7693 H         1 <0>         0.1124
     82 H37       -10.0032   -5.9296   -0.0856 H         1 <0>         0.1111
     83 H38        -8.7567   -6.4494   -2.1445 H         1 <0>         0.1104
     84 H39        -6.3905   -5.7991   -2.3485 H         1 <0>         0.1054
     85 H40        -4.5897   -3.2602   -3.3489 H         1 <0>         0.4476
     86 H41        -8.4521   -0.3176   -1.0666 H         1 <0>         0.0825
     87 H42        -7.4037   -1.6046   -0.3802 H         1 <0>         0.0994
     88 H43        -6.7916    0.7527    0.4021 H         1 <0>         0.1064
     89 H44        -5.4497   -0.1159   -0.4173 H         1 <0>         0.0545
     90 H45        -5.7815    1.8311   -3.4693 H         1 <0>         0.1064
     91 H46        -4.8598    0.5143   -2.6672 H         1 <0>         0.0563
     92 H47        -6.3672   -0.5118   -4.3072 H         1 <0>         0.0961
     93 H48        -7.7698    0.4019   -3.6556 H         1 <0>         0.0818
     94 H49         4.0076   -2.9394    1.4992 H         1 <0>         0.4096
     95 H50         0.3121   -1.2137    4.2723 H         1 <0>         0.3997
@<TRIPOS>BOND
     1    1    2 1
     2    1   51 1
     3    1   52 1
     4    1   53 1
     5    2    3 1
     6    2    4 1
     7    2   54 1
     8    3   55 1
     9    3   56 1
    10    3   57 1
    11    4    5 1
    12    4   58 1
    13    4   59 1
    14    5    6 1
    15    5    7 1
    16    5   50 1
    17    7    8 1
    18    7    9 1
    19    7   49 1
    20    9   10 1
    21    9   11 1
    22    9   18 1
    23   11   12 1
    24   11   60 1
    25   11   61 1
    26   12   17 1
    27   12   13 1
    28   12   62 1
    29   13   14 1
    30   13   63 1
    31   13   64 1
    32   14   15 1
    33   14   65 1
    34   14   66 1
    35   15   16 1
    36   15   67 1
    37   15   68 1
    38   16   17 1
    39   16   69 1
    40   16   70 1
    41   17   71 1
    42   17   72 1
    43   18   19 am
    44   18   73 1
    45   19   20 2
    46   19   21 1
    47   21   22 1
    48   21   23 1
    49   21   27 1
    50   23   24 2
    51   23   25 1
    52   25   26 1
    53   26   74 1
    54   26   75 1
    55   26   76 1
    56   27   28 am
    57   27   77 1
    58   28   29 2
    59   28   30 1
    60   30   31 1
    61   30   32 1
    62   30   39 1
    63   32   33 1
    64   32   78 1
    65   32   79 1
    66   33   38 ar
    67   33   34 ar
    68   34   35 ar
    69   34   80 1
    70   35   36 ar
    71   35   81 1
    72   36   37 ar
    73   36   82 1
    74   37   38 ar
    75   37   83 1
    76   38   84 1
    77   39   40 1
    78   39   85 1
    79   40   41 2
    80   40   42 2
    81   40   43 1
    82   43   48 1
    83   43   44 1
    84   44   45 1
    85   44   86 1
    86   44   87 1
    87   45   46 1
    88   45   88 1
    89   45   89 1
    90   46   47 1
    91   47   48 1
    92   47   90 1
    93   47   91 1
    94   48   92 1
    95   48   93 1
    96   49   94 1
    97   50   95 1
@<TRIPOS>MOLECULE
ZINC26576268
   96    98     0     0     0
SMALL
USER_CHARGES
methyl (2R)-3-[[(1S,2R,3S)-1-(cyclohexylmethyl)-2,3-dihydroxy-5-methyl-hexyl]amino]-2-[[(2S)-2-(morpholinosulfonylamino)-3-phenyl-propanoyl]amino]-3-oxo-propanoate
@<TRIPOS>ATOM
      1 C1          4.0286    2.6174    4.1799 C.3       1 <0>        -0.1516
      2 C2          2.8607    1.7420    3.7211 C.3       1 <0>        -0.0942
      3 C3          2.3366    2.2537    2.3779 C.3       1 <0>        -0.1538
      4 C4          3.3373    0.2965    3.5654 C.3       1 <0>        -0.1043
      5 C5          2.1444   -0.6003    3.2281 C.3       1 <0>         0.1268
      6 H1          1.5743   -0.2019    2.3759 H         1 <0>         0.0632
      7 C6          2.6375   -2.0217    2.9499 C.3       1 <0>         0.0795
      8 H2          3.2076   -2.4200    3.8021 H         1 <0>         0.0764
      9 C7          1.4447   -2.9185    2.6127 C.3       1 <0>         0.1147
     10 H3          0.7136   -2.9160    3.4346 H         1 <0>         0.1023
     11 C8          1.9378   -4.3399    2.3345 C.3       1 <0>        -0.1324
     12 C9          0.7370   -5.2635    2.1199 C.3       1 <0>        -0.0760
     13 C10        -0.0693   -5.3612    3.4165 C.3       1 <0>        -0.1085
     14 C11        -1.2701   -6.2848    3.2020 C.3       1 <0>        -0.1077
     15 C12        -0.7777   -7.6769    2.8014 C.3       1 <0>        -0.1247
     16 C13         0.0286   -7.5791    1.5048 C.3       1 <0>        -0.1150
     17 C14         1.2294   -6.6556    1.7194 C.3       1 <0>        -0.1191
     18 N1          0.7621   -2.3974    1.4257 N.am      1 <0>        -0.7094
     19 C15        -0.5418   -2.6716    1.2234 C.2       1 <0>         0.5181
     20 O1         -1.1502   -3.3498    2.0240 O.2       1 <0>        -0.5087
     21 C16        -1.2439   -2.1355    0.0025 C.3       1 <0>         0.1338
     22 H4         -0.7735   -2.5297   -0.9104 H         1 <0>         0.1594
     23 C17        -1.1855   -0.6297    0.0100 C.2       1 <0>         0.4571
     24 O2         -2.2076    0.0145    0.0232 O.2       1 <0>        -0.4839
     25 O3          0.0021   -0.0041    0.0020 O.3       1 <0>        -0.3512
     26 C18        -0.0176    1.4478    0.0100 C.3       1 <0>         0.0318
     27 N2         -2.6430   -2.5700    0.0135 N.am      1 <0>        -0.6792
     28 C19        -3.3278   -2.6664   -1.1433 C.2       1 <0>         0.5233
     29 O4         -2.7858   -2.3935   -2.1934 O.2       1 <0>        -0.5189
     30 C20        -4.7670   -3.1133   -1.1320 C.3       1 <0>         0.0488
     31 H5         -5.3754   -2.3964   -0.5611 H         1 <0>         0.1639
     32 C21        -4.8606   -4.5164   -0.5289 C.3       1 <0>        -0.0966
     33 C22        -6.3088   -4.9140   -0.4043 C.ar      1 <0>        -0.1302
     34 C23        -7.0072   -4.6268    0.7537 C.ar      1 <0>        -0.0938
     35 C24        -8.3370   -4.9872    0.8661 C.ar      1 <0>        -0.1034
     36 C25        -8.9655   -5.6441   -0.1752 C.ar      1 <0>        -0.0885
     37 C26        -8.2657   -5.9359   -1.3310 C.ar      1 <0>        -0.0867
     38 C27        -6.9374   -5.5708   -1.4456 C.ar      1 <0>        -0.1039
     39 N3         -5.2821   -3.1358   -2.5032 N.4       1 <0>        -0.9225
     40 S1         -6.8595   -2.7295   -2.8019 S.o2      1 <0>         2.6233
     41 O5         -7.0432   -2.8209   -4.2080 O.2       1 <0>        -0.8804
     42 O6         -7.6505   -3.4677   -1.8807 O.2       1 <0>        -0.8483
     43 N4         -7.0372   -1.1318   -2.4042 N.pl3     1 <0>        -0.9725
     44 C28        -7.4321   -0.7288   -1.0452 C.3       1 <0>         0.0686
     45 C29        -6.4414    0.3395   -0.5553 C.3       1 <0>         0.0430
     46 O7         -6.3592    1.3840   -1.5280 O.3       1 <0>        -0.3580
     47 C30        -5.8557    0.9628   -2.7980 C.3       1 <0>         0.0429
     48 C31        -6.8109   -0.0733   -3.4012 C.3       1 <0>         0.0655
     49 O8          3.5464   -2.0034    1.8474 O.3       1 <0>        -0.5875
     50 O9          1.2355   -0.6187    4.3306 O.3       1 <0>        -0.5820
     51 H6          4.4053    2.2494    5.1456 H         1 <0>         0.0554
     52 H7          3.6859    3.6567    4.2919 H         1 <0>         0.0556
     53 H8          4.8341    2.5755    3.4320 H         1 <0>         0.0549
     54 H9          2.0551    1.7840    4.4689 H         1 <0>         0.0757
     55 H10         1.4969    1.6243    2.0481 H         1 <0>         0.0519
     56 H11         3.1421    2.2118    1.6300 H         1 <0>         0.0562
     57 H12         1.9939    3.2929    2.4899 H         1 <0>         0.0544
     58 H13         4.0790    0.2403    2.7550 H         1 <0>         0.0875
     59 H14         3.7959   -0.0418    4.5063 H         1 <0>         0.0683
     60 H15         2.5663   -4.3398    1.4317 H         1 <0>         0.0703
     61 H16         2.5272   -4.6979    3.1915 H         1 <0>         0.0780
     62 H17         0.0993   -4.8564    1.3213 H         1 <0>         0.0711
     63 H18         0.5684   -5.7683    4.2150 H         1 <0>         0.0504
     64 H19        -0.4234   -4.3603    3.7044 H         1 <0>         0.0771
     65 H20        -1.8497   -6.3551    4.1343 H         1 <0>         0.0558
     66 H21        -1.9079   -5.8776    2.4036 H         1 <0>         0.0585
     67 H22        -0.1400   -8.0841    3.5999 H         1 <0>         0.0611
     68 H23        -1.6410   -8.3409    2.6471 H         1 <0>         0.0576
     69 H24         0.3826   -8.5800    1.2168 H         1 <0>         0.0598
     70 H25        -0.6090   -7.1719    0.7063 H         1 <0>         0.0537
     71 H26         1.8091   -6.5853    0.7872 H         1 <0>         0.0569
     72 H27         1.8670   -7.0628    2.5179 H         1 <0>         0.0620
     73 H28         1.3139   -1.7823    0.6996 H         1 <0>         0.4394
     74 H29         1.0144    1.8285    0.0022 H         1 <0>         0.1161
     75 H30        -0.5325    1.8025    0.9150 H         1 <0>         0.0719
     76 H31        -0.5496    1.8122   -0.8812 H         1 <0>         0.0704
     77 H32        -3.1346   -2.8176    0.9659 H         1 <0>         0.4559
     78 H33        -4.3388   -5.2316   -1.1817 H         1 <0>         0.1140
     79 H34        -4.3925   -4.5196    0.4665 H         1 <0>         0.1363
     80 H35        -6.5149   -4.1176    1.5690 H         1 <0>         0.1248
     81 H36        -8.8836   -4.7596    1.7693 H         1 <0>         0.1270
     82 H37       -10.0032   -5.9296   -0.0856 H         1 <0>         0.1258
     83 H38        -8.7567   -6.4494   -2.1445 H         1 <0>         0.1245
     84 H39        -6.3905   -5.7991   -2.3485 H         1 <0>         0.1049
     85 H40        -4.7049   -2.4341   -3.1232 H         1 <0>         0.4777
     86 H41        -8.4521   -0.3176   -1.0666 H         1 <0>         0.1120
     87 H42        -7.4037   -1.6046   -0.3802 H         1 <0>         0.1093
     88 H43        -6.7916    0.7527    0.4021 H         1 <0>         0.1234
     89 H44        -5.4497   -0.1159   -0.4173 H         1 <0>         0.0556
     90 H45        -5.7815    1.8311   -3.4693 H         1 <0>         0.1244
     91 H46        -4.8598    0.5143   -2.6672 H         1 <0>         0.0575
     92 H47        -6.3672   -0.5118   -4.3072 H         1 <0>         0.1070
     93 H48        -7.7698    0.4019   -3.6556 H         1 <0>         0.1124
     94 H49         4.0076   -2.9394    1.4992 H         1 <0>         0.4115
     95 H50         0.3121   -1.2137    4.2723 H         1 <0>         0.3964
     96 H51        -5.1870   -4.1518   -2.9140 H         1 <0>         0.4801
@<TRIPOS>BOND
     1    1    2 1
     2    1   51 1
     3    1   52 1
     4    1   53 1
     5    2    3 1
     6    2    4 1
     7    2   54 1
     8    3   55 1
     9    3   56 1
    10    3   57 1
    11    4    5 1
    12    4   58 1
    13    4   59 1
    14    5    6 1
    15    5    7 1
    16    5   50 1
    17    7    8 1
    18    7    9 1
    19    7   49 1
    20    9   10 1
    21    9   11 1
    22    9   18 1
    23   11   12 1
    24   11   60 1
    25   11   61 1
    26   12   17 1
    27   12   13 1
    28   12   62 1
    29   13   14 1
    30   13   63 1
    31   13   64 1
    32   14   15 1
    33   14   65 1
    34   14   66 1
    35   15   16 1
    36   15   67 1
    37   15   68 1
    38   16   17 1
    39   16   69 1
    40   16   70 1
    41   17   71 1
    42   17   72 1
    43   18   19 am
    44   18   73 1
    45   19   20 2
    46   19   21 1
    47   21   22 1
    48   21   23 1
    49   21   27 1
    50   23   24 2
    51   23   25 1
    52   25   26 1
    53   26   74 1
    54   26   75 1
    55   26   76 1
    56   27   28 am
    57   27   77 1
    58   28   29 2
    59   28   30 1
    60   30   31 1
    61   30   32 1
    62   30   39 1
    63   32   33 1
    64   32   78 1
    65   32   79 1
    66   33   38 ar
    67   33   34 ar
    68   34   35 ar
    69   34   80 1
    70   35   36 ar
    71   35   81 1
    72   36   37 ar
    73   36   82 1
    74   37   38 ar
    75   37   83 1
    76   38   84 1
    77   39   40 1
    78   39   85 1
    79   39   96 1
    80   40   41 2
    81   40   42 2
    82   40   43 1
    83   43   48 1
    84   43   44 1
    85   44   45 1
    86   44   86 1
    87   44   87 1
    88   45   46 1
    89   45   88 1
    90   45   89 1
    91   46   47 1
    92   47   48 1
    93   47   90 1
    94   47   91 1
    95   48   92 1
    96   48   93 1
    97   49   94 1
    98   50   95 1
@<TRIPOS>MOLECULE
ZINC26576268
   94    96     0     0     0
SMALL
USER_CHARGES
methyl (2R)-3-[[(1S,2R,3S)-1-(cyclohexylmethyl)-2,3-dihydroxy-5-methyl-hexyl]amino]-2-[[(2S)-2-(morpholinosulfonylamino)-3-phenyl-propanoyl]amino]-3-oxo-propanoate
@<TRIPOS>ATOM
      1 C1          4.0286    2.6174    4.1799 C.3       1 <0>        -0.1483
      2 C2          2.8607    1.7420    3.7211 C.3       1 <0>        -0.0949
      3 C3          2.3366    2.2537    2.3779 C.3       1 <0>        -0.1554
      4 C4          3.3373    0.2965    3.5654 C.3       1 <0>        -0.1006
      5 C5          2.1444   -0.6003    3.2281 C.3       1 <0>         0.1242
      6 H1          1.5743   -0.2019    2.3759 H         1 <0>         0.0691
      7 C6          2.6375   -2.0217    2.9499 C.3       1 <0>         0.0835
      8 H2          3.2076   -2.4200    3.8021 H         1 <0>         0.0681
      9 C7          1.4447   -2.9185    2.6127 C.3       1 <0>         0.1146
     10 H3          0.7136   -2.9160    3.4346 H         1 <0>         0.0979
     11 C8          1.9378   -4.3399    2.3345 C.3       1 <0>        -0.1271
     12 C9          0.7370   -5.2635    2.1199 C.3       1 <0>        -0.0826
     13 C10        -0.0693   -5.3612    3.4165 C.3       1 <0>        -0.1026
     14 C11        -1.2701   -6.2848    3.2020 C.3       1 <0>        -0.1139
     15 C12        -0.7777   -7.6769    2.8014 C.3       1 <0>        -0.1193
     16 C13         0.0286   -7.5791    1.5048 C.3       1 <0>        -0.1193
     17 C14         1.2294   -6.6556    1.7194 C.3       1 <0>        -0.1132
     18 N1          0.7621   -2.3974    1.4257 N.am      1 <0>        -0.7231
     19 C15        -0.5418   -2.6716    1.2234 C.2       1 <0>         0.5229
     20 O1         -1.1502   -3.3498    2.0240 O.2       1 <0>        -0.5086
     21 C16        -1.2439   -2.1355    0.0025 C.3       1 <0>         0.1411
     22 H4         -0.7735   -2.5297   -0.9104 H         1 <0>         0.1434
     23 C17        -1.1855   -0.6297    0.0100 C.2       1 <0>         0.4491
     24 O2         -2.2076    0.0145    0.0232 O.2       1 <0>        -0.4720
     25 O3          0.0021   -0.0041    0.0020 O.3       1 <0>        -0.3648
     26 C18        -0.0176    1.4478    0.0100 C.3       1 <0>         0.0329
     27 N2         -2.6430   -2.5700    0.0135 N.am      1 <0>        -0.7244
     28 C19        -3.3278   -2.6664   -1.1433 C.2       1 <0>         0.5324
     29 O4         -2.7858   -2.3935   -2.1934 O.2       1 <0>        -0.5141
     30 C20        -4.7670   -3.1133   -1.1320 C.3       1 <0>         0.1727
     31 H5         -5.3754   -2.3964   -0.5611 H         1 <0>         0.0348
     32 C21        -4.8606   -4.5164   -0.5289 C.3       1 <0>        -0.0809
     33 C22        -6.3088   -4.9140   -0.4043 C.ar      1 <0>        -0.0486
     34 C23        -7.0072   -4.6268    0.7537 C.ar      1 <0>        -0.1177
     35 C24        -8.3370   -4.9872    0.8661 C.ar      1 <0>        -0.1293
     36 C25        -8.9655   -5.6441   -0.1752 C.ar      1 <0>        -0.1216
     37 C26        -8.2657   -5.9359   -1.3310 C.ar      1 <0>        -0.1036
     38 C27        -6.9374   -5.5708   -1.4456 C.ar      1 <0>        -0.0390
     39 N3         -5.2821   -3.1358   -2.5032 N.2       1 <0>        -1.0999
     40 S1         -6.8595   -2.7295   -2.8019 S.o2      1 <0>         2.6454
     41 O5         -7.0432   -2.8209   -4.2080 O.2       1 <0>        -1.0343
     42 O6         -7.6505   -3.4677   -1.8807 O.2       1 <0>        -1.0362
     43 N4         -7.0372   -1.1318   -2.4042 N.pl3     1 <0>        -1.0211
     44 C28        -7.4321   -0.7288   -1.0452 C.3       1 <0>         0.0985
     45 C29        -6.4414    0.3395   -0.5553 C.3       1 <0>         0.0511
     46 O7         -6.3592    1.3840   -1.5280 O.3       1 <0>        -0.3868
     47 C30        -5.8557    0.9628   -2.7980 C.3       1 <0>         0.0522
     48 C31        -6.8109   -0.0733   -3.4012 C.3       1 <0>         0.0997
     49 O8          3.5464   -2.0034    1.8474 O.3       1 <0>        -0.5878
     50 O9          1.2355   -0.6187    4.3306 O.3       1 <0>        -0.5880
     51 H6          4.4053    2.2494    5.1456 H         1 <0>         0.0521
     52 H7          3.6859    3.6567    4.2919 H         1 <0>         0.0531
     53 H8          4.8341    2.5755    3.4320 H         1 <0>         0.0531
     54 H9          2.0551    1.7840    4.4689 H         1 <0>         0.0757
     55 H10         1.4969    1.6243    2.0481 H         1 <0>         0.0595
     56 H11         3.1421    2.2118    1.6300 H         1 <0>         0.0548
     57 H12         1.9939    3.2929    2.4899 H         1 <0>         0.0521
     58 H13         4.0790    0.2403    2.7550 H         1 <0>         0.0850
     59 H14         3.7959   -0.0418    4.5063 H         1 <0>         0.0636
     60 H15         2.5663   -4.3398    1.4317 H         1 <0>         0.0667
     61 H16         2.5272   -4.6979    3.1915 H         1 <0>         0.0688
     62 H17         0.0993   -4.8564    1.3213 H         1 <0>         0.0811
     63 H18         0.5684   -5.7683    4.2150 H         1 <0>         0.0421
     64 H19        -0.4234   -4.3603    3.7044 H         1 <0>         0.0780
     65 H20        -1.8497   -6.3551    4.1343 H         1 <0>         0.0530
     66 H21        -1.9079   -5.8776    2.4036 H         1 <0>         0.0707
     67 H22        -0.1400   -8.0841    3.5999 H         1 <0>         0.0535
     68 H23        -1.6410   -8.3409    2.6471 H         1 <0>         0.0572
     69 H24         0.3826   -8.5800    1.2168 H         1 <0>         0.0552
     70 H25        -0.6090   -7.1719    0.7063 H         1 <0>         0.0633
     71 H26         1.8091   -6.5853    0.7872 H         1 <0>         0.0548
     72 H27         1.8670   -7.0628    2.5179 H         1 <0>         0.0548
     73 H28         1.3139   -1.7823    0.6996 H         1 <0>         0.4348
     74 H29         1.0144    1.8285    0.0022 H         1 <0>         0.1034
     75 H30        -0.5325    1.8025    0.9150 H         1 <0>         0.0631
     76 H31        -0.5496    1.8122   -0.8812 H         1 <0>         0.0654
     77 H32        -3.1346   -2.8176    0.9659 H         1 <0>         0.4306
     78 H33        -4.3388   -5.2316   -1.1817 H         1 <0>         0.0696
     79 H34        -4.3925   -4.5196    0.4665 H         1 <0>         0.0528
     80 H35        -6.5149   -4.1176    1.5690 H         1 <0>         0.1013
     81 H36        -8.8836   -4.7596    1.7693 H         1 <0>         0.0991
     82 H37       -10.0032   -5.9296   -0.0856 H         1 <0>         0.0976
     83 H38        -8.7567   -6.4494   -2.1445 H         1 <0>         0.0982
     84 H39        -6.3905   -5.7991   -2.3485 H         1 <0>         0.1036
     85 H40        -8.4521   -0.3176   -1.0666 H         1 <0>         0.0497
     86 H41        -7.4037   -1.6046   -0.3802 H         1 <0>         0.0900
     87 H42        -6.7916    0.7527    0.4021 H         1 <0>         0.0887
     88 H43        -5.4497   -0.1159   -0.4173 H         1 <0>         0.0549
     89 H44        -5.7815    1.8311   -3.4693 H         1 <0>         0.0895
     90 H45        -4.8598    0.5143   -2.6672 H         1 <0>         0.0568
     91 H46        -6.3672   -0.5118   -4.3072 H         1 <0>         0.0885
     92 H47        -7.7698    0.4019   -3.6556 H         1 <0>         0.0492
     93 H48         4.0076   -2.9394    1.4992 H         1 <0>         0.4078
     94 H49         0.3121   -1.2137    4.2723 H         1 <0>         0.4030
@<TRIPOS>BOND
     1    1    2 1
     2    1   51 1
     3    1   52 1
     4    1   53 1
     5    2    3 1
     6    2    4 1
     7    2   54 1
     8    3   55 1
     9    3   56 1
    10    3   57 1
    11    4    5 1
    12    4   58 1
    13    4   59 1
    14    5    6 1
    15    5    7 1
    16    5   50 1
    17    7    8 1
    18    7    9 1
    19    7   49 1
    20    9   10 1
    21    9   11 1
    22    9   18 1
    23   11   12 1
    24   11   60 1
    25   11   61 1
    26   12   17 1
    27   12   13 1
    28   12   62 1
    29   13   14 1
    30   13   63 1
    31   13   64 1
    32   14   15 1
    33   14   65 1
    34   14   66 1
    35   15   16 1
    36   15   67 1
    37   15   68 1
    38   16   17 1
    39   16   69 1
    40   16   70 1
    41   17   71 1
    42   17   72 1
    43   18   19 am
    44   18   73 1
    45   19   20 2
    46   19   21 1
    47   21   22 1
    48   21   23 1
    49   21   27 1
    50   23   24 2
    51   23   25 1
    52   25   26 1
    53   26   74 1
    54   26   75 1
    55   26   76 1
    56   27   28 am
    57   27   77 1
    58   28   29 2
    59   28   30 1
    60   30   31 1
    61   30   32 1
    62   30   39 1
    63   32   33 1
    64   32   78 1
    65   32   79 1
    66   33   38 ar
    67   33   34 ar
    68   34   35 ar
    69   34   80 1
    70   35   36 ar
    71   35   81 1
    72   36   37 ar
    73   36   82 1
    74   37   38 ar
    75   37   83 1
    76   38   84 1
    77   39   40 1
    78   40   41 2
    79   40   42 2
    80   40   43 1
    81   43   48 1
    82   43   44 1
    83   44   45 1
    84   44   85 1
    85   44   86 1
    86   45   46 1
    87   45   87 1
    88   45   88 1
    89   46   47 1
    90   47   48 1
    91   47   89 1
    92   47   90 1
    93   48   91 1
    94   48   92 1
    95   49   93 1
    96   50   94 1
@<TRIPOS>MOLECULE
ZINC26508883
   81    80     0     0     0
SMALL
USER_CHARGES
ethyl (3R,4R)-3-hydroxy-6-methyl-4-[[(2R)-3-methyl-2-[[(2R)-3-methyl-2-(3-methylbutanoylamino)butanoyl]amino]butanoyl]amino]heptanoate
@<TRIPOS>ATOM
      1 C1         11.8154    1.0557    4.5363 C.3       1 <0>        -0.1558
      2 C2         10.9015    2.1588    5.0736 C.3       1 <0>         0.0610
      3 O1          9.5265    1.8691    4.7079 O.3       1 <0>        -0.3616
      4 C3          8.5921    2.7465    5.1064 C.2       1 <0>         0.4623
      5 O2          8.9125    3.7243    5.7398 O.2       1 <0>        -0.4936
      6 C4          7.1434    2.5122    4.7637 C.3       1 <0>        -0.1110
      7 C5          6.2943    3.6512    5.3316 C.3       1 <0>         0.1209
      8 H1          6.5035    3.8103    6.3997 H         1 <0>         0.0823
      9 C6          4.8130    3.3498    5.0952 C.3       1 <0>         0.1192
     10 H2          4.5326    2.3943    5.5625 H         1 <0>         0.0973
     11 C7          3.9643    4.4929    5.6553 C.3       1 <0>        -0.1255
     12 C8          4.1093    4.5372    7.1778 C.3       1 <0>        -0.0980
     13 C9          3.3579    5.7517    7.7266 C.3       1 <0>        -0.1489
     14 C10         3.5247    3.2595    7.7832 C.3       1 <0>        -0.1504
     15 N1          4.5652    3.2167    3.6574 N.am      1 <0>        -0.7288
     16 C11         3.4661    2.5708    3.2201 C.2       1 <0>         0.5185
     17 O3          2.6393    2.1746    4.0140 O.2       1 <0>        -0.5342
     18 C12         3.2645    2.3408    1.7444 C.3       1 <0>         0.1378
     19 H3          3.6604    3.1957    1.1765 H         1 <0>         0.1058
     20 C13         3.9557    1.0396    1.3319 C.3       1 <0>        -0.0953
     21 C14         3.6687    0.7553   -0.1438 C.3       1 <0>        -0.1374
     22 C15         5.4652    1.1755    1.5410 C.3       1 <0>        -0.1585
     23 N2          1.8313    2.2450    1.4564 N.am      1 <0>        -0.7226
     24 C16         1.3700    2.5416    0.2253 C.2       1 <0>         0.5233
     25 O4          2.1476    2.8193   -0.6630 O.2       1 <0>        -0.5335
     26 C17        -0.1120    2.5282   -0.0475 C.3       1 <0>         0.1389
     27 H4         -0.5949    1.7460    0.5566 H         1 <0>         0.1054
     28 C18        -0.7006    3.9055    0.2648 C.3       1 <0>        -0.0945
     29 C19        -2.2147    3.8743    0.0475 C.3       1 <0>        -0.1386
     30 C20        -0.4016    4.2697    1.7204 C.3       1 <0>        -0.1549
     31 N3         -0.3462    2.2053   -1.4572 N.am      1 <0>        -0.7317
     32 C21        -1.5139    1.6493   -1.8362 C.2       1 <0>         0.5177
     33 O5         -2.3709    1.4162   -1.0103 O.2       1 <0>        -0.5326
     34 C22        -1.7548    1.3172   -3.2863 C.3       1 <0>        -0.1376
     35 C23        -3.1464    0.7012   -3.4441 C.3       1 <0>        -0.0797
     36 C24        -4.2086    1.7423   -3.0855 C.3       1 <0>        -0.1558
     37 C25        -3.3431    0.2500   -4.8928 C.3       1 <0>        -0.1508
     38 O6          6.6414    4.8747    4.6800 O.3       1 <0>        -0.5843
     39 H5         12.8571    1.2752    4.8134 H         1 <0>         0.0819
     40 H6         11.7293    1.0096    3.4406 H         1 <0>         0.0678
     41 H7         11.5168    0.0893    4.9686 H         1 <0>         0.0676
     42 H8         10.9876    2.2049    6.1693 H         1 <0>         0.0705
     43 H9         11.2000    3.1253    4.6413 H         1 <0>         0.0713
     44 H10         7.0262    2.4774    3.6705 H         1 <0>         0.1145
     45 H11         6.8136    1.5571    5.1984 H         1 <0>         0.1198
     46 H12         4.3053    5.4468    5.2266 H         1 <0>         0.0661
     47 H13         2.9089    4.3290    5.3921 H         1 <0>         0.0786
     48 H14         5.1741    4.6145    7.4426 H         1 <0>         0.0716
     49 H15         3.4622    5.7835    8.8212 H         1 <0>         0.0569
     50 H16         2.2930    5.6744    7.4618 H         1 <0>         0.0556
     51 H17         3.7783    6.6703    7.2914 H         1 <0>         0.0548
     52 H18         3.6290    3.2914    8.8778 H         1 <0>         0.0551
     53 H19         4.0650    2.3863    7.3887 H         1 <0>         0.0544
     54 H20         2.4599    3.1822    7.5184 H         1 <0>         0.0586
     55 H21         5.2762    3.6439    2.9349 H         1 <0>         0.4272
     56 H22         3.5737    0.2108    1.9460 H         1 <0>         0.0770
     57 H23         4.1656   -0.1802   -0.4404 H         1 <0>         0.0504
     58 H24         4.0507    1.5841   -0.7579 H         1 <0>         0.0696
     59 H25         2.5834    0.6576   -0.2940 H         1 <0>         0.0526
     60 H26         5.9621    0.2400    1.2444 H         1 <0>         0.0663
     61 H27         5.6714    1.3799    2.6020 H         1 <0>         0.0593
     62 H28         5.8473    2.0043    0.9269 H         1 <0>         0.0621
     63 H29         1.1316    1.9310    2.2450 H         1 <0>         0.4344
     64 H30        -0.2501    4.6564   -0.4010 H         1 <0>         0.0768
     65 H31        -2.6378    4.8645    0.2720 H         1 <0>         0.0505
     66 H32        -2.6653    3.1235    0.7133 H         1 <0>         0.0647
     67 H33        -2.4296    3.6125   -0.9990 H         1 <0>         0.0581
     68 H34        -0.8248    5.2599    1.9449 H         1 <0>         0.0631
     69 H35         0.6870    4.2922    1.8765 H         1 <0>         0.0577
     70 H36        -0.8521    3.5189    2.3862 H         1 <0>         0.0613
     71 H37         0.4310    2.4167   -2.2063 H         1 <0>         0.4308
     72 H38        -1.6899    2.2355   -3.8884 H         1 <0>         0.0938
     73 H39        -0.9951    0.5994   -3.6292 H         1 <0>         0.0933
     74 H40        -3.2418   -0.1658   -2.7738 H         1 <0>         0.0775
     75 H41        -5.2091    1.2994   -3.1990 H         1 <0>         0.0522
     76 H42        -4.1132    2.6093   -3.7558 H         1 <0>         0.0469
     77 H43        -4.0671    2.0667   -2.0440 H         1 <0>         0.0755
     78 H44        -4.3436   -0.1929   -5.0063 H         1 <0>         0.0586
     79 H45        -2.5794   -0.4985   -5.1506 H         1 <0>         0.0546
     80 H46        -3.2477    1.1170   -5.5630 H         1 <0>         0.0552
     81 H47         6.1324    5.8094    4.9578 H         1 <0>         0.4106
@<TRIPOS>BOND
     1    1    2 1
     2    1   39 1
     3    1   40 1
     4    1   41 1
     5    2    3 1
     6    2   42 1
     7    2   43 1
     8    3    4 1
     9    4    5 2
    10    4    6 1
    11    6    7 1
    12    6   44 1
    13    6   45 1
    14    7    8 1
    15    7    9 1
    16    7   38 1
    17    9   10 1
    18    9   11 1
    19    9   15 1
    20   11   12 1
    21   11   46 1
    22   11   47 1
    23   12   13 1
    24   12   14 1
    25   12   48 1
    26   13   49 1
    27   13   50 1
    28   13   51 1
    29   14   52 1
    30   14   53 1
    31   14   54 1
    32   15   16 am
    33   15   55 1
    34   16   17 2
    35   16   18 1
    36   18   19 1
    37   18   20 1
    38   18   23 1
    39   20   21 1
    40   20   22 1
    41   20   56 1
    42   21   57 1
    43   21   58 1
    44   21   59 1
    45   22   60 1
    46   22   61 1
    47   22   62 1
    48   23   24 am
    49   23   63 1
    50   24   25 2
    51   24   26 1
    52   26   27 1
    53   26   28 1
    54   26   31 1
    55   28   29 1
    56   28   30 1
    57   28   64 1
    58   29   65 1
    59   29   66 1
    60   29   67 1
    61   30   68 1
    62   30   69 1
    63   30   70 1
    64   31   32 am
    65   31   71 1
    66   32   33 2
    67   32   34 1
    68   34   35 1
    69   34   72 1
    70   34   73 1
    71   35   36 1
    72   35   37 1
    73   35   74 1
    74   36   75 1
    75   36   76 1
    76   36   77 1
    77   37   78 1
    78   37   79 1
    79   37   80 1
    80   38   81 1
