@<TRIPOS>MOLECULE
ZINC05751469
   34    36     0     0     0
SMALL
USER_CHARGES
1,3-bis(p-tolyl)-1,3-diazetidine-2,4-dione
@<TRIPOS>ATOM
      1 C1          6.6004    2.2531   -0.0495 C.3       1 <0>        -0.1162
      2 C2          5.0936    2.2326   -0.0352 C.ar      1 <0>        -0.0936
      3 C3          4.3874    3.4213   -0.0215 C.ar      1 <0>        -0.0889
      4 C4          3.0064    3.4057   -0.0084 C.ar      1 <0>        -0.1306
      5 C5          2.3272    2.1949   -0.0084 C.ar      1 <0>         0.1579
      6 C6          3.0390    1.0030   -0.0159 C.ar      1 <0>        -0.1306
      7 C7          4.4199    1.0250   -0.0352 C.ar      1 <0>        -0.0889
      8 N1          0.9256    2.1758    0.0049 N.am      1 <0>        -0.5632
      9 C8         -0.0144    1.2099    0.0087 C.2       1 <0>         0.7348
     10 O1          0.0021   -0.0041    0.0020 O.2       1 <0>        -0.4357
     11 N2         -0.9802    2.1499    0.0169 N.am      1 <0>        -0.5632
     12 C9         -0.0402    3.1157    0.0192 C.2       1 <0>         0.7348
     13 O2         -0.0567    4.3297    0.0259 O.2       1 <0>        -0.4357
     14 C10        -2.3820    2.1308    0.0213 C.ar      1 <0>         0.1579
     15 C11        -3.0611    0.9201    0.0112 C.ar      1 <0>        -0.1306
     16 C12        -4.4422    0.9045    0.0218 C.ar      1 <0>        -0.0889
     17 C13        -5.1484    2.0933    0.0306 C.ar      1 <0>        -0.0936
     18 C14        -4.4747    3.3008    0.0345 C.ar      1 <0>        -0.0889
     19 C15        -3.0937    3.3228    0.0301 C.ar      1 <0>        -0.1306
     20 C16        -6.6553    2.0728    0.0354 C.3       1 <0>        -0.1162
     21 H1          6.9735    2.2521    0.9746 H         1 <0>         0.0738
     22 H2          6.9708    1.3711   -0.5720 H         1 <0>         0.0693
     23 H3          6.9467    3.1509   -0.5615 H         1 <0>         0.0693
     24 H4          4.9163    4.3630   -0.0215 H         1 <0>         0.1350
     25 H5          2.4554    4.3345    0.0023 H         1 <0>         0.1364
     26 H6          2.5134    0.0595   -0.0114 H         1 <0>         0.1364
     27 H7          4.9741    0.0981   -0.0455 H         1 <0>         0.1350
     28 H8         -2.5101   -0.0087   -0.0002 H         1 <0>         0.1364
     29 H9         -4.9711   -0.0372    0.0184 H         1 <0>         0.1350
     30 H10        -5.0290    4.2277    0.0414 H         1 <0>         0.1350
     31 H11        -2.5681    4.2662    0.0332 H         1 <0>         0.1364
     32 H12        -7.0219    2.0731   -0.9911 H         1 <0>         0.0738
     33 H13        -7.0048    1.1754    0.5458 H         1 <0>         0.0693
     34 H14        -7.0290    2.9551    0.5549 H         1 <0>         0.0693
@<TRIPOS>BOND
     1    1    2 1
     2    1   21 1
     3    1   22 1
     4    1   23 1
     5    2    7 ar
     6    2    3 ar
     7    3    4 ar
     8    3   24 1
     9    4    5 ar
    10    4   25 1
    11    5    6 ar
    12    5    8 1
    13    6    7 ar
    14    6   26 1
    15    7   27 1
    16    8   12 am
    17    8    9 am
    18    9   10 2
    19    9   11 am
    20   11   12 am
    21   11   14 1
    22   12   13 2
    23   14   19 ar
    24   14   15 ar
    25   15   16 ar
    26   15   28 1
    27   16   17 ar
    28   16   29 1
    29   17   18 ar
    30   17   20 1
    31   18   19 ar
    32   18   30 1
    33   19   31 1
    34   20   32 1
    35   20   33 1
    36   20   34 1
@<TRIPOS>MOLECULE
ZINC29412147
   20    20     0     0     0
SMALL
USER_CHARGES
1,3-diethyl-1,3-diazetidine-2,4-dione
@<TRIPOS>ATOM
      1 C1         -1.3891   -1.4117   -1.4348 C.3       1 <0>        -0.1774
      2 C2         -1.0196   -1.0540    0.0061 C.3       1 <0>         0.1349
      3 N1          0.0021   -0.0041    0.0020 N.am      1 <0>        -0.6287
      4 C3         -0.0162    1.3436    0.0094 C.2       1 <0>         0.7311
      5 O1         -0.8863    2.1903    0.0184 O.2       1 <0>        -0.4628
      6 N2          1.3314    1.3619   -0.0033 N.am      1 <0>        -0.6286
      7 C4          1.3497    0.0143   -0.0108 C.2       1 <0>         0.7311
      8 O2          2.2197   -0.8325   -0.0233 O.2       1 <0>        -0.4628
      9 C5          2.3531    2.4118   -0.0078 C.3       1 <0>         0.1349
     10 C6          2.7225    2.7701    1.4330 C.3       1 <0>        -0.1774
     11 H1         -2.1563   -2.2000   -1.4317 H         1 <0>         0.0812
     12 H2         -0.4947   -1.7725   -1.9639 H         1 <0>         0.0630
     13 H3         -1.7820   -0.5197   -1.9448 H         1 <0>         0.0630
     14 H4         -1.9140   -0.6932    0.5352 H         1 <0>         0.0978
     15 H5         -0.6268   -1.9459    0.5161 H         1 <0>         0.0978
     16 H6          3.2475    2.0508   -0.5367 H         1 <0>         0.0979
     17 H7          1.9603    3.3035   -0.5182 H         1 <0>         0.0978
     18 H8          3.4897    3.5584    1.4296 H         1 <0>         0.0812
     19 H9          3.1153    1.8784    1.9434 H         1 <0>         0.0630
     20 H10         1.8281    3.1311    1.9619 H         1 <0>         0.0630
@<TRIPOS>BOND
     1    1    2 1
     2    1   11 1
     3    1   12 1
     4    1   13 1
     5    2    3 1
     6    2   14 1
     7    2   15 1
     8    3    7 am
     9    3    4 am
    10    4    5 2
    11    4    6 am
    12    6    7 am
    13    6    9 1
    14    7    8 2
    15    9   10 1
    16    9   16 1
    17    9   17 1
    18   10   18 1
    19   10   19 1
    20   10   20 1
@<TRIPOS>MOLECULE
ZINC00033357
   26    28     0     0     0
SMALL
USER_CHARGES

@<TRIPOS>ATOM
      1 C1         -0.0166    1.3717    0.0096 C.ar      1 <0>        -0.0767
      2 C2          1.1605    2.0995    0.0023 C.ar      1 <0>        -0.0847
      3 C3          2.3767    1.4322   -0.0130 C.ar      1 <0>         0.0100
      4 C4          2.3994    0.0664   -0.0205 C.ar      1 <0>        -0.6092
      5 C5          1.2248   -0.6976   -0.0134 C.ar      1 <0>        -0.1127
      6 C6          0.0021   -0.0041    0.0020 C.ar      1 <0>        -0.0269
      7 C7          1.4911   -2.1420   -0.0245 C.2       1 <0>         0.5419
      8 O1          0.5788   -2.9453   -0.0206 O.2       1 <0>        -0.4388
      9 N1          2.7690   -2.5504   -0.0395 N.am      1 <0>        -0.8830
     10 S1          3.6865   -1.1513   -0.0404 S.o2      1 <0>         2.6423
     11 O2          4.3427   -1.0658   -1.2979 O.2       1 <0>        -0.8953
     12 O3          4.3674   -1.0805    1.2049 O.2       1 <0>        -0.8954
     13 C8          3.2356   -3.8674   -0.0514 C.ar      1 <0>         0.1671
     14 C9          3.4803   -4.5500    1.1398 C.ar      1 <0>         0.0754
     15 C10         3.9415   -5.8536    1.0859 C.ar      1 <0>         0.3356
     16 N2          4.1502   -6.4506   -0.0748 N.ar      1 <0>        -0.4724
     17 C11         3.9301   -5.8368   -1.2245 C.ar      1 <0>         0.3356
     18 C12         3.4629   -4.5345   -1.2548 C.ar      1 <0>         0.0753
     19 F1          3.2353   -3.9160   -2.4341 F         1 <0>        -0.0811
     20 F2          4.1594   -6.4904   -2.3844 F         1 <0>        -0.0679
     21 F3          4.1818   -6.5242    2.2338 F         1 <0>        -0.0679
     22 F4          3.2703   -3.9467    2.3302 F         1 <0>        -0.0812
     23 H1         -0.9634    1.8911    0.0260 H         1 <0>         0.1523
     24 H2          1.1325    3.1791    0.0080 H         1 <0>         0.1545
     25 H3          3.3015    1.9901   -0.0192 H         1 <0>         0.1518
     26 H4         -0.9274   -0.5540    0.0083 H         1 <0>         0.1515
@<TRIPOS>BOND
     1    1    6 ar
     2    1    2 ar
     3    1   23 1
     4    2    3 ar
     5    2   24 1
     6    3    4 ar
     7    3   25 1
     8    4   10 1
     9    4    5 ar
    10    5    6 ar
    11    5    7 1
    12    6   26 1
    13    7    8 2
    14    7    9 am
    15    9   10 1
    16    9   13 1
    17   10   11 2
    18   10   12 2
    19   13   18 ar
    20   13   14 ar
    21   14   15 ar
    22   14   22 1
    23   15   16 ar
    24   15   21 1
    25   16   17 ar
    26   17   18 ar
    27   17   20 1
    28   18   19 1
@<TRIPOS>MOLECULE
ZINC03913912
   54    54     0     0     0
SMALL
USER_CHARGES

@<TRIPOS>ATOM
      1 C1         -1.0703   -0.4122    0.0605 C.3       1 <0>        -0.1531
      2 C2         -0.5477   -1.8492    0.1134 C.3       1 <0>         0.0589
      3 O1          0.3393   -1.9929    1.2244 O.3       1 <0>        -0.3400
      4 C3          0.8884   -3.2031    1.4133 C.2       1 <0>         0.4768
      5 O2          0.6245   -4.1104    0.6602 O.2       1 <0>        -0.4761
      6 C4          1.8338   -3.4303    2.5646 C.3       1 <0>         0.0133
      7 H1          1.3660   -3.5991    3.5346 H         1 <0>         0.1739
      8 C5          3.1774   -2.6988    2.5388 C.3       1 <0>        -0.0018
      9 H2          3.3856   -2.0488    1.6889 H         1 <0>         0.1663
     10 O3          3.0645   -4.1037    2.2927 O.3       1 <0>        -0.2793
     11 C6          3.7639   -2.2607    3.8561 C.2       1 <0>         0.5347
     12 O4          4.8043   -2.7454    4.2477 O.2       1 <0>        -0.5059
     13 N1          3.1322   -1.3303    4.5988 N.am      1 <0>        -0.7031
     14 C7          3.6420   -0.9841    5.9279 C.3       1 <0>         0.1255
     15 H3          4.1145   -1.8588    6.3750 H         1 <0>         0.1178
     16 C8          4.6696    0.1425    5.8025 C.3       1 <0>        -0.1228
     17 C9          5.2978    0.4144    7.1708 C.3       1 <0>        -0.1063
     18 C10         6.1306   -0.7956    7.5992 C.3       1 <0>        -0.1564
     19 C11         6.1986    1.6479    7.0824 C.3       1 <0>        -0.1459
     20 C12         2.5010   -0.5285    6.8006 C.2       1 <0>         0.5140
     21 O5          1.4600   -0.1640    6.2964 O.2       1 <0>        -0.5301
     22 N2          2.6375   -0.5260    8.1415 N.am      1 <0>        -0.7252
     23 C13         1.4953   -0.1855    8.9934 C.3       1 <0>         0.1140
     24 C14         1.9157   -0.2575   10.4627 C.3       1 <0>        -0.1292
     25 C15         0.7229    0.0981   11.3524 C.3       1 <0>        -0.0929
     26 C16         1.1067   -0.0943   12.8210 C.3       1 <0>        -0.1488
     27 C17         0.3270    1.5570   11.1157 C.3       1 <0>        -0.1535
     28 H4         -0.2320    0.2753   -0.0525 H         1 <0>         0.0689
     29 H5         -1.7469   -0.3025   -0.7870 H         1 <0>         0.0830
     30 H6         -1.6042   -0.1855    0.9834 H         1 <0>         0.0699
     31 H7         -1.3860   -2.5367    0.2264 H         1 <0>         0.0725
     32 H8         -0.0138   -2.0758   -0.8095 H         1 <0>         0.0719
     33 H9          2.3400   -0.8898    4.2534 H         1 <0>         0.4170
     34 H10         5.4472   -0.1519    5.0977 H         1 <0>         0.0866
     35 H11         4.1765    1.0457    5.4432 H         1 <0>         0.0758
     36 H12         4.5104    0.5913    7.9035 H         1 <0>         0.0753
     37 H13         6.9620   -0.9279    6.9068 H         1 <0>         0.0634
     38 H14         6.5178   -0.6324    8.6049 H         1 <0>         0.0600
     39 H15         5.5053   -1.6883    7.5909 H         1 <0>         0.0550
     40 H16         5.6053    2.5099    6.7772 H         1 <0>         0.0556
     41 H17         6.6462    1.8417    8.0572 H         1 <0>         0.0588
     42 H18         6.9860    1.4711    6.3497 H         1 <0>         0.0580
     43 H19         3.4919   -0.7497    8.5424 H         1 <0>         0.4041
     44 H20         1.1573    0.8244    8.7612 H         1 <0>         0.0750
     45 H21         0.6842   -0.8907    8.8125 H         1 <0>         0.0697
     46 H22         2.2538   -1.2674   10.6949 H         1 <0>         0.0708
     47 H23         2.7269    0.4478   10.6436 H         1 <0>         0.0714
     48 H24        -0.1184   -0.5507   11.1088 H         1 <0>         0.0735
     49 H25         1.9479    0.5546   13.0647 H         1 <0>         0.0556
     50 H26         0.2569    0.1591   13.4548 H         1 <0>         0.0575
     51 H27         1.3886   -1.1336   12.9896 H         1 <0>         0.0553
     52 H28        -0.5227    1.8103   11.7495 H         1 <0>         0.0568
     53 H29         1.1683    2.2058   11.3594 H         1 <0>         0.0557
     54 H30         0.0536    1.6941   10.0695 H         1 <0>         0.0578
@<TRIPOS>BOND
     1    1    2 1
     2    1   28 1
     3    1   29 1
     4    1   30 1
     5    2    3 1
     6    2   31 1
     7    2   32 1
     8    3    4 1
     9    4    5 2
    10    4    6 1
    11    6    7 1
    12    6   10 1
    13    6    8 1
    14    8    9 1
    15    8   10 1
    16    8   11 1
    17   11   12 2
    18   11   13 am
    19   13   14 1
    20   13   33 1
    21   14   15 1
    22   14   16 1
    23   14   20 1
    24   16   17 1
    25   16   34 1
    26   16   35 1
    27   17   18 1
    28   17   19 1
    29   17   36 1
    30   18   37 1
    31   18   38 1
    32   18   39 1
    33   19   40 1
    34   19   41 1
    35   19   42 1
    36   20   21 2
    37   20   22 am
    38   22   23 1
    39   22   43 1
    40   23   24 1
    41   23   44 1
    42   23   45 1
    43   24   25 1
    44   24   46 1
    45   24   47 1
    46   25   26 1
    47   25   27 1
    48   25   48 1
    49   26   49 1
    50   26   50 1
    51   26   51 1
    52   27   52 1
    53   27   53 1
    54   27   54 1
