@<TRIPOS>MOLECULE
ZINC58538432
   42    45     0     0     0
SMALL
USER_CHARGES

@<TRIPOS>ATOM
      1 C1         -0.0167    1.3781    0.0096 C.ar      1 <0>        -0.1055
      2 C2          1.1709    2.0855    0.0021 C.ar      1 <0>        -0.1230
      3 C3          2.3773    1.4107   -0.0130 C.ar      1 <0>        -0.0923
      4 C4          2.3960    0.0285   -0.0201 C.ar      1 <0>        -0.1034
      5 C5          1.2084   -0.6789   -0.0117 C.ar      1 <0>        -0.0923
      6 C6          0.0021   -0.0041    0.0020 C.ar      1 <0>        -0.1229
      7 C7          3.7112   -0.7071   -0.0376 C.3       1 <0>         0.1006
      8 O1          4.1410   -0.9464    1.3041 O.3       1 <0>        -0.2963
      9 C8          5.3182   -1.6047    1.4665 C.ar      1 <0>         0.1963
     10 C9          6.0466   -2.0065    0.3545 C.ar      1 <0>        -0.2130
     11 C10         7.2418   -2.6743    0.5160 C.ar      1 <0>        -0.0248
     12 C11         7.7191   -2.9464    1.7976 C.ar      1 <0>        -0.0874
     13 C12         6.9857   -2.5418    2.9119 C.ar      1 <0>         0.0084
     14 C13         5.7934   -1.8694    2.7438 C.ar      1 <0>        -0.2212
     15 C14         5.0027   -1.4266    3.9478 C.3       1 <0>         0.5180
     16 F1          5.6781   -1.8033    5.1136 F         1 <0>        -0.1760
     17 F2          4.8552   -0.0357    3.9231 F         1 <0>        -0.1723
     18 F3          3.7406   -2.0299    3.9245 F         1 <0>        -0.1723
     19 C15         9.0040   -3.6649    1.9748 C.ar      1 <0>         0.1814
     20 C16         9.7800   -3.9659    0.8564 C.ar      1 <0>        -0.1224
     21 C17        10.9796   -4.6374    1.0325 C.ar      1 <0>         0.0835
     22 C18        11.3737   -4.9932    2.3394 C.ar      1 <0>         0.0405
     23 C19        10.5328   -4.6531    3.4155 C.ar      1 <0>         0.2748
     24 N1          9.3971   -4.0050    3.1949 N.ar      1 <0>        -0.4397
     25 C20        10.9079   -5.0018    4.7527 C.1       1 <0>         0.2676
     26 N2         11.2054   -5.2784    5.8136 N.1       1 <0>        -0.3705
     27 N3         12.5578   -5.6258    2.2336 N.2       1 <0>        -0.4816
     28 C21        12.9162   -5.6852    0.9823 C.2       1 <0>         0.2898
     29 N4         11.9767   -5.0895    0.1984 N.pl3     1 <0>        -0.5912
     30 H1         12.0046   -5.0001   -0.7671 H         1 <0>         0.4342
     31 H2         -0.9591    1.9053    0.0259 H         1 <0>         0.1256
     32 H3          1.1563    3.1654    0.0076 H         1 <0>         0.1267
     33 H4          3.3051    1.9634   -0.0196 H         1 <0>         0.1249
     34 H5          1.2231   -1.7588   -0.0176 H         1 <0>         0.1250
     35 H6         -0.9258   -0.5567    0.0082 H         1 <0>         0.1267
     36 H7          3.5884   -1.6586   -0.5549 H         1 <0>         0.0788
     37 H8          4.4573   -0.1052   -0.5563 H         1 <0>         0.0788
     38 H9          5.6762   -1.7958   -0.6379 H         1 <0>         0.1464
     39 H10         7.8076   -2.9868   -0.3492 H         1 <0>         0.1409
     40 H11         7.3528   -2.7511    3.9058 H         1 <0>         0.1599
     41 H12         9.4513   -3.6806   -0.1320 H         1 <0>         0.1488
     42 H13        13.8261   -6.1406    0.6201 H         1 <0>         0.2304
@<TRIPOS>BOND
     1    1    6 ar
     2    1    2 ar
     3    1   31 1
     4    2    3 ar
     5    2   32 1
     6    3    4 ar
     7    3   33 1
     8    4    5 ar
     9    4    7 1
    10    5    6 ar
    11    5   34 1
    12    6   35 1
    13    7    8 1
    14    7   36 1
    15    7   37 1
    16    8    9 1
    17    9   14 ar
    18    9   10 ar
    19   10   11 ar
    20   10   38 1
    21   11   12 ar
    22   11   39 1
    23   12   13 ar
    24   12   19 1
    25   13   14 ar
    26   13   40 1
    27   14   15 1
    28   15   16 1
    29   15   17 1
    30   15   18 1
    31   19   24 ar
    32   19   20 ar
    33   20   21 ar
    34   20   41 1
    35   21   29 1
    36   21   22 ar
    37   22   23 ar
    38   22   27 1
    39   23   24 ar
    40   23   25 1
    41   25   26 3
    42   27   28 2
    43   28   29 1
    44   28   42 1
    45   29   30 1
@<TRIPOS>MOLECULE
ZINC58633358
   36    38     0     0     0
SMALL
USER_CHARGES

@<TRIPOS>ATOM
      1 C1         -0.0187    1.5258    0.0104 C.3       1 <0>        -0.1688
      2 C2          0.0021   -0.0041    0.0020 C.3       1 <0>         0.1141
      3 N1         -1.3723   -0.5112    0.0124 N.pl3     1 <0>        -0.7358
      4 C3         -1.6086   -1.8861    0.0073 C.ar      1 <0>         0.2807
      5 C4         -0.5387   -2.7744   -0.0019 C.ar      1 <0>        -0.2004
      6 C5         -0.7698   -4.1329   -0.0065 C.ar      1 <0>        -0.0160
      7 C6         -2.0779   -4.6168   -0.0020 C.ar      1 <0>        -0.1127
      8 C7         -3.1491   -3.7243    0.0072 C.ar      1 <0>         0.0210
      9 C8         -2.9133   -2.3662    0.0172 C.ar      1 <0>        -0.2697
     10 C9         -4.0706   -1.4011    0.0334 C.3       1 <0>         0.5120
     11 F1         -5.2734   -2.1155    0.0410 F         1 <0>        -0.1715
     12 F2         -3.9954   -0.6021    1.1793 F         1 <0>        -0.1791
     13 F3         -4.0173   -0.5898   -1.1051 F         1 <0>        -0.1791
     14 C10        -2.3290   -6.0779   -0.0074 C.ar      1 <0>         0.1902
     15 C11        -1.2524   -6.9581    0.0945 C.ar      1 <0>        -0.1282
     16 C12        -1.4975   -8.3221    0.0885 C.ar      1 <0>         0.0853
     17 C13        -2.8298   -8.7727   -0.0207 C.ar      1 <0>         0.0359
     18 C14        -3.8602   -7.8193   -0.1192 C.ar      1 <0>         0.2733
     19 N2         -3.5741   -6.5245   -0.1037 N.ar      1 <0>        -0.4425
     20 C15        -5.2218   -8.2484   -0.2316 C.1       1 <0>         0.2692
     21 N3         -6.3019   -8.5888   -0.3208 N.1       1 <0>        -0.3739
     22 N4         -2.7914  -10.1188   -0.0033 N.2       1 <0>        -0.4820
     23 C16        -1.5579  -10.5237    0.1064 C.2       1 <0>         0.2869
     24 N5         -0.7186   -9.4542    0.1669 N.pl3     1 <0>        -0.5923
     25 H1          0.2475   -9.4840    0.2496 H         1 <0>         0.4336
     26 H2          1.0039    1.9031    0.0027 H         1 <0>         0.0783
     27 H3         -0.5459    1.8868   -0.8726 H         1 <0>         0.0640
     28 H4         -0.5289    1.8773    0.9072 H         1 <0>         0.0640
     29 H5          0.5123   -0.3556   -0.8948 H         1 <0>         0.0685
     30 H6          0.5293   -0.3651    0.8851 H         1 <0>         0.0685
     31 H7         -2.1181    0.1091    0.0229 H         1 <0>         0.4028
     32 H8          0.4740   -2.3993   -0.0058 H         1 <0>         0.1388
     33 H9          0.0614   -4.8224   -0.0140 H         1 <0>         0.1361
     34 H10        -4.1628   -4.0968    0.0104 H         1 <0>         0.1518
     35 H11        -0.2431   -6.5827    0.1765 H         1 <0>         0.1480
     36 H12        -1.2469  -11.5573    0.1441 H         1 <0>         0.2292
@<TRIPOS>BOND
     1    1    2 1
     2    1   26 1
     3    1   27 1
     4    1   28 1
     5    2    3 1
     6    2   29 1
     7    2   30 1
     8    3    4 1
     9    3   31 1
    10    4    9 ar
    11    4    5 ar
    12    5    6 ar
    13    5   32 1
    14    6    7 ar
    15    6   33 1
    16    7    8 ar
    17    7   14 1
    18    8    9 ar
    19    8   34 1
    20    9   10 1
    21   10   11 1
    22   10   12 1
    23   10   13 1
    24   14   19 ar
    25   14   15 ar
    26   15   16 ar
    27   15   35 1
    28   16   24 1
    29   16   17 ar
    30   17   18 ar
    31   17   22 1
    32   18   19 ar
    33   18   20 1
    34   20   21 3
    35   22   23 2
    36   23   24 1
    37   23   36 1
    38   24   25 1
@<TRIPOS>MOLECULE
ZINC58538228
   35    37     0     0     0
SMALL
USER_CHARGES

@<TRIPOS>ATOM
      1 C1         -0.1651    1.4978    0.5875 C.3       1 <0>        -0.1759
      2 C2         -0.1503   -0.0092    0.5896 C.2       1 <0>         0.5171
      3 O1          0.7665   -0.6059    1.1135 O.2       1 <0>        -0.5132
      4 N1         -1.1558   -0.6938    0.0094 N.am      1 <0>        -0.6775
      5 C3         -1.0866   -2.0863   -0.0911 C.ar      1 <0>         0.2170
      6 C4          0.1500   -2.7213   -0.0925 C.ar      1 <0>        -0.1362
      7 C5          0.2209   -4.0942   -0.1919 C.ar      1 <0>        -0.0432
      8 C6         -0.9494   -4.8463   -0.2906 C.ar      1 <0>        -0.0677
      9 C7         -2.1885   -4.2072   -0.2884 C.ar      1 <0>        -0.0079
     10 C8         -2.2544   -2.8341   -0.1836 C.ar      1 <0>        -0.2237
     11 C9         -3.5935   -2.1430   -0.1750 C.3       1 <0>         0.5101
     12 F1         -4.6114   -3.0973   -0.2781 F         1 <0>        -0.1675
     13 F2         -3.7425   -1.4294    1.0191 F         1 <0>        -0.1737
     14 F3         -3.6700   -1.2609   -1.2581 F         1 <0>        -0.1781
     15 C10        -0.8759   -6.3233   -0.3981 C.ar      1 <0>         0.1772
     16 C11         0.3611   -6.9570   -0.2883 C.ar      1 <0>        -0.1185
     17 C12         0.4192   -8.3381   -0.3897 C.ar      1 <0>         0.0826
     18 C13        -0.7772   -9.0549   -0.6008 C.ar      1 <0>         0.0420
     19 C14        -1.9853   -8.3399   -0.7008 C.ar      1 <0>         0.2729
     20 N2         -1.9887   -7.0184   -0.5914 N.ar      1 <0>        -0.4384
     21 C15        -3.2149   -9.0418   -0.9154 C.1       1 <0>         0.2684
     22 N3         -4.1903   -9.5987   -1.0856 N.1       1 <0>        -0.3715
     23 N4         -0.4477  -10.3592   -0.6611 N.2       1 <0>        -0.4822
     24 C16         0.8386  -10.4971   -0.5059 C.2       1 <0>         0.2905
     25 N5          1.4217   -9.2795   -0.3345 N.pl3     1 <0>        -0.5906
     26 H1          2.3667   -9.1073   -0.1994 H         1 <0>         0.4346
     27 H2          0.7225    1.8705    1.0987 H         1 <0>         0.1023
     28 H3         -0.1711    1.8596   -0.4407 H         1 <0>         0.0969
     29 H4         -1.0573    1.8531    1.1029 H         1 <0>         0.0959
     30 H5         -1.9276   -0.2202   -0.3386 H         1 <0>         0.4155
     31 H6          1.0560   -2.1384   -0.0161 H         1 <0>         0.1627
     32 H7          1.1818   -4.5870   -0.1937 H         1 <0>         0.1418
     33 H8         -3.0961   -4.7875   -0.3651 H         1 <0>         0.1575
     34 H9          1.2601   -6.3807   -0.1272 H         1 <0>         0.1502
     35 H10         1.3651  -11.4400   -0.5119 H         1 <0>         0.2305
@<TRIPOS>BOND
     1    1    2 1
     2    1   27 1
     3    1   28 1
     4    1   29 1
     5    2    3 2
     6    2    4 am
     7    4    5 1
     8    4   30 1
     9    5   10 ar
    10    5    6 ar
    11    6    7 ar
    12    6   31 1
    13    7    8 ar
    14    7   32 1
    15    8    9 ar
    16    8   15 1
    17    9   10 ar
    18    9   33 1
    19   10   11 1
    20   11   12 1
    21   11   13 1
    22   11   14 1
    23   15   20 ar
    24   15   16 ar
    25   16   17 ar
    26   16   34 1
    27   17   25 1
    28   17   18 ar
    29   18   19 ar
    30   18   23 1
    31   19   20 ar
    32   19   21 1
    33   21   22 3
    34   23   24 2
    35   24   25 1
    36   24   35 1
    37   25   26 1
@<TRIPOS>MOLECULE
ZINC58506736
   28    30     0     0     0
SMALL
USER_CHARGES

@<TRIPOS>ATOM
      1 C1         -0.0167    1.3788    0.0096 C.ar      1 <0>        -0.1189
      2 C2          1.1677    2.0878    0.0021 C.ar      1 <0>        -0.0689
      3 C3          2.3837    1.4075   -0.0131 C.ar      1 <0>        -0.0455
      4 C4          2.3966    0.0137   -0.0207 C.ar      1 <0>        -0.0308
      5 C5          1.2065   -0.6847   -0.0130 C.ar      1 <0>        -0.1842
      6 C6          0.0021   -0.0041    0.0020 C.ar      1 <0>        -0.0576
      7 C7          1.2187   -2.1916   -0.0212 C.3       1 <0>         0.5085
      8 F1          1.2350   -2.6650    1.2952 F         1 <0>        -0.1746
      9 F2          0.0740   -2.6637   -0.6724 F         1 <0>        -0.1758
     10 F3          2.3584   -2.6451   -0.6940 F         1 <0>        -0.1734
     11 C8          3.6597    2.1637   -0.0217 C.ar      1 <0>         0.1712
     12 C9          3.6331    3.5523    0.0970 C.ar      1 <0>        -0.1159
     13 C10         4.8308    4.2500    0.0879 C.ar      1 <0>         0.0810
     14 C11         6.0362    3.5290   -0.0414 C.ar      1 <0>         0.0440
     15 C12         5.9767    2.1273   -0.1564 C.ar      1 <0>         0.2734
     16 N1          4.8055    1.5063   -0.1368 N.ar      1 <0>        -0.4369
     17 C13         7.1846    1.3698   -0.2894 C.1       1 <0>         0.2675
     18 N2          8.1428    0.7689   -0.3949 N.1       1 <0>        -0.3697
     19 N3          7.0364    4.4302   -0.0228 N.2       1 <0>        -0.4820
     20 C14         6.5464    5.6308    0.1059 C.2       1 <0>         0.2916
     21 N4          5.1888    5.5759    0.1788 N.pl3     1 <0>        -0.5901
     22 H1          4.5862    6.3298    0.2762 H         1 <0>         0.4348
     23 H2         -0.9597    1.9050    0.0260 H         1 <0>         0.1423
     24 H3          1.1519    3.1676    0.0077 H         1 <0>         0.1376
     25 H4          3.3362   -0.5187   -0.0328 H         1 <0>         0.1508
     26 H5         -0.9270   -0.5547    0.0079 H         1 <0>         0.1404
     27 H6          2.6939    4.0764    0.1943 H         1 <0>         0.1503
     28 H7          7.1323    6.5370    0.1489 H         1 <0>         0.2311
@<TRIPOS>BOND
     1    1    6 ar
     2    1    2 ar
     3    1   23 1
     4    2    3 ar
     5    2   24 1
     6    3    4 ar
     7    3   11 1
     8    4    5 ar
     9    4   25 1
    10    5    6 ar
    11    5    7 1
    12    6   26 1
    13    7    8 1
    14    7    9 1
    15    7   10 1
    16   11   16 ar
    17   11   12 ar
    18   12   13 ar
    19   12   27 1
    20   13   21 1
    21   13   14 ar
    22   14   15 ar
    23   14   19 1
    24   15   16 ar
    25   15   17 1
    26   17   18 3
    27   19   20 2
    28   20   21 1
    29   20   28 1
    30   21   22 1
@<TRIPOS>MOLECULE
ZINC58575624
   32    34     0     0     0
SMALL
USER_CHARGES

@<TRIPOS>ATOM
      1 C1         -0.0173    1.4248    0.0099 C.3       1 <0>         0.0234
      2 O1          0.0021   -0.0041    0.0020 O.3       1 <0>        -0.3043
      3 C2          0.6256   -0.6182    1.0411 C.ar      1 <0>         0.1934
      4 C3          1.2018    0.1419    2.0505 C.ar      1 <0>        -0.2116
      5 C4          1.8348   -0.4783    3.1065 C.ar      1 <0>        -0.0257
      6 C5          1.8962   -1.8703    3.1604 C.ar      1 <0>        -0.0871
      7 C6          1.3169   -2.6305    2.1457 C.ar      1 <0>         0.0078
      8 C7          0.6805   -2.0043    1.0947 C.ar      1 <0>        -0.2219
      9 C8          0.0490   -2.8255    0.0001 C.3       1 <0>         0.5183
     10 F1          0.2324   -4.1854    0.2725 F         1 <0>        -0.1754
     11 F2         -1.3198   -2.5432   -0.0640 F         1 <0>        -0.1727
     12 F3          0.6480   -2.5101   -1.2242 F         1 <0>        -0.1726
     13 C9          2.5768   -2.5406    4.2946 C.ar      1 <0>         0.1812
     14 C10         3.0546   -1.7736    5.3563 C.ar      1 <0>        -0.1223
     15 C11         3.6888   -2.4095    6.4119 C.ar      1 <0>         0.0834
     16 C12         3.8288   -3.8126    6.3747 C.ar      1 <0>         0.0406
     17 C13         3.3193   -4.5139    5.2660 C.ar      1 <0>         0.2748
     18 N1          2.7153   -3.8595    4.2835 N.ar      1 <0>        -0.4396
     19 C14         3.4474   -5.9387    5.2020 C.1       1 <0>         0.2676
     20 N2          3.5491   -7.0691    5.1512 N.1       1 <0>        -0.3704
     21 N3          4.4702   -4.1729    7.5027 N.2       1 <0>        -0.4817
     22 C15         4.7311   -3.1161    8.2188 C.2       1 <0>         0.2899
     23 N4          4.2697   -2.0005    7.5907 N.pl3     1 <0>        -0.5912
     24 H1          4.3376   -1.0882    7.9133 H         1 <0>         0.4343
     25 H2          1.0053    1.8021    0.0021 H         1 <0>         0.0631
     26 H3         -0.5445    1.7859   -0.8732 H         1 <0>         0.1085
     27 H4         -0.5275    1.7763    0.9067 H         1 <0>         0.0630
     28 H5          1.1542    1.2200    2.0080 H         1 <0>         0.1470
     29 H6          2.2830    0.1133    3.8911 H         1 <0>         0.1408
     30 H7          1.3629   -3.7089    2.1846 H         1 <0>         0.1601
     31 H8          2.9326   -0.7005    5.3559 H         1 <0>         0.1488
     32 H9          5.2390   -3.1243    9.1719 H         1 <0>         0.2304
@<TRIPOS>BOND
     1    1    2 1
     2    1   25 1
     3    1   26 1
     4    1   27 1
     5    2    3 1
     6    3    8 ar
     7    3    4 ar
     8    4    5 ar
     9    4   28 1
    10    5    6 ar
    11    5   29 1
    12    6    7 ar
    13    6   13 1
    14    7    8 ar
    15    7   30 1
    16    8    9 1
    17    9   10 1
    18    9   11 1
    19    9   12 1
    20   13   18 ar
    21   13   14 ar
    22   14   15 ar
    23   14   31 1
    24   15   23 1
    25   15   16 ar
    26   16   17 ar
    27   16   21 1
    28   17   18 ar
    29   17   19 1
    30   19   20 3
    31   21   22 2
    32   22   23 1
    33   22   32 1
    34   23   24 1
@<TRIPOS>MOLECULE
ZINC43153883
   35    37     0     0     0
SMALL
USER_CHARGES

@<TRIPOS>ATOM
      1 C1         -0.0187    1.5258    0.0104 C.3       1 <0>        -0.1549
      2 C2          0.0021   -0.0041    0.0020 C.3       1 <0>         0.0521
      3 O1          0.6932   -0.4774    1.1597 O.3       1 <0>        -0.3036
      4 C3          0.8019   -1.8238    1.3056 C.ar      1 <0>         0.1970
      5 C4          0.2582   -2.6706    0.3487 C.ar      1 <0>        -0.2125
      6 C5          0.3673   -4.0372    0.4937 C.ar      1 <0>        -0.0252
      7 C6          1.0244   -4.5690    1.6026 C.ar      1 <0>        -0.0879
      8 C7          1.5692   -3.7163    2.5615 C.ar      1 <0>         0.0082
      9 C8          1.4614   -2.3500    2.4081 C.ar      1 <0>        -0.2227
     10 C9          2.0550   -1.4274    3.4413 C.3       1 <0>         0.5185
     11 F1          2.6624   -2.1847    4.4487 F         1 <0>        -0.1757
     12 F2          3.0106   -0.6036    2.8368 F         1 <0>        -0.1727
     13 F3          1.0431   -0.6375    3.9975 F         1 <0>        -0.1726
     14 C10         1.1431   -6.0384    1.7618 C.ar      1 <0>         0.1816
     15 C11         0.6917   -6.8761    0.7429 C.ar      1 <0>        -0.1224
     16 C12         0.8075   -8.2482    0.9011 C.ar      1 <0>         0.0834
     17 C13         1.3788   -8.7495    2.0894 C.ar      1 <0>         0.0405
     18 C14         1.8093   -7.8366    3.0702 C.ar      1 <0>         0.2748
     19 N1          1.6817   -6.5322    2.8686 N.ar      1 <0>        -0.4397
     20 C15         2.3930   -8.3175    4.2862 C.1       1 <0>         0.2677
     21 N2          2.8561   -8.6990    5.2509 N.1       1 <0>        -0.3705
     22 N3          1.3737  -10.0925    1.9911 N.2       1 <0>        -0.4816
     23 C16         0.8514  -10.4496    0.8520 C.2       1 <0>         0.2897
     24 N4          0.4850   -9.3490    0.1404 N.pl3     1 <0>        -0.5911
     25 H1          0.0737   -9.3417   -0.7380 H         1 <0>         0.4342
     26 H2          1.0039    1.9031    0.0027 H         1 <0>         0.0694
     27 H3         -0.5459    1.8868   -0.8726 H         1 <0>         0.0827
     28 H4         -0.5289    1.8773    0.9072 H         1 <0>         0.0694
     29 H5         -1.0205   -0.3814    0.0098 H         1 <0>         0.0692
     30 H6          0.5123   -0.3556   -0.8948 H         1 <0>         0.0692
     31 H7         -0.2510   -2.2581   -0.5098 H         1 <0>         0.1462
     32 H8         -0.0561   -4.6953   -0.2507 H         1 <0>         0.1406
     33 H9          2.0787   -4.1252    3.4215 H         1 <0>         0.1599
     34 H10         0.2583   -6.4623   -0.1555 H         1 <0>         0.1487
     35 H11         0.7278  -11.4701    0.5207 H         1 <0>         0.2304
@<TRIPOS>BOND
     1    1    2 1
     2    1   26 1
     3    1   27 1
     4    1   28 1
     5    2    3 1
     6    2   29 1
     7    2   30 1
     8    3    4 1
     9    4    9 ar
    10    4    5 ar
    11    5    6 ar
    12    5   31 1
    13    6    7 ar
    14    6   32 1
    15    7    8 ar
    16    7   14 1
    17    8    9 ar
    18    8   33 1
    19    9   10 1
    20   10   11 1
    21   10   12 1
    22   10   13 1
    23   14   19 ar
    24   14   15 ar
    25   15   16 ar
    26   15   34 1
    27   16   24 1
    28   16   17 ar
    29   17   18 ar
    30   17   22 1
    31   18   19 ar
    32   18   20 1
    33   20   21 3
    34   22   23 2
    35   23   24 1
    36   23   35 1
    37   24   25 1
@<TRIPOS>MOLECULE
ZINC34635639
   49    50     0     0     0
SMALL
USER_CHARGES

@<TRIPOS>ATOM
      1 C1         -0.0187    1.5258    0.0104 C.3       1 <0>        -0.1766
      2 C2          0.0021   -0.0041    0.0020 C.3       1 <0>         0.0443
      3 C3          0.7421   -0.5109    1.2415 C.3       1 <0>        -0.1690
      4 C4         -1.4117   -0.5257    0.0127 C.2       1 <0>         0.5070
      5 O1         -1.9390   -0.8271    1.0625 O.2       1 <0>        -0.4731
      6 N1         -2.0902   -0.6573   -1.1443 N.am      1 <0>        -0.8493
      7 N2          0.6897   -0.4778   -1.2066 N.4       1 <0>        -0.5059
      8 C5          2.0678    0.0307   -1.2170 C.3       1 <0>        -0.0204
      9 C6          2.7840   -0.4628   -2.4758 C.3       1 <0>        -0.1463
     10 C7          4.2193    0.0668   -2.4867 C.3       1 <0>        -0.0638
     11 C8          4.9247   -0.4192   -3.7266 C.ar      1 <0>         0.1804
     12 C9          5.5280    0.4827   -4.5880 C.ar      1 <0>        -0.1918
     13 C10         6.1715   -0.0123   -5.7269 C.ar      1 <0>         0.2445
     14 N3          6.1816   -1.3244   -5.9419 N.ar      1 <0>        -0.4790
     15 C11         5.5920   -2.1520   -5.0920 C.ar      1 <0>         0.4285
     16 N4          4.9792   -1.7111   -4.0013 N.ar      1 <0>        -0.4906
     17 C12         5.6216   -3.5594   -5.3547 C.1       1 <0>         0.2677
     18 N5          5.6451   -4.6759   -5.5631 N.1       1 <0>        -0.3326
     19 C13         6.8319    0.9121   -6.6803 C.ar      1 <0>        -0.0780
     20 C14         6.8210    2.2859   -6.4442 C.ar      1 <0>        -0.0550
     21 C15         7.4375    3.1412   -7.3344 C.ar      1 <0>        -0.1203
     22 C16         8.0656    2.6377   -8.4595 C.ar      1 <0>        -0.0422
     23 C17         8.0796    1.2755   -8.6989 C.ar      1 <0>        -0.1844
     24 C18         7.4707    0.4101   -7.8126 C.ar      1 <0>        -0.0168
     25 C19         8.7658    0.7347   -9.9268 C.3       1 <0>         0.5082
     26 F1          9.3087    1.7938  -10.6622 F         1 <0>        -0.1727
     27 F2          9.7888   -0.1389   -9.5426 F         1 <0>        -0.1720
     28 F3          7.8371    0.0472  -10.7154 F         1 <0>        -0.1725
     29 H1          1.0039    1.9031    0.0027 H         1 <0>         0.1008
     30 H2         -0.5459    1.8868   -0.8726 H         1 <0>         0.0879
     31 H3         -0.5289    1.8773    0.9072 H         1 <0>         0.1160
     32 H4          0.2319   -0.1594    2.1383 H         1 <0>         0.1189
     33 H5          0.7568   -1.6008    1.2356 H         1 <0>         0.0886
     34 H6          1.7647   -0.1336    1.2338 H         1 <0>         0.0956
     35 H7         -1.6686   -0.4162   -1.9840 H         1 <0>         0.3955
     36 H8         -3.0003   -0.9930   -1.1375 H         1 <0>         0.4275
     37 H9          0.7033   -1.4867   -1.2121 H         1 <0>         0.4338
     38 H10         2.0530    1.1205   -1.2110 H         1 <0>         0.1417
     39 H11         2.5950   -0.3304   -0.3340 H         1 <0>         0.1438
     40 H12         2.7987   -1.5526   -2.4818 H         1 <0>         0.1038
     41 H13         2.2568   -0.1017   -3.3589 H         1 <0>         0.0915
     42 H14         4.2046    1.1567   -2.4807 H         1 <0>         0.1040
     43 H15         4.7465   -0.2943   -1.6036 H         1 <0>         0.1085
     44 H16         5.5018    1.5431   -4.3850 H         1 <0>         0.1641
     45 H17         6.3307    2.6801   -5.5664 H         1 <0>         0.1400
     46 H18         7.4294    4.2058   -7.1526 H         1 <0>         0.1479
     47 H19         8.5465    3.3108   -9.1538 H         1 <0>         0.1489
     48 H20         7.4858   -0.6537   -7.9983 H         1 <0>         0.1499
     49 H21         0.2017   -0.1436   -2.0240 H         1 <0>         0.4229
@<TRIPOS>BOND
     1    1    2 1
     2    1   29 1
     3    1   30 1
     4    1   31 1
     5    2    3 1
     6    2    4 1
     7    2    7 1
     8    3   32 1
     9    3   33 1
    10    3   34 1
    11    4    5 2
    12    4    6 am
    13    6   35 1
    14    6   36 1
    15    7    8 1
    16    7   37 1
    17    7   49 1
    18    8    9 1
    19    8   38 1
    20    8   39 1
    21    9   10 1
    22    9   40 1
    23    9   41 1
    24   10   11 1
    25   10   42 1
    26   10   43 1
    27   11   16 ar
    28   11   12 ar
    29   12   13 ar
    30   12   44 1
    31   13   14 ar
    32   13   19 1
    33   14   15 ar
    34   15   16 ar
    35   15   17 1
    36   17   18 3
    37   19   24 ar
    38   19   20 ar
    39   20   21 ar
    40   20   45 1
    41   21   22 ar
    42   21   46 1
    43   22   23 ar
    44   22   47 1
    45   23   24 ar
    46   23   25 1
    47   24   48 1
    48   25   26 1
    49   25   27 1
    50   25   28 1
@<TRIPOS>MOLECULE
ZINC43202870
   33    34     0     0     0
SMALL
USER_CHARGES

@<TRIPOS>ATOM
      1 C1          0.1475    1.8033   -0.8548 C.3       1 <0>        -0.1407
      2 C2          0.0969    0.2861   -0.6645 C.3       1 <0>         0.0675
      3 H1         -0.9348   -0.0646   -0.6894 H         1 <0>         0.0775
      4 C3          0.9340   -0.4228   -1.7584 C.3       1 <0>        -0.1288
      5 C4          1.2772   -1.7687   -1.0673 C.3       1 <0>         0.1318
      6 H2          0.4540   -2.4757   -1.1703 H         1 <0>         0.1018
      7 C5          1.4664   -1.3629    0.4095 C.3       1 <0>         0.0260
      8 N1          0.7392   -0.0944    0.6116 N.3       1 <0>        -0.3993
      9 C6         -0.2295   -0.2168    1.6564 C.1       1 <0>         0.3423
     10 N2         -0.9990   -0.3140    2.4863 N.1       1 <0>        -0.4114
     11 N3          2.5133   -2.3322   -1.6158 N.pl3     1 <0>        -1.0969
     12 S1          2.6779   -3.9726   -1.7711 S.o2      1 <0>         2.6842
     13 O1          3.9533   -4.1993   -2.3552 O.2       1 <0>        -0.9265
     14 O2          2.2999   -4.5386   -0.5236 O.2       1 <0>        -0.9409
     15 C7          1.4820   -4.5071   -2.9496 C.ar      1 <0>        -0.6559
     16 C8          0.4616   -5.3554   -2.5628 C.ar      1 <0>         0.0114
     17 C9         -0.4771   -5.7749   -3.4879 C.ar      1 <0>        -0.1016
     18 C10        -0.3946   -5.3455   -4.8004 C.ar      1 <0>        -0.0282
     19 C11         0.6252   -4.4970   -5.1871 C.ar      1 <0>        -0.1008
     20 C12         1.5611   -4.0732   -4.2605 C.ar      1 <0>         0.0087
     21 Br1         2.9526   -2.9064   -4.7879 Br        1 <0>        -0.0045
     22 Br2        -1.8727   -6.9360   -2.9588 Br        1 <0>        -0.0191
     23 H3          1.1834    2.1402   -0.8151 H         1 <0>         0.0725
     24 H4         -0.2822    2.0627   -1.8224 H         1 <0>         0.0717
     25 H5         -0.4228    2.2881   -0.0623 H         1 <0>         0.0617
     26 H6          0.3417   -0.5860   -2.6588 H         1 <0>         0.0964
     27 H7          1.8385    0.1417   -1.9849 H         1 <0>         0.1007
     28 H8          1.0538   -2.1329    1.0614 H         1 <0>         0.0859
     29 H9          2.5261   -1.2223    0.6226 H         1 <0>         0.1153
     30 H10         3.2352   -1.7444   -1.8881 H         1 <0>         0.4274
     31 H11         0.3975   -5.6909   -1.5382 H         1 <0>         0.1629
     32 H12        -1.1272   -5.6736   -5.5230 H         1 <0>         0.1537
     33 H13         0.6898   -4.1621   -6.2118 H         1 <0>         0.1551
@<TRIPOS>BOND
     1    1    2 1
     2    1   23 1
     3    1   24 1
     4    1   25 1
     5    2    3 1
     6    2    8 1
     7    2    4 1
     8    4    5 1
     9    4   26 1
    10    4   27 1
    11    5    6 1
    12    5    7 1
    13    5   11 1
    14    7    8 1
    15    7   28 1
    16    7   29 1
    17    8    9 1
    18    9   10 3
    19   11   12 1
    20   11   30 1
    21   12   13 2
    22   12   14 2
    23   12   15 1
    24   15   20 ar
    25   15   16 ar
    26   16   17 ar
    27   16   31 1
    28   17   18 ar
    29   17   22 1
    30   18   19 ar
    31   18   32 1
    32   19   20 ar
    33   19   33 1
    34   20   21 1
@<TRIPOS>MOLECULE
ZINC43202870
   33    34     0     0     0
SMALL
NO_CHARGES

@<TRIPOS>ATOM
      1 C1         -0.0187    1.5258    0.0104 C.3       1 <0>        -0.1801
      2 C2          0.0021   -0.0041    0.0020 C.3       1 <0>         0.0202
      3 H1         -1.0148   -0.3966   -0.0029 H         1 <0>         0.1599
      4 C3          0.7876   -0.5260   -1.2269 C.3       1 <0>        -0.1063
      5 C4          1.2291   -1.9321   -0.7424 C.3       1 <0>         0.1693
      6 H2          0.4284   -2.6578   -0.8848 H         1 <0>         0.0617
      7 C5          1.5048   -1.7116    0.7598 C.3       1 <0>        -0.0593
      8 N1          0.7455   -0.5152    1.1733 N.4       1 <0>        -0.2733
      9 C6          1.6487    0.4880    1.6452 C.1       1 <0>         0.3098
     10 N2          2.3662    1.2849    2.0201 N.1       1 <0>        -0.2557
     11 N3          2.4447   -2.3616   -1.4382 N.2       1 <0>        -1.1291
     12 S1          3.1183   -3.8351   -1.0952 S.o2      1 <0>         2.5836
     13 O1          3.5800   -3.7680    0.2470 O.2       1 <0>        -1.0472
     14 O2          2.1901   -4.8178   -1.5333 O.2       1 <0>        -1.0156
     15 C7          4.5477   -4.0037   -2.1116 C.ar      1 <0>        -0.5884
     16 C8          5.8017   -4.0745   -1.5345 C.ar      1 <0>        -0.0008
     17 C9          6.9236   -4.2069   -2.3324 C.ar      1 <0>        -0.1052
     18 C10         6.7908   -4.2684   -3.7081 C.ar      1 <0>        -0.0474
     19 C11         5.5372   -4.1981   -4.2850 C.ar      1 <0>        -0.1124
     20 C12         4.4144   -4.0710   -3.4866 C.ar      1 <0>         0.0159
     21 Br1         2.6982   -3.9821   -4.2757 Br        1 <0>        -0.0022
     22 Br2         8.6392   -4.3030   -1.5429 Br        1 <0>        -0.0395
     23 H3          1.0039    1.9031    0.0027 H         1 <0>         0.0773
     24 H4         -0.5459    1.8868   -0.8726 H         1 <0>         0.1132
     25 H5         -0.5289    1.8773    0.9072 H         1 <0>         0.0775
     26 H6          0.1409   -0.5995   -2.1012 H         1 <0>         0.1140
     27 H7          1.6520    0.1047   -1.4344 H         1 <0>         0.1007
     28 H8          1.1682   -2.5777    1.3297 H         1 <0>         0.1323
     29 H9          2.5705   -1.5500    0.9215 H         1 <0>         0.1427
     30 H10         5.9054   -4.0261   -0.4606 H         1 <0>         0.1534
     31 H11         7.6670   -4.3711   -4.3311 H         1 <0>         0.1452
     32 H12         5.4335   -4.2458   -5.3590 H         1 <0>         0.1469
     33 H13         0.0972   -0.7590    1.9070 H         1 <0>         0.4390
@<TRIPOS>BOND
     1    1    2 1
     2    1   23 1
     3    1   24 1
     4    1   25 1
     5    2    3 1
     6    2    8 1
     7    2    4 1
     8    4    5 1
     9    4   26 1
    10    4   27 1
    11    5    6 1
    12    5    7 1
    13    5   11 1
    14    7    8 1
    15    7   28 1
    16    7   29 1
    17    8    9 1
    18    8   33 1
    19    9   10 3
    20   11   12 1
    21   12   13 2
    22   12   14 2
    23   12   15 1
    24   15   20 ar
    25   15   16 ar
    26   16   17 ar
    27   16   30 1
    28   17   18 ar
    29   17   22 1
    30   18   19 ar
    31   18   31 1
    32   19   20 ar
    33   19   32 1
    34   20   21 1
@<TRIPOS>MOLECULE
ZINC04095645
   52    52     0     0     0
SMALL
USER_CHARGES

@<TRIPOS>ATOM
      1 C1         -0.7138   -2.5640   -0.4210 C.3       1 <0>        -0.1550
      2 C2         -1.5731   -1.7628    0.5591 C.3       1 <0>        -0.1020
      3 C3         -1.0752   -2.0006    1.9862 C.3       1 <0>        -0.1465
      4 C4         -1.4727   -0.2730    0.2255 C.3       1 <0>        -0.1272
      5 C5         -2.1217   -0.0102   -1.1349 C.3       1 <0>         0.1280
      6 H1         -1.6692   -0.6591   -1.8847 H         1 <0>         0.1152
      7 C6         -3.5991   -0.2948   -1.0500 C.2       1 <0>         0.5162
      8 O1         -4.3871    0.6198   -0.9329 O.2       1 <0>        -0.5177
      9 N1         -4.0448   -1.5655   -1.1042 N.am      1 <0>        -0.7340
     10 C7         -5.4844   -1.8364   -1.1291 C.3       1 <0>         0.1167
     11 C8         -5.7180   -3.3472   -1.1906 C.3       1 <0>        -0.1305
     12 C9         -7.2214   -3.6302   -1.2165 C.3       1 <0>        -0.1313
     13 C10        -7.4550   -5.1410   -1.2780 C.3       1 <0>         0.0931
     14 N2         -8.8945   -5.4119   -1.3029 N.pl3     1 <0>        -0.6928
     15 C11        -9.3469   -6.7016   -1.3579 C.cat     1 <0>         0.7409
     16 N3        -10.6557   -6.9479   -1.3805 N.pl3     1 <0>        -0.7959
     17 N4         -8.4786   -7.7112   -1.3889 N.pl3     1 <0>        -0.7940
     18 N5         -1.9150    1.3902   -1.5121 N.am      1 <0>        -0.7100
     19 C12        -0.8081    1.7485   -2.1925 C.2       1 <0>         0.5464
     20 O2         -0.0284    0.9005   -2.5718 O.2       1 <0>        -0.5314
     21 C13        -0.5393    3.2028   -2.4820 C.3       1 <0>        -0.0416
     22 H2         -1.0786    3.6237   -3.3306 H         1 <0>         0.1494
     23 C14        -0.2465    4.1236   -1.2957 C.3       1 <0>        -0.0276
     24 H3         -0.2465    3.6830   -0.2987 H         1 <0>         0.1137
     25 O3          0.7708    3.7047   -2.2104 O.3       1 <0>        -0.3182
     26 C15        -0.7234    5.5507   -1.3799 C.2       1 <0>         0.5091
     27 O4         -1.9177    5.7932   -1.4162 O.co2     1 <0>        -0.6728
     28 O5          0.0851    6.4627   -1.4118 O.co2     1 <0>        -0.6670
     29 H4         -0.7071   -3.6130   -0.1249 H         1 <0>         0.0565
     30 H5         -1.1272   -2.4726   -1.4254 H         1 <0>         0.0534
     31 H6          0.3052   -2.1772   -0.4109 H         1 <0>         0.0656
     32 H7         -2.6116   -2.0841    0.4784 H         1 <0>         0.0707
     33 H8         -0.0367   -1.6793    2.0669 H         1 <0>         0.0600
     34 H9         -1.6874   -1.4298    2.6844 H         1 <0>         0.0559
     35 H10        -1.1467   -3.0619    2.2239 H         1 <0>         0.0551
     36 H11        -1.9877    0.3064    0.9918 H         1 <0>         0.0766
     37 H12        -0.4239    0.0216    0.1907 H         1 <0>         0.0871
     38 H13        -3.4125   -2.3007   -1.1268 H         1 <0>         0.4033
     39 H14        -5.9455   -1.4339   -0.2271 H         1 <0>         0.0730
     40 H15        -5.9279   -1.3642   -2.0057 H         1 <0>         0.0716
     41 H16        -5.2569   -3.7498   -2.0925 H         1 <0>         0.0792
     42 H17        -5.2745   -3.8195   -0.3140 H         1 <0>         0.0792
     43 H18        -7.6825   -3.2276   -0.3146 H         1 <0>         0.0868
     44 H19        -7.6649   -3.1580   -2.0931 H         1 <0>         0.0868
     45 H20        -6.9939   -5.5435   -2.1800 H         1 <0>         0.0938
     46 H21        -7.0115   -5.6132   -0.4014 H         1 <0>         0.0938
     47 H22        -9.5269   -4.6767   -1.2803 H         1 <0>         0.4368
     48 H23       -11.2880   -6.2127   -1.3580 H         1 <0>         0.4411
     49 H24        -7.5255   -7.5318   -1.3724 H         1 <0>         0.4401
     50 H25        -8.7994   -8.6258   -1.4279 H         1 <0>         0.4400
     51 H26        -2.5747    2.0596   -1.2722 H         1 <0>         0.4200
     52 H27       -10.9765   -7.8625   -1.4195 H         1 <0>         0.4403
@<TRIPOS>BOND
     1    1    2 1
     2    1   29 1
     3    1   30 1
     4    1   31 1
     5    2    3 1
     6    2    4 1
     7    2   32 1
     8    3   33 1
     9    3   34 1
    10    3   35 1
    11    4    5 1
    12    4   36 1
    13    4   37 1
    14    5    6 1
    15    5    7 1
    16    5   18 1
    17    7    8 2
    18    7    9 am
    19    9   10 1
    20    9   38 1
    21   10   11 1
    22   10   39 1
    23   10   40 1
    24   11   12 1
    25   11   41 1
    26   11   42 1
    27   12   13 1
    28   12   43 1
    29   12   44 1
    30   13   14 1
    31   13   45 1
    32   13   46 1
    33   14   15 1
    34   14   47 1
    35   15   16 2
    36   15   17 1
    37   16   48 1
    38   16   52 1
    39   17   49 1
    40   17   50 1
    41   18   19 am
    42   18   51 1
    43   19   20 2
    44   19   21 1
    45   21   22 1
    46   21   25 1
    47   21   23 1
    48   23   24 1
    49   23   25 1
    50   23   26 1
    51   26   27 2
    52   26   28 1
@<TRIPOS>MOLECULE
ZINC04475165
   52    52     0     0     0
SMALL
USER_CHARGES

@<TRIPOS>ATOM
      1 C1         -0.7600   -2.5948   -0.4137 C.3       1 <0>        -0.1547
      2 C2         -1.6080   -1.7789    0.5642 C.3       1 <0>        -0.1033
      3 C3         -1.1153   -2.0220    1.9922 C.3       1 <0>        -0.1443
      4 C4         -1.4843   -0.2914    0.2283 C.3       1 <0>        -0.1230
      5 C5         -2.1282   -0.0207   -1.1330 C.3       1 <0>         0.1313
      6 H1         -1.6851   -0.6777   -1.8815 H         1 <0>         0.1086
      7 C6         -3.6099   -0.2824   -1.0488 C.2       1 <0>         0.5152
      8 O1         -4.3837    0.6443   -0.9325 O.2       1 <0>        -0.4988
      9 N1         -4.0752   -1.5461   -1.1028 N.am      1 <0>        -0.7389
     10 C7         -5.5187   -1.7948   -1.1283 C.3       1 <0>         0.1185
     11 C8         -5.7756   -3.3018   -1.1894 C.3       1 <0>        -0.1294
     12 C9         -7.2832   -3.5615   -1.2160 C.3       1 <0>        -0.1314
     13 C10        -7.5401   -5.0685   -1.2771 C.3       1 <0>         0.0930
     14 N2         -8.9836   -5.3171   -1.3026 N.pl3     1 <0>        -0.6914
     15 C11        -9.4558   -6.5998   -1.3574 C.cat     1 <0>         0.7403
     16 N3        -10.7683   -6.8258   -1.3806 N.pl3     1 <0>        -0.7969
     17 N4         -8.6032   -7.6226   -1.3874 N.pl3     1 <0>        -0.7943
     18 N5         -1.8996    1.3758   -1.5123 N.am      1 <0>        -0.6857
     19 C12        -0.7853    1.7164   -2.1895 C.2       1 <0>         0.5493
     20 O2         -0.0162    0.8565   -2.5634 O.2       1 <0>        -0.5428
     21 C13        -0.4950    3.1660   -2.4823 C.3       1 <0>        -0.0439
     22 H2         -0.0537    3.7346   -1.6637 H         1 <0>         0.1435
     23 C14        -1.4374    3.9033   -3.4358 C.3       1 <0>        -0.0395
     24 H3         -1.6209    4.9617   -3.2508 H         1 <0>         0.1207
     25 O3         -0.1143    3.5128   -3.8152 O.3       1 <0>        -0.3217
     26 C15        -2.5934    3.1310   -4.0173 C.2       1 <0>         0.5042
     27 O4         -3.4773    2.7151   -3.2876 O.co2     1 <0>        -0.6593
     28 O5         -2.6449    2.9221   -5.2173 O.co2     1 <0>        -0.6715
     29 H4         -0.7698   -3.6433   -0.1159 H         1 <0>         0.0548
     30 H5         -1.1709   -2.4987   -1.4187 H         1 <0>         0.0557
     31 H6          0.2648   -2.2237   -0.4031 H         1 <0>         0.0638
     32 H7         -2.6512   -2.0843    0.4828 H         1 <0>         0.0725
     33 H8         -0.0721   -1.7166    2.0735 H         1 <0>         0.0579
     34 H9         -1.7194   -1.4407    2.6888 H         1 <0>         0.0543
     35 H10        -1.2034   -3.0817    2.2315 H         1 <0>         0.0537
     36 H11        -1.9908    0.2972    0.9932 H         1 <0>         0.0726
     37 H12        -0.4310   -0.0130    0.1938 H         1 <0>         0.0828
     38 H13        -3.4542   -2.2910   -1.1247 H         1 <0>         0.3993
     39 H14        -5.9740   -1.3848   -0.2268 H         1 <0>         0.0696
     40 H15        -5.9543   -1.3161   -2.0054 H         1 <0>         0.0719
     41 H16        -5.3203   -3.7118   -2.0909 H         1 <0>         0.0788
     42 H17        -5.3399   -3.7805   -0.3123 H         1 <0>         0.0771
     43 H18        -7.7385   -3.1515   -0.3146 H         1 <0>         0.0858
     44 H19        -7.7188   -3.0828   -2.0931 H         1 <0>         0.0875
     45 H20        -7.0848   -5.4785   -2.1786 H         1 <0>         0.0942
     46 H21        -7.1044   -5.5472   -0.4000 H         1 <0>         0.0933
     47 H22        -9.6045   -4.5722   -1.2807 H         1 <0>         0.4369
     48 H23       -11.3892   -6.0809   -1.3587 H         1 <0>         0.4409
     49 H24        -7.6475   -7.4580   -1.3705 H         1 <0>         0.4403
     50 H25        -8.9381   -8.5322   -1.4263 H         1 <0>         0.4394
     51 H26        -2.5503    2.0552   -1.2760 H         1 <0>         0.4236
     52 H27       -11.1031   -7.7354   -1.4194 H         1 <0>         0.4397
@<TRIPOS>BOND
     1    1    2 1
     2    1   29 1
     3    1   30 1
     4    1   31 1
     5    2    3 1
     6    2    4 1
     7    2   32 1
     8    3   33 1
     9    3   34 1
    10    3   35 1
    11    4    5 1
    12    4   36 1
    13    4   37 1
    14    5    6 1
    15    5    7 1
    16    5   18 1
    17    7    8 2
    18    7    9 am
    19    9   10 1
    20    9   38 1
    21   10   11 1
    22   10   39 1
    23   10   40 1
    24   11   12 1
    25   11   41 1
    26   11   42 1
    27   12   13 1
    28   12   43 1
    29   12   44 1
    30   13   14 1
    31   13   45 1
    32   13   46 1
    33   14   15 1
    34   14   47 1
    35   15   16 2
    36   15   17 1
    37   16   48 1
    38   16   52 1
    39   17   49 1
    40   17   50 1
    41   18   19 am
    42   18   51 1
    43   19   20 2
    44   19   21 1
    45   21   22 1
    46   21   25 1
    47   21   23 1
    48   23   24 1
    49   23   25 1
    50   23   26 1
    51   26   27 2
    52   26   28 1
@<TRIPOS>MOLECULE
ZINC13676539
   39    38     0     0     0
SMALL
USER_CHARGES
tert-butyl N-[(1S)-1-(cyanomethylcarbamoyl)-2-methyl-propyl]carbamate
@<TRIPOS>ATOM
      1 C1         -1.3219    0.3101    2.1067 C.3       1 <0>        -0.1400
      2 C2         -2.3724    1.2708    1.5461 C.3       1 <0>        -0.1022
      3 C3         -1.9960    2.7080    1.9119 C.3       1 <0>        -0.1512
      4 C4         -2.4310    1.1307    0.0237 C.3       1 <0>         0.1533
      5 H1         -2.6170    0.0892   -0.2384 H         1 <0>         0.1176
      6 C5         -3.5435    1.9913   -0.5175 C.2       1 <0>         0.5229
      7 O1         -3.2912    3.0727   -1.0052 O.2       1 <0>        -0.5185
      8 N1         -4.8188    1.5592   -0.4596 N.am      1 <0>        -0.7257
      9 C6         -5.9103    2.4390   -0.8849 C.3       1 <0>         0.2204
     10 C7         -7.1953    1.7387   -0.7258 C.1       1 <0>         0.1878
     11 N2         -8.1869    1.1983   -0.6030 N.1       1 <0>        -0.3952
     12 N3         -1.1557    1.5598   -0.5556 N.am      1 <0>        -0.6954
     13 C8         -0.1295    0.6907   -0.6445 C.2       1 <0>         0.6564
     14 O2         -0.2621   -0.4489   -0.2441 O.2       1 <0>        -0.5607
     15 O3          1.0408    1.0834   -1.1820 O.3       1 <0>        -0.3614
     16 C9          2.1000    0.0927   -1.2511 C.3       1 <0>         0.1376
     17 C10         1.6351   -1.0926   -2.0996 C.3       1 <0>        -0.1842
     18 C11         3.3431    0.7185   -1.8867 C.3       1 <0>        -0.1428
     19 C12         2.4379   -0.3919    0.1603 C.3       1 <0>        -0.1844
     20 H2         -0.3470    0.5497    1.6820 H         1 <0>         0.0595
     21 H3         -1.2801    0.4099    3.1913 H         1 <0>         0.0541
     22 H4         -1.5900   -0.7138    1.8461 H         1 <0>         0.0651
     23 H5         -3.3473    1.0312    1.9708 H         1 <0>         0.0865
     24 H6         -1.8744    2.7880    2.9922 H         1 <0>         0.0616
     25 H7         -1.0606    2.9750    1.4202 H         1 <0>         0.0606
     26 H8         -2.7850    3.3849    1.5840 H         1 <0>         0.0573
     27 H9         -5.0140    0.6658   -0.1362 H         1 <0>         0.4112
     28 H10        -5.9097    3.3408   -0.2727 H         1 <0>         0.1187
     29 H11        -5.7715    2.7102   -1.9315 H         1 <0>         0.1193
     30 H12        -1.0499    2.4695   -0.8753 H         1 <0>         0.4166
     31 H13         1.3944   -0.7473   -3.1051 H         1 <0>         0.0596
     32 H14         2.4302   -1.8363   -2.1515 H         1 <0>         0.0715
     33 H15         0.7495   -1.5384   -1.6468 H         1 <0>         0.0878
     34 H16         3.6742    1.5629   -1.2821 H         1 <0>         0.0674
     35 H17         4.1382   -0.0252   -1.9385 H         1 <0>         0.0819
     36 H18         3.1023    1.0638   -2.8921 H         1 <0>         0.0673
     37 H19         1.5523   -0.8378    0.6131 H         1 <0>         0.0886
     38 H20         3.2330   -1.1357    0.1084 H         1 <0>         0.0714
     39 H21         2.7691    0.4525    0.7648 H         1 <0>         0.0598
@<TRIPOS>BOND
     1    1    2 1
     2    1   20 1
     3    1   21 1
     4    1   22 1
     5    2    3 1
     6    2    4 1
     7    2   23 1
     8    3   24 1
     9    3   25 1
    10    3   26 1
    11    4    5 1
    12    4    6 1
    13    4   12 1
    14    6    7 2
    15    6    8 am
    16    8    9 1
    17    8   27 1
    18    9   10 1
    19    9   28 1
    20    9   29 1
    21   10   11 3
    22   12   13 am
    23   12   30 1
    24   13   14 2
    25   13   15 1
    26   15   16 1
    27   16   17 1
    28   16   18 1
    29   16   19 1
    30   17   31 1
    31   17   32 1
    32   17   33 1
    33   18   34 1
    34   18   35 1
    35   18   36 1
    36   19   37 1
    37   19   38 1
    38   19   39 1
@<TRIPOS>MOLECULE
ZINC13676543
   42    41     0     0     0
SMALL
USER_CHARGES
tert-butyl N-[(1S)-1-(cyanomethylcarbamoyl)-3-methyl-butyl]carbamate
@<TRIPOS>ATOM
      1 C1         -1.4673    4.0247    2.5303 C.3       1 <0>        -0.1489
      2 C2         -0.6466    3.5220    1.3409 C.3       1 <0>        -0.0923
      3 C3          0.8144    3.9410    1.5159 C.3       1 <0>        -0.1416
      4 C4         -0.7345    1.9962    1.2691 C.3       1 <0>        -0.1266
      5 C5         -0.0184    1.5028    0.0103 C.3       1 <0>         0.1473
      6 H1          1.0042    1.8801    0.0026 H         1 <0>         0.1260
      7 C6          0.0021   -0.0041    0.0020 C.2       1 <0>         0.5205
      8 O1         -0.5235   -0.6127   -0.9059 O.2       1 <0>        -0.5201
      9 N1          0.6044   -0.6754    1.0035 N.am      1 <0>        -0.7251
     10 C7          0.6242   -2.1402    0.9955 C.3       1 <0>         0.2202
     11 C8          1.3362   -2.6278    2.1880 C.1       1 <0>         0.1878
     12 N2          1.8856   -3.0041    3.1084 N.1       1 <0>        -0.3951
     13 N3         -0.7269    1.9881   -1.1766 N.am      1 <0>        -0.6963
     14 C9         -0.4624    3.2164   -1.6640 C.2       1 <0>         0.6551
     15 O2          0.3638    3.9214   -1.1191 O.2       1 <0>        -0.5556
     16 O3         -1.1136    3.6624   -2.7548 O.3       1 <0>        -0.3616
     17 C10        -0.7779    4.9949   -3.2240 C.3       1 <0>         0.1385
     18 C11         0.7087    5.0503   -3.5814 C.3       1 <0>        -0.1839
     19 C12        -1.6130    5.3248   -4.4629 C.3       1 <0>        -0.1430
     20 C13        -1.0759    6.0137   -2.1221 C.3       1 <0>        -0.1842
     21 H2         -1.0737    3.5943    3.4512 H         1 <0>         0.0532
     22 H3         -1.4047    5.1117    2.5815 H         1 <0>         0.0555
     23 H4         -2.5082    3.7262    2.4056 H         1 <0>         0.0511
     24 H5         -1.0402    3.9523    0.4201 H         1 <0>         0.0790
     25 H6          1.3991    3.5829    0.6686 H         1 <0>         0.0729
     26 H7          0.8771    5.0280    1.5671 H         1 <0>         0.0513
     27 H8          1.2080    3.5106    2.4368 H         1 <0>         0.0422
     28 H9         -1.7811    1.6938    1.2338 H         1 <0>         0.0756
     29 H10        -0.2607    1.5631    2.1500 H         1 <0>         0.0796
     30 H11         1.0247   -0.1886    1.7297 H         1 <0>         0.4109
     31 H12        -0.3983   -2.5175    1.0032 H         1 <0>         0.1194
     32 H13         1.1344   -2.4917    0.0987 H         1 <0>         0.1190
     33 H14        -1.3864    1.4253   -1.6116 H         1 <0>         0.4158
     34 H15         0.9210    4.3245   -4.3664 H         1 <0>         0.0594
     35 H16         0.9607    6.0506   -3.9336 H         1 <0>         0.0708
     36 H17         1.3036    4.8154   -2.6988 H         1 <0>         0.0885
     37 H18        -2.6721    5.2853   -4.2082 H         1 <0>         0.0670
     38 H19        -1.3610    6.3250   -4.8151 H         1 <0>         0.0816
     39 H20        -1.4007    4.5989   -5.2479 H         1 <0>         0.0672
     40 H21        -0.4810    5.7788   -1.2395 H         1 <0>         0.0895
     41 H22        -0.8239    7.0140   -2.4743 H         1 <0>         0.0707
     42 H23        -2.1350    5.9743   -1.8675 H         1 <0>         0.0591
@<TRIPOS>BOND
     1    1    2 1
     2    1   21 1
     3    1   22 1
     4    1   23 1
     5    2    3 1
     6    2    4 1
     7    2   24 1
     8    3   25 1
     9    3   26 1
    10    3   27 1
    11    4    5 1
    12    4   28 1
    13    4   29 1
    14    5    6 1
    15    5    7 1
    16    5   13 1
    17    7    8 2
    18    7    9 am
    19    9   10 1
    20    9   30 1
    21   10   11 1
    22   10   31 1
    23   10   32 1
    24   11   12 3
    25   13   14 am
    26   13   33 1
    27   14   15 2
    28   14   16 1
    29   16   17 1
    30   17   18 1
    31   17   19 1
    32   17   20 1
    33   18   34 1
    34   18   35 1
    35   18   36 1
    36   19   37 1
    37   19   38 1
    38   19   39 1
    39   20   40 1
    40   20   41 1
    41   20   42 1
@<TRIPOS>MOLECULE
ZINC13676558
   43    43     0     0     0
SMALL
USER_CHARGES

@<TRIPOS>ATOM
      1 C1         -0.0187    1.5258    0.0104 C.3       1 <0>        -0.1854
      2 C2          0.0021   -0.0041    0.0020 C.3       1 <0>         0.1357
      3 C3          0.7421   -0.5109    1.2415 C.3       1 <0>        -0.1857
      4 C4         -1.4333   -0.5336    0.0129 C.3       1 <0>        -0.1409
      5 O1          0.6709   -0.4649   -1.1737 O.3       1 <0>        -0.3549
      6 C5          1.9522   -0.0848   -1.3367 C.2       1 <0>         0.6620
      7 O2          2.4879    0.6189   -0.5034 O.2       1 <0>        -0.5628
      8 N1          2.6407   -0.4850   -2.4240 N.am      1 <0>        -0.6874
      9 C6          4.0349   -0.0714   -2.6014 C.3       1 <0>         0.1572
     10 H1          4.5261   -0.0235   -1.6295 H         1 <0>         0.1252
     11 C7          4.7587   -1.0856   -3.4893 C.3       1 <0>        -0.0850
     12 C8          4.8240   -2.4152   -2.7829 C.ar      1 <0>        -0.0900
     13 C9          5.8959   -2.7093   -1.9610 C.ar      1 <0>        -0.1126
     14 C10         5.9558   -3.9289   -1.3130 C.ar      1 <0>        -0.1166
     15 C11         4.9437   -4.8542   -1.4866 C.ar      1 <0>        -0.1174
     16 C12         3.8714   -4.5598   -2.3078 C.ar      1 <0>        -0.1160
     17 C13         3.8093   -3.3385   -2.9524 C.ar      1 <0>        -0.1088
     18 C14         4.0770    1.2868   -3.2529 C.2       1 <0>         0.5088
     19 O3          3.0441    1.8536   -3.5408 O.2       1 <0>        -0.5120
     20 N2          5.2624    1.8717   -3.5157 N.am      1 <0>        -0.7293
     21 C15         5.3033    3.1921   -4.1491 C.3       1 <0>         0.2198
     22 C16         6.7042    3.6077   -4.3272 C.1       1 <0>         0.1894
     23 N3          7.7853    3.9283   -4.4647 N.1       1 <0>        -0.3980
     24 H2          1.0039    1.9031    0.0027 H         1 <0>         0.0873
     25 H3         -0.5459    1.8868   -0.8726 H         1 <0>         0.0603
     26 H4         -0.5289    1.8773    0.9072 H         1 <0>         0.0695
     27 H5          0.2319   -0.1594    2.1383 H         1 <0>         0.0702
     28 H6          0.7568   -1.6008    1.2356 H         1 <0>         0.0590
     29 H7          1.7647   -0.1336    1.2338 H         1 <0>         0.0871
     30 H8         -1.9605   -0.1726   -0.8702 H         1 <0>         0.0672
     31 H9         -1.4185   -1.6235    0.0069 H         1 <0>         0.0664
     32 H10        -1.9435   -0.1821    0.9097 H         1 <0>         0.0809
     33 H11         2.2131   -1.0467   -3.0892 H         1 <0>         0.4102
     34 H12         4.2163   -1.1991   -4.4279 H         1 <0>         0.0919
     35 H13         5.7696   -0.7330   -3.6941 H         1 <0>         0.0993
     36 H14         6.6867   -1.9863   -1.8253 H         1 <0>         0.1234
     37 H15         6.7936   -4.1589   -0.6714 H         1 <0>         0.1234
     38 H16         4.9908   -5.8074   -0.9809 H         1 <0>         0.1223
     39 H17         3.0808   -5.2829   -2.4437 H         1 <0>         0.1234
     40 H18         2.9697   -3.1070   -3.5911 H         1 <0>         0.1207
     41 H19         6.0885    1.4185   -3.2854 H         1 <0>         0.4077
     42 H20         4.8121    3.1443   -5.1209 H         1 <0>         0.1176
     43 H21         4.7877    3.9147   -3.5165 H         1 <0>         0.1168
@<TRIPOS>BOND
     1    1    2 1
     2    1   24 1
     3    1   25 1
     4    1   26 1
     5    2    3 1
     6    2    4 1
     7    2    5 1
     8    3   27 1
     9    3   28 1
    10    3   29 1
    11    4   30 1
    12    4   31 1
    13    4   32 1
    14    5    6 1
    15    6    7 2
    16    6    8 am
    17    8    9 1
    18    8   33 1
    19    9   10 1
    20    9   11 1
    21    9   18 1
    22   11   12 1
    23   11   34 1
    24   11   35 1
    25   12   17 ar
    26   12   13 ar
    27   13   14 ar
    28   13   36 1
    29   14   15 ar
    30   14   37 1
    31   15   16 ar
    32   15   38 1
    33   16   17 ar
    34   16   39 1
    35   17   40 1
    36   18   19 2
    37   18   20 am
    38   20   21 1
    39   20   41 1
    40   21   22 1
    41   21   42 1
    42   21   43 1
    43   22   23 3
@<TRIPOS>MOLECULE
ZINC13676556
   40    40     0     0     0
SMALL
USER_CHARGES
tert-butyl N-[(1S)-2-(cyanomethylamino)-2-oxo-1-phenyl-ethyl]carbamate
@<TRIPOS>ATOM
      1 C1          1.3823    5.7710   -4.5960 C.3       1 <0>        -0.1846
      2 C2          2.5649    4.8140   -4.4330 C.3       1 <0>         0.1373
      3 C3          3.7699    5.3565   -5.2041 C.3       1 <0>        -0.1423
      4 C4          2.1861    3.4370   -4.9818 C.3       1 <0>        -0.1839
      5 O1          2.9032    4.6979   -3.0257 O.3       1 <0>        -0.3597
      6 C5          1.9447    4.2318   -2.2031 C.2       1 <0>         0.6590
      7 O2          0.8553    3.9303   -2.6490 O.2       1 <0>        -0.5609
      8 N1          2.1935    4.0996   -0.8852 N.am      1 <0>        -0.6949
      9 C6          1.1505    3.5924    0.0099 C.3       1 <0>         0.1942
     10 H1          0.1767    3.9443   -0.3307 H         1 <0>         0.1303
     11 C7          1.1709    2.0855    0.0021 C.ar      1 <0>        -0.1106
     12 C8         -0.0167    1.3781    0.0096 C.ar      1 <0>        -0.1005
     13 C9          0.0021   -0.0041    0.0020 C.ar      1 <0>        -0.1162
     14 C10         1.2084   -0.6789   -0.0136 C.ar      1 <0>        -0.1089
     15 C11         2.3961    0.0285   -0.0212 C.ar      1 <0>        -0.1173
     16 C12         2.3773    1.4107   -0.0136 C.ar      1 <0>        -0.0952
     17 C13         1.4035    4.0909    1.4094 C.2       1 <0>         0.5275
     18 O3          2.3608    4.8000    1.6367 O.2       1 <0>        -0.5167
     19 N2          0.5660    3.7487    2.4083 N.am      1 <0>        -0.7214
     20 C14         0.8119    4.2334    3.7688 C.3       1 <0>         0.2207
     21 C15        -0.2361    3.7237    4.6682 C.1       1 <0>         0.1879
     22 N3         -1.0448    3.3305    5.3622 N.1       1 <0>        -0.3943
     23 H2          1.6522    6.7520   -4.2050 H         1 <0>         0.0607
     24 H3          1.1284    5.8582   -5.6524 H         1 <0>         0.0721
     25 H4          0.5238    5.3845   -4.0466 H         1 <0>         0.0871
     26 H5          4.6125    4.6748   -5.0880 H         1 <0>         0.0674
     27 H6          3.5160    5.4437   -6.2605 H         1 <0>         0.0822
     28 H7          4.0398    6.3376   -4.8131 H         1 <0>         0.0678
     29 H8          1.3276    3.0505   -4.4325 H         1 <0>         0.0874
     30 H9          1.9322    3.5242   -6.0382 H         1 <0>         0.0717
     31 H10         3.0286    2.7553   -4.8657 H         1 <0>         0.0598
     32 H11         3.0631    4.3402   -0.5292 H         1 <0>         0.4170
     33 H12        -0.9592    1.9054    0.0170 H         1 <0>         0.1268
     34 H13        -0.9258   -0.5567    0.0079 H         1 <0>         0.1270
     35 H14         1.2231   -1.7588   -0.0196 H         1 <0>         0.1249
     36 H15         3.3386   -0.4987   -0.0327 H         1 <0>         0.1255
     37 H16         3.3052    1.9634   -0.0192 H         1 <0>         0.1222
     38 H17        -0.1996    3.1815    2.2265 H         1 <0>         0.4110
     39 H18         1.7857    3.8814    4.1094 H         1 <0>         0.1196
     40 H19         0.7971    5.3232    3.7745 H         1 <0>         0.1203
@<TRIPOS>BOND
     1    1    2 1
     2    1   23 1
     3    1   24 1
     4    1   25 1
     5    2    3 1
     6    2    4 1
     7    2    5 1
     8    3   26 1
     9    3   27 1
    10    3   28 1
    11    4   29 1
    12    4   30 1
    13    4   31 1
    14    5    6 1
    15    6    7 2
    16    6    8 am
    17    8    9 1
    18    8   32 1
    19    9   10 1
    20    9   11 1
    21    9   17 1
    22   11   16 ar
    23   11   12 ar
    24   12   13 ar
    25   12   33 1
    26   13   14 ar
    27   13   34 1
    28   14   15 ar
    29   14   35 1
    30   15   16 ar
    31   15   36 1
    32   16   37 1
    33   17   18 2
    34   17   19 am
    35   19   20 1
    36   19   38 1
    37   20   21 1
    38   20   39 1
    39   20   40 1
    40   21   22 3
@<TRIPOS>MOLECULE
ZINC14210455
   82    84     0     0     0
SMALL
USER_CHARGES
(1S,4S,5R)-N-[(1S)-3-amino-1-(cyclobutylmethyl)-2,3-dioxo-propyl]-3-[(2S)-2-(tert-butylcarbamoylamino)-3,3-dimethyl-butanoyl]-6,6-dimethyl-3-azabicyclo[3.1.0]hexane-4-carboxamide
@<TRIPOS>ATOM
      1 C1          7.5547    3.7597   -5.7148 C.3       1 <0>        -0.1152
      2 C2          6.7695    2.5173   -5.2894 C.3       1 <0>        -0.0741
      3 C3          7.5571    1.3671   -4.6589 C.3       1 <0>        -0.1632
      4 H1          8.6239    1.4864   -4.4697 H         1 <0>         0.1311
      5 C4          6.9948    1.2327   -6.0894 C.3       1 <0>        -0.1680
      6 H2          7.6217    1.2576   -6.9807 H         1 <0>         0.1330
      7 C5          5.9282    0.1204   -5.9955 C.3       1 <0>         0.1486
      8 H3          5.0773    0.3549   -6.6351 H         1 <0>         0.1160
      9 N1          5.5182    0.1148   -4.5719 N.am      1 <0>        -0.5957
     10 C6          6.7800    0.3307   -3.8263 C.3       1 <0>         0.1194
     11 C7          4.2779   -0.0447   -4.0693 C.2       1 <0>         0.5481
     12 O1          3.3273   -0.1336   -4.8173 O.2       1 <0>        -0.5286
     13 C8          4.0721   -0.1127   -2.5780 C.3       1 <0>         0.1656
     14 H4          4.8141    0.5115   -2.0800 H         1 <0>         0.1084
     15 C9          4.2251   -1.5604   -2.1075 C.3       1 <0>        -0.0694
     16 C10         3.2264   -2.4474   -2.8537 C.3       1 <0>        -0.1403
     17 C11         5.6487   -2.0422   -2.3943 C.3       1 <0>        -0.1574
     18 C12         3.9532   -1.6395   -0.6039 C.3       1 <0>        -0.1272
     19 N2          2.7284    0.3687   -2.2480 N.am      1 <0>        -0.7322
     20 C13         2.4755    0.8754   -1.0250 C.2       1 <0>         0.7121
     21 O2          3.3627    0.9332   -0.1956 O.2       1 <0>        -0.5780
     22 N3          1.2393    1.3182   -0.7214 N.am      1 <0>        -0.7387
     23 C14         0.9645    1.8691    0.6079 C.3       1 <0>         0.1880
     24 C15         1.8625    3.0835    0.8524 C.3       1 <0>        -0.1642
     25 C16         1.2467    0.8041    1.6696 C.3       1 <0>        -0.1648
     26 C17        -0.5028    2.2950    0.6902 C.3       1 <0>        -0.1564
     27 C18         6.5198   -1.2120   -6.3772 C.2       1 <0>         0.5210
     28 O3          6.9125   -1.9702   -5.5160 O.2       1 <0>        -0.5174
     29 N4          6.6125   -1.5609   -7.6757 N.am      1 <0>        -0.7115
     30 C19         7.1876   -2.8562   -8.0469 C.3       1 <0>         0.1363
     31 H5          6.9412   -3.5395   -7.3596 H         1 <0>         0.1154
     32 C20         6.6419   -3.2846   -9.4105 C.3       1 <0>        -0.1133
     33 C21         5.1350   -3.5266   -9.3037 C.3       1 <0>        -0.1096
     34 C22         4.7697   -4.9571   -8.8735 C.3       1 <0>        -0.1375
     35 C23         3.6238   -4.8880   -9.8967 C.3       1 <0>        -0.1435
     36 C24         4.4651   -3.8448  -10.6508 C.3       1 <0>        -0.1352
     37 C25         8.6881   -2.7368   -8.1212 C.2       1 <0>         0.3395
     38 O4          9.2060   -1.6464   -8.1588 O.2       1 <0>        -0.4045
     39 C26         9.5331   -3.9648   -8.1483 C.2       1 <0>         0.4836
     40 O5          9.0127   -5.0605   -8.1105 O.2       1 <0>        -0.5030
     41 N5         10.8750   -3.8580   -8.2147 N.am      1 <0>        -0.8271
     42 C27         5.3587    2.7791   -4.7585 C.3       1 <0>        -0.1303
     43 H6          7.3035    4.0133   -6.7447 H         1 <0>         0.0646
     44 H7          7.2968    4.5936   -5.0620 H         1 <0>         0.0667
     45 H8          8.6232    3.5572   -5.6407 H         1 <0>         0.0609
     46 H9          6.5711    0.7236   -2.8312 H         1 <0>         0.0874
     47 H10         7.3449   -0.5990   -3.7579 H         1 <0>         0.1045
     48 H11         3.4201   -2.3911   -3.9248 H         1 <0>         0.0553
     49 H12         3.3354   -3.4789   -2.5185 H         1 <0>         0.0577
     50 H13         2.2123   -2.1042   -2.6493 H         1 <0>         0.0557
     51 H14         6.3625   -1.3722   -1.9151 H         1 <0>         0.0571
     52 H15         5.7770   -3.0508   -2.0015 H         1 <0>         0.0613
     53 H16         5.8207   -2.0468   -3.4706 H         1 <0>         0.0773
     54 H17         2.9390   -1.2963   -0.3995 H         1 <0>         0.0552
     55 H18         4.0622   -2.6709   -0.2687 H         1 <0>         0.0494
     56 H19         4.6646   -1.0076   -0.0723 H         1 <0>         0.0674
     57 H20         2.0206    0.3226   -2.9097 H         1 <0>         0.4036
     58 H21         0.5316    1.2722   -1.3832 H         1 <0>         0.3948
     59 H22         2.9078    2.7801    0.7938 H         1 <0>         0.0809
     60 H23         1.6614    3.8422    0.0961 H         1 <0>         0.0514
     61 H24         1.6580    3.4933    1.8415 H         1 <0>         0.0616
     62 H25         1.0422    1.2140    2.6587 H         1 <0>         0.0615
     63 H26         0.6070   -0.0610    1.4954 H         1 <0>         0.0517
     64 H27         2.2920    0.5008    1.6110 H         1 <0>         0.0817
     65 H28        -0.7038    3.0536   -0.0662 H         1 <0>         0.0615
     66 H29        -1.1425    1.4298    0.5160 H         1 <0>         0.0617
     67 H30        -0.7072    2.7048    1.6793 H         1 <0>         0.0750
     68 H31         6.2984   -0.9545   -8.3646 H         1 <0>         0.4082
     69 H32         6.8328   -2.4988  -10.1414 H         1 <0>         0.0782
     70 H33         7.1359   -4.2032   -9.7272 H         1 <0>         0.0955
     71 H34         4.6215   -2.7530   -8.7327 H         1 <0>         0.0937
     72 H35         5.5322   -5.6956   -9.1211 H         1 <0>         0.0859
     73 H36         4.4291   -5.0289   -7.8406 H         1 <0>         0.0666
     74 H37         2.6963   -4.4876   -9.4872 H         1 <0>         0.0793
     75 H38         3.4761   -5.8141  -10.4521 H         1 <0>         0.0684
     76 H39         3.8786   -3.0186  -11.0528 H         1 <0>         0.0680
     77 H40         5.1443   -4.2792  -11.3844 H         1 <0>         0.0824
     78 H41        11.2910   -2.9823   -8.2450 H         1 <0>         0.4112
     79 H42        11.4248   -4.6570   -8.2324 H         1 <0>         0.4115
     80 H43         5.0653    1.9686   -4.0914 H         1 <0>         0.0673
     81 H44         5.3453    3.7222   -4.2122 H         1 <0>         0.0592
     82 H45         4.6604    2.8330   -5.5937 H         1 <0>         0.0591
@<TRIPOS>BOND
     1    1    2 1
     2    1   43 1
     3    1   44 1
     4    1   45 1
     5    2    5 1
     6    2    3 1
     7    2   42 1
     8    3    4 1
     9    3   10 1
    10    3    5 1
    11    5    6 1
    12    5    7 1
    13    7    8 1
    14    7    9 1
    15    7   27 1
    16    9   10 1
    17    9   11 am
    18   10   46 1
    19   10   47 1
    20   11   12 2
    21   11   13 1
    22   13   14 1
    23   13   15 1
    24   13   19 1
    25   15   16 1
    26   15   17 1
    27   15   18 1
    28   16   48 1
    29   16   49 1
    30   16   50 1
    31   17   51 1
    32   17   52 1
    33   17   53 1
    34   18   54 1
    35   18   55 1
    36   18   56 1
    37   19   20 am
    38   19   57 1
    39   20   21 2
    40   20   22 am
    41   22   23 1
    42   22   58 1
    43   23   24 1
    44   23   25 1
    45   23   26 1
    46   24   59 1
    47   24   60 1
    48   24   61 1
    49   25   62 1
    50   25   63 1
    51   25   64 1
    52   26   65 1
    53   26   66 1
    54   26   67 1
    55   27   28 2
    56   27   29 am
    57   29   30 1
    58   29   68 1
    59   30   31 1
    60   30   32 1
    61   30   37 1
    62   32   33 1
    63   32   69 1
    64   32   70 1
    65   33   36 1
    66   33   34 1
    67   33   71 1
    68   34   35 1
    69   34   72 1
    70   34   73 1
    71   35   36 1
    72   35   74 1
    73   35   75 1
    74   36   76 1
    75   36   77 1
    76   37   38 2
    77   37   39 1
    78   39   40 2
    79   39   41 am
    80   41   78 1
    81   41   79 1
    82   42   80 1
    83   42   81 1
    84   42   82 1
@<TRIPOS>MOLECULE
ZINC14210457
   82    84     0     0     0
SMALL
USER_CHARGES
(1S,4S,5R)-N-[(1R)-3-amino-1-(cyclobutylmethyl)-2,3-dioxo-propyl]-3-[(2S)-2-(tert-butylcarbamoylamino)-3,3-dimethyl-butanoyl]-6,6-dimethyl-3-azabicyclo[3.1.0]hexane-4-carboxamide
@<TRIPOS>ATOM
      1 C1         -5.0761   -0.5653    0.0539 C.3       1 <0>        -0.1271
      2 C2         -4.3227   -0.4623   -1.2738 C.3       1 <0>        -0.0702
      3 C3         -4.0050    0.9399   -1.7972 C.3       1 <0>        -0.1607
      4 H1         -4.1151    1.1544   -2.8603 H         1 <0>         0.1296
      5 C4         -2.8446    0.0732   -1.2569 C.3       1 <0>        -0.1739
      6 H2         -2.0905   -0.3569   -1.9161 H         1 <0>         0.1336
      7 C5         -2.3530    0.8142    0.0052 C.3       1 <0>         0.1486
      8 H3         -2.0697    0.1006    0.7788 H         1 <0>         0.1160
      9 N1         -3.5159    1.6193    0.4459 N.am      1 <0>        -0.5961
     10 C6         -4.1100    2.1250   -0.8134 C.3       1 <0>         0.1165
     11 C7         -3.9377    1.8412    1.7066 C.2       1 <0>         0.5468
     12 O1         -3.3808    1.2977    2.6369 O.2       1 <0>        -0.5274
     13 C8         -5.1013    2.7646    1.9603 C.3       1 <0>         0.1659
     14 H4         -5.8084    2.6936    1.1339 H         1 <0>         0.1087
     15 C9         -4.5946    4.2037    2.0757 C.3       1 <0>        -0.0695
     16 C10        -3.9376    4.6202    0.7583 C.3       1 <0>        -0.1606
     17 C11        -5.7701    5.1357    2.3765 C.3       1 <0>        -0.1269
     18 C12        -3.5695    4.2942    3.2079 C.3       1 <0>        -0.1402
     19 N2         -5.7672    2.3799    3.2072 N.am      1 <0>        -0.7321
     20 C13        -7.0659    2.6849    3.3995 C.2       1 <0>         0.7121
     21 O2         -7.6848    3.2793    2.5381 O.2       1 <0>        -0.5780
     22 N3         -7.6785    2.3309    4.5466 N.am      1 <0>        -0.7387
     23 C14        -9.0901    2.6624    4.7556 C.3       1 <0>         0.1881
     24 C15        -9.9361    2.0013    3.6656 C.3       1 <0>        -0.1642
     25 C16        -9.5362    2.1519    6.1272 C.3       1 <0>        -0.1564
     26 C17        -9.2724    4.1802    4.6923 C.3       1 <0>        -0.1647
     27 C18        -1.1901    1.7116   -0.3318 C.2       1 <0>         0.5196
     28 O3         -1.3728    2.8954   -0.5219 O.2       1 <0>        -0.5184
     29 N4          0.0529    1.1985   -0.4219 N.am      1 <0>        -0.7090
     30 C19         1.1825    2.0698   -0.7554 C.3       1 <0>         0.1367
     31 H5          0.8808    2.7764   -1.3954 H         1 <0>         0.1154
     32 C20         2.2944    1.2392   -1.3995 C.3       1 <0>        -0.1135
     33 C21         1.8045    0.6816   -2.7374 C.3       1 <0>        -0.1057
     34 C22         1.0386   -0.6457   -2.6082 C.3       1 <0>        -0.1394
     35 C23         1.7713   -1.0999   -3.8837 C.3       1 <0>        -0.1419
     36 C24         2.8796   -0.1018   -3.5090 C.3       1 <0>        -0.1367
     37 C25         1.7040    2.7191    0.5006 C.2       1 <0>         0.3364
     38 O4          1.4546    2.2354    1.5788 O.2       1 <0>        -0.4020
     39 C26         2.5277    3.9587    0.4121 C.2       1 <0>         0.4842
     40 O5          2.7782    4.4448   -0.6713 O.2       1 <0>        -0.5042
     41 N5          2.9940    4.5395    1.5354 N.am      1 <0>        -0.8271
     42 C27        -4.6554   -1.5416   -2.3059 C.3       1 <0>        -0.1159
     43 H6         -6.0794   -0.9511   -0.1267 H         1 <0>         0.0612
     44 H7         -4.5423   -1.2401    0.7231 H         1 <0>         0.0597
     45 H8         -5.1432    0.4219    0.5111 H         1 <0>         0.0648
     46 H9         -5.1536    2.3989   -0.6582 H         1 <0>         0.0871
     47 H10        -3.5445    2.9801   -1.1839 H         1 <0>         0.1057
     48 H11        -4.6771    4.5905   -0.0419 H         1 <0>         0.0579
     49 H12        -3.5447    5.6326    0.8524 H         1 <0>         0.0604
     50 H13        -3.1229    3.9344    0.5258 H         1 <0>         0.0800
     51 H14        -6.2382    4.8389    3.3150 H         1 <0>         0.0557
     52 H15        -5.4092    6.1609    2.4587 H         1 <0>         0.0491
     53 H16        -6.5005    5.0712    1.5699 H         1 <0>         0.0671
     54 H17        -2.7320    3.6302    2.9936 H         1 <0>         0.0546
     55 H18        -3.2085    5.3194    3.2901 H         1 <0>         0.0569
     56 H19        -4.0375    3.9974    4.1465 H         1 <0>         0.0560
     57 H20        -5.2735    1.9057    3.8944 H         1 <0>         0.4037
     58 H21        -7.1848    1.8567    5.2338 H         1 <0>         0.3948
     59 H22        -9.8062    0.9200    3.7106 H         1 <0>         0.0514
     60 H23       -10.9863    2.2479    3.8211 H         1 <0>         0.0616
     61 H24        -9.6183    2.3650    2.6884 H         1 <0>         0.0809
     62 H25        -8.9335    2.6229    6.9038 H         1 <0>         0.0616
     63 H26       -10.5865    2.3986    6.2828 H         1 <0>         0.0750
     64 H27        -9.4064    1.0706    6.1723 H         1 <0>         0.0616
     65 H28        -8.9546    4.5439    3.7152 H         1 <0>         0.0818
     66 H29       -10.3226    4.4268    4.8479 H         1 <0>         0.0615
     67 H30        -8.6697    4.6512    5.4689 H         1 <0>         0.0516
     68 H31         0.1991    0.2517   -0.2698 H         1 <0>         0.4078
     69 H32         3.1681    1.8691   -1.5665 H         1 <0>         0.0945
     70 H33         2.5617    0.4149   -0.7383 H         1 <0>         0.0784
     71 H34         1.2882    1.4265   -3.3429 H         1 <0>         0.0962
     72 H35         1.3075   -1.2205   -1.7220 H         1 <0>         0.0807
     73 H36        -0.0389   -0.5422   -2.7360 H         1 <0>         0.0673
     74 H37         1.2450   -0.8431   -4.8030 H         1 <0>         0.0802
     75 H38         2.0940   -2.1408   -3.8574 H         1 <0>         0.0682
     76 H39         3.2862    0.4400   -4.3629 H         1 <0>         0.0697
     77 H40         3.6528   -0.5277   -2.8695 H         1 <0>         0.0819
     78 H41         2.7938    4.1510    2.4013 H         1 <0>         0.4113
     79 H42         3.5299    5.3459    1.4779 H         1 <0>         0.4114
     80 H43        -4.4625   -1.1581   -3.3078 H         1 <0>         0.0610
     81 H44        -4.0343   -2.4192   -2.1269 H         1 <0>         0.0652
     82 H45        -5.7066   -1.8164   -2.2182 H         1 <0>         0.0669
@<TRIPOS>BOND
     1    1    2 1
     2    1   43 1
     3    1   44 1
     4    1   45 1
     5    2    5 1
     6    2    3 1
     7    2   42 1
     8    3    4 1
     9    3   10 1
    10    3    5 1
    11    5    6 1
    12    5    7 1
    13    7    8 1
    14    7    9 1
    15    7   27 1
    16    9   10 1
    17    9   11 am
    18   10   46 1
    19   10   47 1
    20   11   12 2
    21   11   13 1
    22   13   14 1
    23   13   15 1
    24   13   19 1
    25   15   16 1
    26   15   17 1
    27   15   18 1
    28   16   48 1
    29   16   49 1
    30   16   50 1
    31   17   51 1
    32   17   52 1
    33   17   53 1
    34   18   54 1
    35   18   55 1
    36   18   56 1
    37   19   20 am
    38   19   57 1
    39   20   21 2
    40   20   22 am
    41   22   23 1
    42   22   58 1
    43   23   24 1
    44   23   25 1
    45   23   26 1
    46   24   59 1
    47   24   60 1
    48   24   61 1
    49   25   62 1
    50   25   63 1
    51   25   64 1
    52   26   65 1
    53   26   66 1
    54   26   67 1
    55   27   28 2
    56   27   29 am
    57   29   30 1
    58   29   68 1
    59   30   31 1
    60   30   32 1
    61   30   37 1
    62   32   33 1
    63   32   69 1
    64   32   70 1
    65   33   36 1
    66   33   34 1
    67   33   71 1
    68   34   35 1
    69   34   72 1
    70   34   73 1
    71   35   36 1
    72   35   74 1
    73   35   75 1
    74   36   76 1
    75   36   77 1
    76   37   38 2
    77   37   39 1
    78   39   40 2
    79   39   41 am
    80   41   78 1
    81   41   79 1
    82   42   80 1
    83   42   81 1
    84   42   82 1
@<TRIPOS>MOLECULE
ZINC03992480
  102   106     0     0     0
SMALL
USER_CHARGES
(3S,3aS,6aR)-2-[(2S)-2-[[(2S)-2-cyclohexyl-2-(pyrazine-2-carbonylamino)acetyl]amino]-3,3-dimethyl-butanoyl]-N-[(1S)-1-[2-(cyclopropylamino)-2-oxo-acetyl]butyl]-3,3a,4,5,6,6a-hexahydro-1H-cyclopenta[c]pyrrole-3-carboxamide
@<TRIPOS>ATOM
      1 C1          1.7934    1.7727    0.8817 C.3       1 <0>        -0.1487
      2 C2          1.7248    0.5575    1.8089 C.3       1 <0>        -0.1167
      3 C3          0.8624    0.8935    3.0272 C.3       1 <0>        -0.1199
      4 C4          0.7939   -0.3217    3.9543 C.3       1 <0>         0.1239
      5 H1          1.8017   -0.6804    4.2107 H         1 <0>         0.1267
      6 C5          0.0481    0.0467    5.2109 C.2       1 <0>         0.3566
      7 O1         -1.0847   -0.3385    5.3758 O.2       1 <0>        -0.4149
      8 C6          0.7087    0.8865    6.2507 C.2       1 <0>         0.4805
      9 O2          1.8470    1.2735    6.0850 O.2       1 <0>        -0.5039
     10 N1          0.0417    1.2160    7.3746 N.am      1 <0>        -0.7073
     11 C7          0.6908    2.0412    8.3963 C.3       1 <0>        -0.0276
     12 C8          0.5147    1.6244    9.8578 C.3       1 <0>        -0.1399
     13 C9         -0.2119    2.8596    9.3217 C.3       1 <0>        -0.1337
     14 N2          0.0953   -1.4155    3.2748 N.am      1 <0>        -0.7346
     15 C10         0.7740   -2.2418    2.4544 C.2       1 <0>         0.5149
     16 O3          1.9631   -2.0798    2.2786 O.2       1 <0>        -0.5121
     17 C11         0.0555   -3.3671    1.7554 C.3       1 <0>         0.1287
     18 H2         -0.9062   -2.9933    1.3742 H         1 <0>         0.1002
     19 C12        -0.1293   -4.5437    2.7221 C.3       1 <0>        -0.0857
     20 H3         -0.0541   -4.1984    3.7638 H         1 <0>         0.1022
     21 C13        -1.4874   -5.2301    2.4491 C.3       1 <0>        -0.1224
     22 C14        -1.2136   -6.7010    2.8498 C.3       1 <0>        -0.1218
     23 C15         0.2399   -6.9708    2.3654 C.3       1 <0>        -0.1188
     24 C16         0.9220   -5.5938    2.2729 C.3       1 <0>        -0.0914
     25 H4          1.8529   -5.5988    2.8589 H         1 <0>         0.0975
     26 C17         1.1556   -5.2588    0.7871 C.3       1 <0>         0.0946
     27 N3          0.8539   -3.8336    0.6177 N.am      1 <0>        -0.5900
     28 C18         1.2489   -3.0718   -0.4216 C.2       1 <0>         0.5443
     29 O4          0.8644   -1.9252   -0.5136 O.2       1 <0>        -0.5196
     30 C19         2.1684   -3.6446   -1.4692 C.3       1 <0>         0.1503
     31 H5          2.0590   -4.7386   -1.5031 H         1 <0>         0.1031
     32 C20         3.6116   -3.2463   -1.1540 C.3       1 <0>        -0.0620
     33 C21         4.0068   -3.8028    0.2153 C.3       1 <0>        -0.1579
     34 C22         4.5436   -3.8169   -2.2248 C.3       1 <0>        -0.1311
     35 C23         3.7275   -1.7208   -1.1372 C.3       1 <0>        -0.1439
     36 N4          1.7941   -3.1223   -2.7857 N.am      1 <0>        -0.7211
     37 C24         2.0936   -3.8217   -3.8982 C.2       1 <0>         0.5232
     38 O5          2.6731   -4.8834   -3.8094 O.2       1 <0>        -0.5292
     39 C25         1.7086   -3.2844   -5.2525 C.3       1 <0>         0.1352
     40 H6          2.2217   -2.3284   -5.4337 H         1 <0>         0.1161
     41 C26         0.1896   -3.1143   -5.3207 C.3       1 <0>        -0.0896
     42 C27        -0.4858   -4.4691   -5.0987 C.3       1 <0>        -0.1126
     43 C28        -2.0048   -4.2990   -5.1668 C.3       1 <0>        -0.1165
     44 C29        -2.3957   -3.7535   -6.5418 C.3       1 <0>        -0.1204
     45 C30        -1.7203   -2.3987   -6.7638 C.3       1 <0>        -0.1211
     46 C31        -0.2013   -2.5688   -6.6957 C.3       1 <0>        -0.1056
     47 N5          2.1421   -4.2222   -6.2912 N.am      1 <0>        -0.7017
     48 C32         2.3774   -3.7803   -7.5425 C.2       1 <0>         0.5813
     49 O6          2.2300   -2.6039   -7.8092 O.2       1 <0>        -0.5254
     50 C33         2.8157   -4.7287   -8.5929 C.ar      1 <0>         0.0295
     51 C34         3.0542   -4.2746   -9.8896 C.ar      1 <0>         0.1103
     52 N6          3.4495   -5.1232  -10.8214 N.ar      1 <0>        -0.4385
     53 C35         3.6088   -6.4017  -10.5281 C.ar      1 <0>         0.0749
     54 C36         3.3673   -6.8575   -9.2403 C.ar      1 <0>         0.0513
     55 N7          2.9777   -6.0166   -8.3031 N.ar      1 <0>        -0.4104
     56 H7          2.4134    1.5311    0.0058 H         1 <0>         0.0548
     57 H8          2.2373    2.6217    1.4222 H         1 <0>         0.0486
     58 H9          0.7788    2.0389    0.5505 H         1 <0>         0.0488
     59 H10         1.2809   -0.2915    1.2684 H         1 <0>         0.0837
     60 H11         2.7394    0.2912    2.1401 H         1 <0>         0.0656
     61 H12         1.3063    1.7425    3.5677 H         1 <0>         0.0806
     62 H13        -0.1522    1.1597    2.6961 H         1 <0>         0.0676
     63 H14        -0.9900    0.8653    7.5247 H         1 <0>         0.4187
     64 H15         1.5384    2.2490    7.7266 H         1 <0>         0.1597
     65 H16         0.0905    0.6104    9.9013 H         1 <0>         0.1051
     66 H17         1.4921    1.6349   10.3624 H         1 <0>         0.1123
     67 H18         0.1649    3.8912    9.3831 H         1 <0>         0.1132
     68 H19        -1.2367    2.8667    8.9220 H         1 <0>         0.1057
     69 H20        -0.9831   -1.5624    3.4342 H         1 <0>         0.4268
     70 H21        -2.2667   -4.7596    3.0666 H         1 <0>         0.0738
     71 H22        -1.7464   -5.1206    1.3856 H         1 <0>         0.0724
     72 H23        -1.3096   -6.8079    3.9404 H         1 <0>         0.0694
     73 H24        -1.9413   -7.3583    2.3515 H         1 <0>         0.0697
     74 H25         0.7534   -7.6197    3.0902 H         1 <0>         0.0720
     75 H26         0.2132   -7.4667    1.3839 H         1 <0>         0.0731
     76 H27         2.2029   -5.4688    0.5242 H         1 <0>         0.0848
     77 H28         0.4905   -5.8742    0.1635 H         1 <0>         0.0758
     78 H29         5.0444   -3.5164    0.4419 H         1 <0>         0.0604
     79 H30         3.9234   -4.8996    0.2033 H         1 <0>         0.0526
     80 H31         3.3367   -3.3925    0.9851 H         1 <0>         0.0827
     81 H32         5.5812   -3.5305   -1.9982 H         1 <0>         0.0513
     82 H33         4.2594   -3.4167   -3.2092 H         1 <0>         0.0526
     83 H34         4.4602   -4.9137   -2.2368 H         1 <0>         0.0640
     84 H35         4.7651   -1.4344   -0.9106 H         1 <0>         0.0536
     85 H36         3.0574   -1.3106   -0.3673 H         1 <0>         0.0720
     86 H37         3.4433   -1.3206   -2.1216 H         1 <0>         0.0527
     87 H38         1.2686   -2.1593   -2.8663 H         1 <0>         0.4321
     88 H39        -0.1359   -2.4102   -4.5408 H         1 <0>         0.0837
     89 H40        -0.1604   -5.1732   -5.8786 H         1 <0>         0.0660
     90 H41        -0.2047   -4.8614   -4.1102 H         1 <0>         0.0589
     91 H42        -2.4903   -5.2730   -5.0071 H         1 <0>         0.0610
     92 H43        -2.3303   -3.5949   -4.3869 H         1 <0>         0.0615
     93 H44        -2.0702   -4.4577   -7.3217 H         1 <0>         0.0587
     94 H45        -3.4878   -3.6312   -6.5909 H         1 <0>         0.0604
     95 H46        -2.0014   -2.0065   -7.7523 H         1 <0>         0.0622
     96 H47        -2.0457   -1.6946   -5.9839 H         1 <0>         0.0614
     97 H48         0.2843   -1.5948   -6.8553 H         1 <0>         0.0741
     98 H49         0.1242   -3.2729   -7.4756 H         1 <0>         0.0623
     99 H50         2.2756   -5.2871   -6.0498 H         1 <0>         0.4443
    100 H51         2.9200   -3.2304  -10.1304 H         1 <0>         0.1828
    101 H52         3.9283   -7.0938  -11.2931 H         1 <0>         0.1779
    102 H53         3.4985   -7.9034   -9.0053 H         1 <0>         0.1793
@<TRIPOS>BOND
     1    1    2 1
     2    1   56 1
     3    1   57 1
     4    1   58 1
     5    2    3 1
     6    2   59 1
     7    2   60 1
     8    3    4 1
     9    3   61 1
    10    3   62 1
    11    4    5 1
    12    4    6 1
    13    4   14 1
    14    6    7 2
    15    6    8 1
    16    8    9 2
    17    8   10 am
    18   10   11 1
    19   10   63 1
    20   11   13 1
    21   11   12 1
    22   11   64 1
    23   12   13 1
    24   12   65 1
    25   12   66 1
    26   13   67 1
    27   13   68 1
    28   14   15 am
    29   14   69 1
    30   15   16 2
    31   15   17 1
    32   17   18 1
    33   17   27 1
    34   17   19 1
    35   19   20 1
    36   19   24 1
    37   19   21 1
    38   21   22 1
    39   21   70 1
    40   21   71 1
    41   22   23 1
    42   22   72 1
    43   22   73 1
    44   23   24 1
    45   23   74 1
    46   23   75 1
    47   24   25 1
    48   24   26 1
    49   26   27 1
    50   26   76 1
    51   26   77 1
    52   27   28 am
    53   28   29 2
    54   28   30 1
    55   30   31 1
    56   30   32 1
    57   30   36 1
    58   32   33 1
    59   32   34 1
    60   32   35 1
    61   33   78 1
    62   33   79 1
    63   33   80 1
    64   34   81 1
    65   34   82 1
    66   34   83 1
    67   35   84 1
    68   35   85 1
    69   35   86 1
    70   36   37 am
    71   36   87 1
    72   37   38 2
    73   37   39 1
    74   39   40 1
    75   39   41 1
    76   39   47 1
    77   41   46 1
    78   41   42 1
    79   41   88 1
    80   42   43 1
    81   42   89 1
    82   42   90 1
    83   43   44 1
    84   43   91 1
    85   43   92 1
    86   44   45 1
    87   44   93 1
    88   44   94 1
    89   45   46 1
    90   45   95 1
    91   45   96 1
    92   46   97 1
    93   46   98 1
    94   47   48 am
    95   47   99 1
    96   48   49 2
    97   48   50 1
    98   50   55 ar
    99   50   51 ar
   100   51   52 ar
   101   51  100 1
   102   52   53 ar
   103   53   54 ar
   104   53  101 1
   105   54   55 ar
   106   54  102 1
@<TRIPOS>MOLECULE
ZINC03954923
   64    66     0     0     0
SMALL
USER_CHARGES
N-[1-(cyanomethylcarbamoyl)cyclohexyl]-4-(4-propylpiperazin-1-yl)-benzamide
@<TRIPOS>ATOM
      1 C1          0.6709    0.7418    4.5510 C.3       1 <0>        -0.1569
      2 C2         -0.0317    1.3625    3.3419 C.3       1 <0>        -0.1536
      3 C3          0.3496    0.5893    2.0780 C.3       1 <0>        -0.0046
      4 C4          0.1952    0.6266   -0.3386 C.3       1 <0>         0.0026
      5 C5         -0.5854    1.2128   -1.5173 C.3       1 <0>         0.0187
      6 N1         -0.4609    2.6770   -1.5043 N.pl3     1 <0>        -0.4877
      7 C6         -0.9817    3.2358   -0.2488 C.3       1 <0>         0.0258
      8 C7         -0.2010    2.6496    0.9299 C.3       1 <0>        -0.0051
      9 C8         -1.0991    3.2411   -2.6034 C.ar      1 <0>         0.1170
     10 C9         -1.7350    2.4228   -3.5330 C.ar      1 <0>        -0.1716
     11 C10        -2.3723    2.9785   -4.6187 C.ar      1 <0>        -0.0568
     12 C11        -2.3712    4.3654   -4.7935 C.ar      1 <0>        -0.1428
     13 C12        -1.7269    5.1840   -3.8613 C.ar      1 <0>        -0.0288
     14 C13        -1.0959    4.6227   -2.7749 C.ar      1 <0>        -0.1363
     15 C14        -3.0491    4.9640   -5.9590 C.2       1 <0>         0.5549
     16 O1         -3.0477    6.1706   -6.1097 O.2       1 <0>        -0.5086
     17 N2         -3.6699    4.1735   -6.8569 N.am      1 <0>        -0.7213
     18 C15        -4.4333    4.7714   -7.9551 C.3       1 <0>         0.1727
     19 C16        -5.5724    5.6175   -7.3829 C.3       1 <0>        -0.1182
     20 C17        -6.4948    4.7307   -6.5441 C.3       1 <0>        -0.1147
     21 C18        -7.0754    3.6222   -7.4244 C.3       1 <0>        -0.1251
     22 C19        -5.9363    2.7760   -7.9966 C.3       1 <0>        -0.1156
     23 C20        -5.0139    3.6629   -8.8354 C.3       1 <0>        -0.1222
     24 C21        -3.5247    5.6450   -8.7812 C.2       1 <0>         0.5296
     25 O2         -3.9499    6.6693   -9.2719 O.2       1 <0>        -0.5122
     26 N3         -2.2396    5.2879   -8.9747 N.am      1 <0>        -0.7268
     27 C22        -1.3845    6.0809   -9.8613 C.3       1 <0>         0.2177
     28 C23        -0.0378    5.4882   -9.9034 C.1       1 <0>         0.1906
     29 N4          1.0015    5.0308   -9.9359 N.1       1 <0>        -0.4001
     30 H1          1.7504    0.7892    4.4078 H         1 <0>         0.0674
     31 H2          0.3993    1.2926    5.4515 H         1 <0>         0.0778
     32 H3          0.3636   -0.2988    4.6551 H         1 <0>         0.0671
     33 H4          0.2756    2.4031    3.2379 H         1 <0>         0.0885
     34 H5         -1.1112    1.3151    3.4851 H         1 <0>         0.0854
     35 H6          0.0423   -0.4513    2.1820 H         1 <0>         0.1301
     36 H7          1.4291    0.6368    1.9348 H         1 <0>         0.1322
     37 H8          0.0805   -0.4573   -0.3294 H         1 <0>         0.1391
     38 H9          1.2506    0.8797   -0.4395 H         1 <0>         0.1409
     39 H10        -0.1818    0.8218   -2.4513 H         1 <0>         0.1311
     40 H11        -1.6363    0.9364   -1.4310 H         1 <0>         0.0739
     41 H12        -0.8669    4.3197   -0.2580 H         1 <0>         0.1302
     42 H13        -2.0371    2.9827   -0.1483 H         1 <0>         0.0722
     43 H14         0.8498    2.9260    0.8436 H         1 <0>         0.1417
     44 H15        -0.6044    3.0409    1.8638 H         1 <0>         0.1424
     45 H16        -1.7317    1.3511   -3.3997 H         1 <0>         0.1342
     46 H17        -2.8693    2.3434   -5.3371 H         1 <0>         0.1319
     47 H18        -1.7240    6.2559   -3.9939 H         1 <0>         0.1460
     48 H19        -0.5979    5.2546   -2.0544 H         1 <0>         0.1363
     49 H20        -3.6112    3.2087   -6.7760 H         1 <0>         0.4024
     50 H21        -5.1588    6.4073   -6.7557 H         1 <0>         0.0861
     51 H22        -6.1404    6.0624   -8.1999 H         1 <0>         0.0881
     52 H23        -7.3064    5.3335   -6.1365 H         1 <0>         0.0695
     53 H24        -5.9268    4.2858   -5.7271 H         1 <0>         0.0584
     54 H25        -7.6434    4.0670   -8.2415 H         1 <0>         0.0695
     55 H26        -7.7326    2.9903   -6.8269 H         1 <0>         0.0663
     56 H27        -6.3500    1.9863   -8.6238 H         1 <0>         0.0754
     57 H28        -5.3683    2.3312   -7.1796 H         1 <0>         0.0597
     58 H29        -5.5819    4.1078   -9.6524 H         1 <0>         0.0944
     59 H30        -4.2024    3.0601   -9.2430 H         1 <0>         0.0767
     60 H31        -1.8809    4.5057   -8.5269 H         1 <0>         0.4019
     61 H32        -1.8097    6.0885  -10.8649 H         1 <0>         0.1180
     62 H33        -1.3204    7.1023   -9.4862 H         1 <0>         0.1177
     63 N5         -0.3524    1.1792    0.9180 N.4       1 <0>        -0.3985
     64 H34        -1.3505    0.9460    0.9783 H         1 <0>         0.4255
@<TRIPOS>BOND
     1    1    2 1
     2    1   30 1
     3    1   31 1
     4    1   32 1
     5    2    3 1
     6    2   33 1
     7    2   34 1
     8    3   35 1
     9    3   36 1
    10    3   63 1
    11    4    5 1
    12    4   37 1
    13    4   38 1
    14    4   63 1
    15    5    6 1
    16    5   39 1
    17    5   40 1
    18    6    7 1
    19    6    9 1
    20    7    8 1
    21    7   41 1
    22    7   42 1
    23    8   43 1
    24    8   44 1
    25    8   63 1
    26    9   14 ar
    27    9   10 ar
    28   10   11 ar
    29   10   45 1
    30   11   12 ar
    31   11   46 1
    32   12   13 ar
    33   12   15 1
    34   13   14 ar
    35   13   47 1
    36   14   48 1
    37   15   16 2
    38   15   17 am
    39   17   18 1
    40   17   49 1
    41   18   23 1
    42   18   19 1
    43   18   24 1
    44   19   20 1
    45   19   50 1
    46   19   51 1
    47   20   21 1
    48   20   52 1
    49   20   53 1
    50   21   22 1
    51   21   54 1
    52   21   55 1
    53   22   23 1
    54   22   56 1
    55   22   57 1
    56   23   58 1
    57   23   59 1
    58   24   25 2
    59   24   26 am
    60   26   27 1
    61   26   60 1
    62   27   28 1
    63   27   61 1
    64   27   62 1
    65   28   29 3
    66   63   64 1
@<TRIPOS>MOLECULE
ZINC01713558
   26    28     0     0     0
SMALL
USER_CHARGES

@<TRIPOS>ATOM
      1 C1         -0.0167    1.3783    0.0096 C.ar      1 <0>        -0.0786
      2 C2          1.1645    2.1013    0.0022 C.ar      1 <0>        -0.1302
      3 C3          2.3819    1.4487   -0.0130 C.ar      1 <0>        -0.0507
      4 C4          2.4175    0.0556   -0.0203 C.ar      1 <0>        -0.1674
      5 C5          1.2174   -0.6824   -0.0137 C.ar      1 <0>         0.0124
      6 C6          0.0021   -0.0041    0.0020 C.ar      1 <0>        -0.1216
      7 C7          1.2459   -2.1606   -0.0242 C.ar      1 <0>        -0.0753
      8 C8          0.0834   -2.8820   -0.2829 C.ar      1 <0>        -0.0550
      9 C9          0.1128   -4.2626   -0.2908 C.ar      1 <0>        -0.1675
     10 C10         1.2976   -4.9471   -0.0415 C.ar      1 <0>         0.2208
     11 C11         2.4685   -4.2441    0.2176 C.ar      1 <0>        -0.1356
     12 C12         2.4472   -2.8527    0.2265 C.ar      1 <0>        -0.1018
     13 C13         3.6794   -2.0792    0.4971 C.2       1 <0>         0.3713
     14 O1          4.6135   -2.5524    1.1107 O.2       1 <0>        -0.3900
     15 C14         3.7063   -0.6685   -0.0347 C.2       1 <0>         0.3744
     16 O2          4.7259   -0.1578   -0.4505 O.2       1 <0>        -0.3935
     17 N1          1.3109   -6.3422   -0.0511 N.pl3     1 <0>        -0.8695
     18 H1         -0.9623    1.8998    0.0260 H         1 <0>         0.1336
     19 H2          1.1336    3.1809    0.0080 H         1 <0>         0.1347
     20 H3          3.3014    2.0153   -0.0195 H         1 <0>         0.1377
     21 H4         -0.9255   -0.5572    0.0086 H         1 <0>         0.1365
     22 H5         -0.8426   -2.3612   -0.4772 H         1 <0>         0.1380
     23 H6         -0.7926   -4.8160   -0.4921 H         1 <0>         0.1329
     24 H7          3.3891   -4.7746    0.4115 H         1 <0>         0.1376
     25 H8          0.4943   -6.8338   -0.2315 H         1 <0>         0.4035
     26 H9          2.1366   -6.8206    0.1226 H         1 <0>         0.4033
@<TRIPOS>BOND
     1    1    6 ar
     2    1    2 ar
     3    1   18 1
     4    2    3 ar
     5    2   19 1
     6    3    4 ar
     7    3   20 1
     8    4   15 1
     9    4    5 ar
    10    5    6 ar
    11    5    7 1
    12    6   21 1
    13    7   12 ar
    14    7    8 ar
    15    8    9 ar
    16    8   22 1
    17    9   10 ar
    18    9   23 1
    19   10   11 ar
    20   10   17 1
    21   11   12 ar
    22   11   24 1
    23   12   13 1
    24   13   14 2
    25   13   15 1
    26   15   16 2
    27   17   25 1
    28   17   26 1
@<TRIPOS>MOLECULE
ZINC03993799
   64    67     0     0     0
SMALL
USER_CHARGES

@<TRIPOS>ATOM
      1 C1          0.3588    1.5422    3.0477 C.3       1 <0>        -0.0409
      2 C2          0.1282    1.3994    0.6412 C.3       1 <0>         0.0069
      3 C3         -0.7343    1.8372   -0.5450 C.3       1 <0>         0.0157
      4 N1         -0.7321    3.3041   -0.6339 N.pl3     1 <0>        -0.4241
      5 C4         -1.2592    3.9043    0.5997 C.3       1 <0>         0.0274
      6 C5         -0.3967    3.4665    1.7858 C.3       1 <0>         0.0030
      7 C6         -1.4456    3.7354   -1.7399 C.2       1 <0>         0.2630
      8 N2         -1.6714    4.9663   -2.1588 N.2       1 <0>        -0.4906
      9 C7         -2.3876    5.1997   -3.2573 C.2       1 <0>         0.1069
     10 C8         -2.8958    4.1422   -3.9604 C.2       1 <0>        -0.1698
     11 S1         -2.2968    2.7717   -2.9811 S.3       1 <0>         0.0112
     12 C9         -2.6303    6.5876   -3.7123 C.ar      1 <0>        -0.0065
     13 C10        -2.0260    7.6560   -3.0464 C.ar      1 <0>        -0.0909
     14 C11        -2.2456    8.9409   -3.4706 C.ar      1 <0>        -0.0874
     15 C12        -3.0840    9.1823   -4.5630 C.ar      1 <0>        -0.1238
     16 C13        -3.6930    8.1125   -5.2256 C.ar      1 <0>        -0.0534
     17 C14        -3.4678    6.8278   -4.8036 C.ar      1 <0>        -0.1078
     18 C15        -3.3262   10.5658   -5.0163 C.2       1 <0>         0.5552
     19 O1         -4.0557   10.7753   -5.9662 O.2       1 <0>        -0.5089
     20 N3         -2.7389   11.5969   -4.3773 N.am      1 <0>        -0.7217
     21 C16        -2.8927   12.9602   -4.8909 C.3       1 <0>         0.1723
     22 C17        -2.3095   13.0420   -6.3030 C.3       1 <0>        -0.1180
     23 C18        -0.8244   12.6764   -6.2635 C.3       1 <0>        -0.1160
     24 C19        -0.0830   13.6529   -5.3482 C.3       1 <0>        -0.1244
     25 C20        -0.6661   13.5711   -3.9360 C.3       1 <0>        -0.1162
     26 C21        -2.1513   13.9367   -3.9756 C.3       1 <0>        -0.1212
     27 C22        -4.3555   13.3203   -4.9299 C.2       1 <0>         0.5304
     28 O2         -4.7848   14.0174   -5.8247 O.2       1 <0>        -0.5132
     29 N4         -5.1867   12.8677   -3.9703 N.am      1 <0>        -0.7271
     30 C23        -6.5860   13.3010   -3.9492 C.3       1 <0>         0.2175
     31 C24        -7.2777   12.6710   -2.8128 C.1       1 <0>         0.1923
     32 N5         -7.8114   12.1848   -1.9358 N.1       1 <0>        -0.4024
     33 H1          1.4050    1.8280    2.9389 H         1 <0>         0.1264
     34 H2         -0.0517    2.0015    3.9469 H         1 <0>         0.1253
     35 H3          0.2848    0.4576    3.1275 H         1 <0>         0.1251
     36 H4          0.1047    0.3130    0.7265 H         1 <0>         0.1468
     37 H5          1.1552    1.7298    0.4856 H         1 <0>         0.1463
     38 H6         -0.3280    1.4166   -1.4648 H         1 <0>         0.1365
     39 H7         -1.7551    1.4827   -0.4028 H         1 <0>         0.0830
     40 H8         -1.2356    4.9907    0.5143 H         1 <0>         0.1403
     41 H9         -2.2862    3.5739    0.7548 H         1 <0>         0.0772
     42 H10         0.6242    3.8207    1.6434 H         1 <0>         0.1454
     43 H11        -0.8027    3.8875    2.7056 H         1 <0>         0.1450
     44 H12        -3.4911    4.1366   -4.8615 H         1 <0>         0.2090
     45 H13        -1.3822    7.4696   -2.1996 H         1 <0>         0.1373
     46 H14        -1.7747    9.7668   -2.9582 H         1 <0>         0.1297
     47 H15        -4.3405    8.2981   -6.0698 H         1 <0>         0.1446
     48 H16        -3.9385    6.0012   -5.3151 H         1 <0>         0.1340
     49 H17        -2.2143   11.4362   -3.5773 H         1 <0>         0.4032
     50 H18        -2.8377   12.3464   -6.9551 H         1 <0>         0.0864
     51 H19        -2.4239   14.0564   -6.6852 H         1 <0>         0.0872
     52 H20        -0.4089   12.7347   -7.2695 H         1 <0>         0.0695
     53 H21        -0.7099   11.6621   -5.8813 H         1 <0>         0.0603
     54 H22        -0.1974   14.6673   -5.7303 H         1 <0>         0.0685
     55 H23         0.9751   13.3924   -5.3200 H         1 <0>         0.0663
     56 H24        -0.1379   14.2667   -3.2840 H         1 <0>         0.0745
     57 H25        -0.5517   12.5567   -3.5539 H         1 <0>         0.0610
     58 H26        -2.2657   14.9511   -4.3577 H         1 <0>         0.0935
     59 H27        -2.5667   13.8784   -2.9696 H         1 <0>         0.0760
     60 H28        -4.8584   12.2551   -3.2937 H         1 <0>         0.4023
     61 H29        -6.6291   14.3851   -3.8451 H         1 <0>         0.1176
     62 H30        -7.0718   13.0057   -4.8792 H         1 <0>         0.1177
     63 N6         -0.4251    1.9914    1.8772 N.4       1 <0>        -0.4027
     64 H31        -1.3979    1.6825    1.9888 H         1 <0>         0.4291
@<TRIPOS>BOND
     1    1   33 1
     2    1   34 1
     3    1   35 1
     4    1   63 1
     5    2    3 1
     6    2   36 1
     7    2   37 1
     8    2   63 1
     9    3    4 1
    10    3   38 1
    11    3   39 1
    12    4    5 1
    13    4    7 1
    14    5    6 1
    15    5   40 1
    16    5   41 1
    17    6   42 1
    18    6   43 1
    19    6   63 1
    20    7   11 1
    21    7    8 2
    22    8    9 1
    23    9   10 2
    24    9   12 1
    25   10   11 1
    26   10   44 1
    27   12   17 ar
    28   12   13 ar
    29   13   14 ar
    30   13   45 1
    31   14   15 ar
    32   14   46 1
    33   15   16 ar
    34   15   18 1
    35   16   17 ar
    36   16   47 1
    37   17   48 1
    38   18   19 2
    39   18   20 am
    40   20   21 1
    41   20   49 1
    42   21   26 1
    43   21   22 1
    44   21   27 1
    45   22   23 1
    46   22   50 1
    47   22   51 1
    48   23   24 1
    49   23   52 1
    50   23   53 1
    51   24   25 1
    52   24   54 1
    53   24   55 1
    54   25   26 1
    55   25   56 1
    56   25   57 1
    57   26   58 1
    58   26   59 1
    59   27   28 2
    60   27   29 am
    61   29   30 1
    62   29   60 1
    63   30   31 1
    64   30   61 1
    65   30   62 1
    66   31   32 3
    67   63   64 1
@<TRIPOS>MOLECULE
ZINC42893657
   63    65     0     0     0
SMALL
USER_CHARGES

@<TRIPOS>ATOM
      1 C1         -4.4994   -0.3437   -1.3388 C.3       1 <0>        -0.1751
      2 C2         -3.0726   -0.5433   -0.8238 C.3       1 <0>         0.1260
      3 C3         -2.6789    0.6420    0.0600 C.3       1 <0>        -0.1867
      4 C4         -3.0015   -1.8347   -0.0064 C.3       1 <0>        -0.1255
      5 C5         -1.5602   -2.0709    0.4496 C.3       1 <0>         0.0604
      6 H1         -1.1975   -1.1896    0.9786 H         1 <0>         0.1227
      7 C6         -1.5135   -3.2637    1.3695 C.2       1 <0>         0.4845
      8 O1         -0.8391   -4.2285    1.0776 O.2       1 <0>        -0.5144
      9 N1         -2.2211   -3.2582    2.5165 N.am      1 <0>        -0.6882
     10 C7         -2.1757   -4.4177    3.4108 C.3       1 <0>         0.1785
     11 C8         -3.4491   -5.2547    3.5476 C.3       1 <0>        -0.1517
     12 C9         -3.0009   -4.3503    4.6974 C.3       1 <0>        -0.1432
     13 C10        -0.8868   -5.1264    3.4664 C.1       1 <0>         0.2362
     14 N2          0.1080   -5.6734    3.5093 N.1       1 <0>        -0.3937
     15 N3         -0.7109   -2.3227   -0.7223 N.3       1 <0>        -0.6297
     16 C11         0.7051   -2.0941   -0.4051 C.3       1 <0>         0.0922
     17 H2          0.8833   -2.3215    0.6460 H         1 <0>         0.0964
     18 C12         1.5629   -2.9866   -1.2646 C.ar      1 <0>        -0.0992
     19 C13         1.2358   -3.1841   -2.5940 C.ar      1 <0>        -0.0846
     20 C14         2.0179   -4.0004   -3.3857 C.ar      1 <0>        -0.1027
     21 C15         3.1387   -4.6261   -2.8436 C.ar      1 <0>        -0.0478
     22 C16         3.4634   -4.4235   -1.5038 C.ar      1 <0>        -0.1020
     23 C17         2.6775   -3.6007   -0.7227 C.ar      1 <0>        -0.0846
     24 C18         3.9830   -5.5052   -3.6898 C.ar      1 <0>         0.0118
     25 C19         3.6612   -5.7035   -5.0310 C.ar      1 <0>        -0.1313
     26 C20         4.4503   -6.5219   -5.8136 C.ar      1 <0>        -0.0196
     27 C21         5.5585   -7.1450   -5.2688 C.ar      1 <0>        -0.6619
     28 C22         5.8823   -6.9521   -3.9379 C.ar      1 <0>        -0.0196
     29 C23         5.1038   -6.1309   -3.1477 C.ar      1 <0>        -0.1320
     30 S1          6.5611   -8.1889   -6.2736 S.o2      1 <0>         2.5001
     31 O2          7.1638   -9.0985   -5.3632 O.2       1 <0>        -0.9370
     32 O3          5.6894   -8.6560   -7.2939 O.2       1 <0>        -0.9369
     33 C24         7.8176   -7.0882   -6.9809 C.3       1 <0>        -0.6502
     34 C25         1.0589   -0.6307   -0.6773 C.3       1 <0>         0.4627
     35 F1          0.3499    0.1923    0.2044 F         1 <0>        -0.1840
     36 F2          2.4322   -0.4404   -0.4905 F         1 <0>        -0.1812
     37 F3          0.7180   -0.3058   -1.9946 F         1 <0>        -0.1617
     38 F4         -2.1931   -0.6288   -1.9083 F         1 <0>        -0.1851
     39 H3         -4.5501    0.5764   -1.9211 H         1 <0>         0.0698
     40 H4         -4.7799   -1.1881   -1.9684 H         1 <0>         0.0676
     41 H5         -5.1848   -0.2771   -0.4938 H         1 <0>         0.0723
     42 H6         -3.3934    0.7388    0.8775 H         1 <0>         0.0718
     43 H7         -1.6814    0.4762    0.4670 H         1 <0>         0.0746
     44 H8         -2.6815    1.5554   -0.5348 H         1 <0>         0.0700
     45 H9         -3.6491   -1.7487    0.8661 H         1 <0>         0.0913
     46 H10        -3.3299   -2.6725   -0.6215 H         1 <0>         0.0878
     47 H11        -2.7605   -2.4865    2.7499 H         1 <0>         0.4149
     48 H12        -4.3207   -4.9426    2.9722 H         1 <0>         0.1190
     49 H13        -3.3327   -6.3305    3.6786 H         1 <0>         0.1126
     50 H14        -2.5896   -4.8311    5.5849 H         1 <0>         0.1170
     51 H15        -3.5776   -3.4433    4.8785 H         1 <0>         0.1209
     52 H16        -0.8554   -3.2551   -1.0799 H         1 <0>         0.3735
     53 H17         0.3667   -2.6990   -3.0131 H         1 <0>         0.1424
     54 H18         1.7614   -4.1543   -4.4235 H         1 <0>         0.1330
     55 H19         4.3308   -4.9063   -1.0785 H         1 <0>         0.1317
     56 H20         2.9310   -3.4392    0.3147 H         1 <0>         0.1268
     57 H21         2.7958   -5.2180   -5.4572 H         1 <0>         0.1374
     58 H22         4.2018   -6.6763   -6.8532 H         1 <0>         0.1454
     59 H23         6.7485   -7.4413   -3.5175 H         1 <0>         0.1451
     60 H24         5.3600   -5.9773   -2.1098 H         1 <0>         0.1364
     61 H25         8.3928   -6.6293   -6.1767 H         1 <0>         0.1316
     62 H26         8.4851   -7.6635   -7.6224 H         1 <0>         0.1337
     63 H27         7.3300   -6.3104   -7.5685 H         1 <0>         0.1318
@<TRIPOS>BOND
     1    1    2 1
     2    1   39 1
     3    1   40 1
     4    1   41 1
     5    2    3 1
     6    2    4 1
     7    2   38 1
     8    3   42 1
     9    3   43 1
    10    3   44 1
    11    4    5 1
    12    4   45 1
    13    4   46 1
    14    5    6 1
    15    5    7 1
    16    5   15 1
    17    7    8 2
    18    7    9 am
    19    9   10 1
    20    9   47 1
    21   10   12 1
    22   10   11 1
    23   10   13 1
    24   11   12 1
    25   11   48 1
    26   11   49 1
    27   12   50 1
    28   12   51 1
    29   13   14 3
    30   15   16 1
    31   15   52 1
    32   16   17 1
    33   16   18 1
    34   16   34 1
    35   18   23 ar
    36   18   19 ar
    37   19   20 ar
    38   19   53 1
    39   20   21 ar
    40   20   54 1
    41   21   22 ar
    42   21   24 1
    43   22   23 ar
    44   22   55 1
    45   23   56 1
    46   24   29 ar
    47   24   25 ar
    48   25   26 ar
    49   25   57 1
    50   26   27 ar
    51   26   58 1
    52   27   28 ar
    53   27   30 1
    54   28   29 ar
    55   28   59 1
    56   29   60 1
    57   30   31 2
    58   30   32 2
    59   30   33 1
    60   33   61 1
    61   33   62 1
    62   33   63 1
    63   34   35 1
    64   34   36 1
    65   34   37 1
@<TRIPOS>MOLECULE
ZINC13862833
   40    42     0     0     0
SMALL
USER_CHARGES
N-(9,10-dioxo-2-phenanthryl)-2,2-dimethyl-propanamide
@<TRIPOS>ATOM
      1 C1         -6.2951    7.3351   -1.3946 C.3       1 <0>        -0.1316
      2 C2         -6.3821    6.0947   -0.5032 C.3       1 <0>        -0.0831
      3 C3         -7.5592    5.2261   -0.9514 C.3       1 <0>        -0.1437
      4 C4         -6.5899    6.5247    0.9503 C.3       1 <0>        -0.1438
      5 C5         -5.1035    5.3048   -0.6155 C.2       1 <0>         0.5209
      6 O1         -4.2107    5.6956   -1.3374 O.2       1 <0>        -0.5070
      7 N1         -4.9523    4.1642    0.0863 N.am      1 <0>        -0.6735
      8 C6         -3.7277    3.4899    0.0689 C.ar      1 <0>         0.1494
      9 C7         -3.6990    2.1019    0.1464 C.ar      1 <0>        -0.1121
     10 C8         -2.4972    1.4214    0.1308 C.ar      1 <0>        -0.0865
     11 C9         -1.2991    2.1234    0.0421 C.ar      1 <0>        -0.0268
     12 C10        -1.3269    3.5303   -0.0417 C.ar      1 <0>        -0.1331
     13 C11        -2.5422    4.2083   -0.0253 C.ar      1 <0>        -0.0591
     14 C12        -0.0493    4.2701   -0.1412 C.2       1 <0>         0.3700
     15 O2          0.0130    5.3834   -0.6203 O.2       1 <0>        -0.3824
     16 C13         1.1708    3.5592    0.3882 C.2       1 <0>         0.3740
     17 O3          2.0731    4.1552    0.9394 O.2       1 <0>        -0.3904
     18 C14         1.2028    2.0936    0.1967 C.ar      1 <0>        -0.1589
     19 C15        -0.0103    1.3987    0.0227 C.ar      1 <0>        -0.0018
     20 C16         0.0164    0.0196   -0.1623 C.ar      1 <0>        -0.1137
     21 C17         1.2247   -0.6524   -0.1709 C.ar      1 <0>        -0.0810
     22 C18         2.4156    0.0326    0.0029 C.ar      1 <0>        -0.1230
     23 C19         2.4125    1.4018    0.1864 C.ar      1 <0>        -0.0526
     24 H1         -6.1471    7.0287   -2.4302 H         1 <0>         0.0645
     25 H2         -7.2199    7.9064   -1.3134 H         1 <0>         0.0668
     26 H3         -5.4565    7.9539   -1.0754 H         1 <0>         0.0647
     27 H4         -7.6211    4.3423   -0.3163 H         1 <0>         0.0597
     28 H5         -8.4839    5.7974   -0.8702 H         1 <0>         0.0744
     29 H6         -7.4111    4.9197   -1.9869 H         1 <0>         0.0639
     30 H7         -5.7513    7.1435    1.2696 H         1 <0>         0.0637
     31 H8         -7.5146    7.0960    1.0315 H         1 <0>         0.0745
     32 H9         -6.6518    5.6410    1.5854 H         1 <0>         0.0605
     33 H10        -5.6930    3.8111    0.6035 H         1 <0>         0.4143
     34 H11        -4.6250    1.5508    0.2190 H         1 <0>         0.1391
     35 H12        -2.4871    0.3431    0.1909 H         1 <0>         0.1435
     36 H13        -2.5636    5.2864   -0.0859 H         1 <0>         0.1505
     37 H14        -0.9060   -0.5253   -0.2993 H         1 <0>         0.1381
     38 H15         1.2399   -1.7227   -0.3151 H         1 <0>         0.1354
     39 H16         3.3515   -0.5063   -0.0054 H         1 <0>         0.1365
     40 H17         3.3429    1.9335    0.3209 H         1 <0>         0.1396
@<TRIPOS>BOND
     1    1    2 1
     2    1   24 1
     3    1   25 1
     4    1   26 1
     5    2    3 1
     6    2    4 1
     7    2    5 1
     8    3   27 1
     9    3   28 1
    10    3   29 1
    11    4   30 1
    12    4   31 1
    13    4   32 1
    14    5    6 2
    15    5    7 am
    16    7    8 1
    17    7   33 1
    18    8   13 ar
    19    8    9 ar
    20    9   10 ar
    21    9   34 1
    22   10   11 ar
    23   10   35 1
    24   11   19 1
    25   11   12 ar
    26   12   13 ar
    27   12   14 1
    28   13   36 1
    29   14   15 2
    30   14   16 1
    31   16   17 2
    32   16   18 1
    33   18   23 ar
    34   18   19 ar
    35   19   20 ar
    36   20   21 ar
    37   20   37 1
    38   21   22 ar
    39   21   38 1
    40   22   23 ar
    41   22   39 1
    42   23   40 1
@<TRIPOS>MOLECULE
ZINC43075785
   52    53     0     0     0
SMALL
USER_CHARGES

@<TRIPOS>ATOM
      1 C1         -1.6377   -2.7401   -2.3318 C.3       1 <0>        -0.1371
      2 C2         -1.3281   -1.2474   -2.4615 C.3       1 <0>         0.0168
      3 C3         -1.7609   -0.7551   -3.8440 C.3       1 <0>        -0.1389
      4 C4         -2.0888   -0.4732   -1.3832 C.3       1 <0>        -0.1361
      5 C5          0.1524   -1.0246   -2.2897 C.2       1 <0>         0.0415
      6 C6          1.1417   -1.3080   -3.2341 C.2       1 <0>        -0.1770
      7 C7          2.3349   -0.9403   -2.6368 C.2       1 <0>        -0.0387
      8 N1          2.0112   -0.4672   -1.3969 N.pl3     1 <0>        -0.2547
      9 N2          0.7389   -0.5260   -1.2314 N.2       1 <0>        -0.2658
     10 C8          2.9688    0.0358   -0.4088 C.3       1 <0>         0.0842
     11 C9          3.6822   -1.0399   -3.2202 C.2       1 <0>         0.6068
     12 O1          4.6385   -0.5825   -2.6238 O.2       1 <0>        -0.5331
     13 N3          3.8565   -1.6379   -4.4154 N.am      1 <0>        -0.6935
     14 C10         5.2079   -1.8363   -4.9451 C.3       1 <0>         0.1416
     15 H1          5.8932   -2.0449   -4.1235 H         1 <0>         0.1244
     16 C11         5.2058   -3.0159   -5.9194 C.3       1 <0>        -0.0855
     17 C12         4.8802   -4.2837   -5.1726 C.ar      1 <0>        -0.0765
     18 C13         5.8962   -5.0379   -4.6152 C.ar      1 <0>        -0.1086
     19 C14         5.5984   -6.2008   -3.9301 C.ar      1 <0>        -0.1018
     20 C15         4.2844   -6.6108   -3.8023 C.ar      1 <0>        -0.1090
     21 C16         3.2675   -5.8567   -4.3597 C.ar      1 <0>        -0.0298
     22 C17         3.5658   -4.6893   -5.0402 C.ar      1 <0>        -0.1016
     23 Cl1         1.6172   -6.3709   -4.1995 Cl        1 <0>        -0.0635
     24 C18         5.6528   -0.5900   -5.6661 C.2       1 <0>         0.5103
     25 O2          4.9138    0.3694   -5.7311 O.2       1 <0>        -0.5099
     26 N4          6.8720   -0.5416   -6.2386 N.am      1 <0>        -0.7295
     27 C19         7.3044    0.6700   -6.9396 C.3       1 <0>         0.2198
     28 C20         8.6623    0.4707   -7.4718 C.1       1 <0>         0.1890
     29 N5          9.7102    0.3169   -7.8825 N.1       1 <0>        -0.3975
     30 H2         -1.0957   -3.2917   -3.1000 H         1 <0>         0.0581
     31 H3         -1.3293   -3.0909   -1.3469 H         1 <0>         0.0559
     32 H4         -2.7085   -2.9012   -2.4560 H         1 <0>         0.0630
     33 H5         -2.8317   -0.9162   -3.9682 H         1 <0>         0.0638
     34 H6         -1.5403    0.3084   -3.9364 H         1 <0>         0.0574
     35 H7         -1.2189   -1.3067   -4.6122 H         1 <0>         0.0585
     36 H8         -1.7805   -0.8239   -0.3983 H         1 <0>         0.0606
     37 H9         -1.8683    0.5903   -1.4757 H         1 <0>         0.0559
     38 H10        -3.1597   -0.6343   -1.5075 H         1 <0>         0.0579
     39 H11         1.0048   -1.7257   -4.2206 H         1 <0>         0.1565
     40 H12         3.0569    1.1178   -0.5063 H         1 <0>         0.0855
     41 H13         2.6199   -0.2114    0.5939 H         1 <0>         0.0930
     42 H14         3.9420   -0.4248   -0.5787 H         1 <0>         0.1100
     43 H15         3.0872   -1.9370   -4.9249 H         1 <0>         0.4082
     44 H16         4.4563   -2.8471   -6.6927 H         1 <0>         0.0945
     45 H17         6.1891   -3.1081   -6.3805 H         1 <0>         0.1021
     46 H18         6.9230   -4.7183   -4.7155 H         1 <0>         0.1311
     47 H19         6.3924   -6.7894   -3.4949 H         1 <0>         0.1344
     48 H20         4.0519   -7.5199   -3.2675 H         1 <0>         0.1342
     49 H21         2.7719   -4.0979   -5.4718 H         1 <0>         0.1313
     50 H22         7.4630   -1.3089   -6.1866 H         1 <0>         0.4074
     51 H23         6.6192    0.8786   -7.7612 H         1 <0>         0.1177
     52 H24         7.3060    1.5104   -6.2454 H         1 <0>         0.1168
@<TRIPOS>BOND
     1    1    2 1
     2    1   30 1
     3    1   31 1
     4    1   32 1
     5    2    3 1
     6    2    4 1
     7    2    5 1
     8    3   33 1
     9    3   34 1
    10    3   35 1
    11    4   36 1
    12    4   37 1
    13    4   38 1
    14    5    9 2
    15    5    6 1
    16    6    7 2
    17    6   39 1
    18    7    8 1
    19    7   11 1
    20    8    9 1
    21    8   10 1
    22   10   40 1
    23   10   41 1
    24   10   42 1
    25   11   12 2
    26   11   13 am
    27   13   14 1
    28   13   43 1
    29   14   15 1
    30   14   16 1
    31   14   24 1
    32   16   17 1
    33   16   44 1
    34   16   45 1
    35   17   22 ar
    36   17   18 ar
    37   18   19 ar
    38   18   46 1
    39   19   20 ar
    40   19   47 1
    41   20   21 ar
    42   20   48 1
    43   21   22 ar
    44   21   23 1
    45   22   49 1
    46   24   25 2
    47   24   26 am
    48   26   27 1
    49   26   50 1
    50   27   28 1
    51   27   51 1
    52   27   52 1
    53   28   29 3
@<TRIPOS>MOLECULE
ZINC36379291
   32    34     0     0     0
SMALL
USER_CHARGES

@<TRIPOS>ATOM
      1 C1          0.2878    0.9295    0.1333 C.3       1 <0>        -0.1722
      2 C2          0.1896   -0.5791   -0.1024 C.3       1 <0>         0.1039
      3 N1         -1.2171   -0.9872   -0.0741 N.pl3     1 <0>        -0.4641
      4 C3         -1.8950   -1.4700    1.0041 C.2       1 <0>         0.2769
      5 N2         -3.1277   -1.7321    0.6754 N.2       1 <0>        -0.4645
      6 C4         -3.3196   -1.4356   -0.6301 C.ar      1 <0>        -0.0696
      7 C5         -2.0962   -0.9478   -1.1282 C.ar      1 <0>         0.3016
      8 N3         -2.0174   -0.5773   -2.3983 N.ar      1 <0>        -0.5018
      9 C6         -3.0751   -0.6605   -3.1921 C.ar      1 <0>         0.4627
     10 N4         -4.2500   -1.1115   -2.7641 N.ar      1 <0>        -0.5421
     11 C7         -4.4155   -1.5107   -1.5099 C.ar      1 <0>         0.5044
     12 N5         -5.6437   -1.9782   -1.0722 N.pl3     1 <0>        -0.6278
     13 C8         -6.6871   -2.1611   -1.9840 C.ar      1 <0>         0.2135
     14 C9         -6.4125   -2.5724   -3.2818 C.ar      1 <0>        -0.1634
     15 C10        -7.4468   -2.7533   -4.1824 C.ar      1 <0>         0.1557
     16 C11        -8.7552   -2.5241   -3.7910 C.ar      1 <0>        -0.2069
     17 C12        -9.0313   -2.1140   -2.4974 C.ar      1 <0>         0.1557
     18 C13        -8.0005   -1.9374   -1.5918 C.ar      1 <0>        -0.1919
     19 F1        -10.3086   -1.8907   -2.1182 F         1 <0>        -0.1256
     20 F2         -7.1803   -3.1533   -5.4450 F         1 <0>        -0.1248
     21 C14        -2.9482   -0.2500   -4.5581 C.1       1 <0>         0.2859
     22 N6         -2.8475    0.0757   -5.6418 N.1       1 <0>        -0.3467
     23 H1          1.3345    1.2331    0.1123 H         1 <0>         0.0835
     24 H2         -0.2590    1.4558   -0.6490 H         1 <0>         0.0658
     25 H3         -0.1420    1.1742    1.1046 H         1 <0>         0.0649
     26 H4          0.6195   -0.8238   -1.0737 H         1 <0>         0.1005
     27 H5          0.7365   -1.1054    0.6799 H         1 <0>         0.1057
     28 H6         -1.4723   -1.6142    1.9875 H         1 <0>         0.2314
     29 H7         -5.7797   -2.1786   -0.1330 H         1 <0>         0.4368
     30 H8         -5.3922   -2.7505   -3.5878 H         1 <0>         0.1529
     31 H9         -9.5614   -2.6651   -4.4956 H         1 <0>         0.1514
     32 H10        -8.2167   -1.6218   -0.5818 H         1 <0>         0.1480
@<TRIPOS>BOND
     1    1    2 1
     2    1   23 1
     3    1   24 1
     4    1   25 1
     5    2    3 1
     6    2   26 1
     7    2   27 1
     8    3    7 1
     9    3    4 1
    10    4    5 2
    11    4   28 1
    12    5    6 1
    13    6   11 ar
    14    6    7 ar
    15    7    8 ar
    16    8    9 ar
    17    9   10 ar
    18    9   21 1
    19   10   11 ar
    20   11   12 1
    21   12   13 1
    22   12   29 1
    23   13   18 ar
    24   13   14 ar
    25   14   15 ar
    26   14   30 1
    27   15   16 ar
    28   15   20 1
    29   16   17 ar
    30   16   31 1
    31   17   18 ar
    32   17   19 1
    33   18   32 1
    34   21   22 3
