@<TRIPOS>MOLECULE
ZINC00291740
   25    25     0     0     0
SMALL
USER_CHARGES

@<TRIPOS>ATOM
      1 C1         -0.1437    1.1377    0.0389 C.ar      1 <0>        -0.1490
      2 C2          0.9918    1.9233    0.1044 C.ar      1 <0>        -0.1241
      3 C3          2.2422    1.3343    0.0797 C.ar      1 <0>        -0.1232
      4 C4          2.3570   -0.0404   -0.0101 C.ar      1 <0>        -0.0456
      5 C5          1.2214   -0.8260   -0.0746 C.ar      1 <0>        -0.1179
      6 C6         -0.0289   -0.2369   -0.0513 C.ar      1 <0>        -0.1233
      7 C7          3.7201   -0.6824   -0.0380 C.3       1 <0>        -0.0612
      8 C8          4.2327   -0.8535    1.3933 C.3       1 <0>        -0.1235
      9 H1          4.2041    0.1075    1.9068 H         1 <0>         0.0562
     10 C9          3.3463   -1.8552    2.1362 C.3       1 <0>        -0.1544
     11 C10         3.7749   -1.9318    3.5789 C.2       1 <0>         0.4868
     12 O1          4.7032   -1.2485    3.9762 O.co2     1 <0>        -0.6423
     13 O2          3.1933   -2.6770    4.3489 O.co2     1 <0>        -0.7518
     14 C11         5.6502   -1.3641    1.3616 C.2       1 <0>         0.4928
     15 O3          6.2243   -1.5033    0.2950 O.co2     1 <0>        -0.7431
     16 O4          6.2229   -1.6380    2.4025 O.co2     1 <0>        -0.6435
     17 H2         -1.1206    1.5976    0.0628 H         1 <0>         0.1090
     18 H3          0.9022    2.9973    0.1746 H         1 <0>         0.1113
     19 H4          3.1293    1.9481    0.1301 H         1 <0>         0.1184
     20 H5          1.3111   -1.9000   -0.1451 H         1 <0>         0.1187
     21 H6         -0.9161   -0.8507   -0.1022 H         1 <0>         0.1119
     22 H7          3.6522   -1.6584   -0.5188 H         1 <0>         0.0589
     23 H8          4.4086   -0.0490   -0.5973 H         1 <0>         0.0664
     24 H9          2.3072   -1.5305    2.0826 H         1 <0>         0.0356
     25 H10         3.4440   -2.8383    1.6755 H         1 <0>         0.0370
@<TRIPOS>BOND
     1    1    6 ar
     2    1    2 ar
     3    1   17 1
     4    2    3 ar
     5    2   18 1
     6    3    4 ar
     7    3   19 1
     8    4    5 ar
     9    4    7 1
    10    5    6 ar
    11    5   20 1
    12    6   21 1
    13    7    8 1
    14    7   22 1
    15    7   23 1
    16    8    9 1
    17    8   10 1
    18    8   14 1
    19   10   11 1
    20   10   24 1
    21   10   25 1
    22   11   12 2
    23   11   13 1
    24   14   15 2
    25   14   16 1
@<TRIPOS>MOLECULE
ZINC00291740
   26    26     0     0     0
SMALL
USER_CHARGES

@<TRIPOS>ATOM
      1 C1         -0.1427    1.1404    0.0397 C.ar      1 <0>        -0.1383
      2 C2          0.9928    1.9257    0.1085 C.ar      1 <0>        -0.1199
      3 C3          2.2431    1.3367    0.0835 C.ar      1 <0>        -0.1199
      4 C4          2.3579   -0.0377   -0.0098 C.ar      1 <0>        -0.0656
      5 C5          1.2224   -0.8231   -0.0777 C.ar      1 <0>        -0.1239
      6 C6         -0.0279   -0.2340   -0.0541 C.ar      1 <0>        -0.1208
      7 C7          3.7210   -0.6797   -0.0381 C.3       1 <0>        -0.0574
      8 C8          4.2327   -0.8535    1.3933 C.3       1 <0>        -0.1415
      9 H1          4.2038    0.1065    1.9086 H         1 <0>         0.0717
     10 C9          3.3458   -1.8566    2.1337 C.3       1 <0>        -0.0847
     11 C10         3.7733   -1.9359    3.5766 C.2       1 <0>         0.4507
     12 O1          4.6931   -1.2596    3.9722 O.2       1 <0>        -0.4502
     13 O2          3.1324   -2.7580    4.4223 O.3       1 <0>        -0.5295
     14 C11         5.6502   -1.3641    1.3616 C.2       1 <0>         0.4917
     15 O3          6.2243   -1.5033    0.2950 O.co2     1 <0>        -0.7023
     16 O4          6.2229   -1.6380    2.4025 O.co2     1 <0>        -0.6707
     17 H2         -1.1196    1.6002    0.0638 H         1 <0>         0.1146
     18 H3          0.9030    2.9995    0.1815 H         1 <0>         0.1164
     19 H4          3.1302    1.9504    0.1366 H         1 <0>         0.1209
     20 H5          1.3122   -1.8969   -0.1510 H         1 <0>         0.1209
     21 H6         -0.9150   -0.8476   -0.1075 H         1 <0>         0.1167
     22 H7          3.6535   -1.6547   -0.5207 H         1 <0>         0.0699
     23 H8          4.4100   -0.0452   -0.5956 H         1 <0>         0.0811
     24 H9          2.3067   -1.5317    2.0800 H         1 <0>         0.0863
     25 H10         3.4437   -2.8388    1.6712 H         1 <0>         0.0903
     26 H11         3.4775   -2.7402    5.3254 H         1 <0>         0.3937
@<TRIPOS>BOND
     1    1    6 ar
     2    1    2 ar
     3    1   17 1
     4    2    3 ar
     5    2   18 1
     6    3    4 ar
     7    3   19 1
     8    4    5 ar
     9    4    7 1
    10    5    6 ar
    11    5   20 1
    12    6   21 1
    13    7    8 1
    14    7   22 1
    15    7   23 1
    16    8    9 1
    17    8   10 1
    18    8   14 1
    19   10   11 1
    20   10   24 1
    21   10   25 1
    22   11   12 2
    23   11   13 1
    24   13   26 1
    25   14   15 2
    26   14   16 1
@<TRIPOS>MOLECULE
ZINC00291743
   25    25     0     0     0
SMALL
USER_CHARGES
(2R)-2-benzylbutanedioic acid
@<TRIPOS>ATOM
      1 C1          1.1598    0.8162    4.3812 C.ar      1 <0>        -0.1430
      2 C2          0.7375    2.0003    3.8061 C.ar      1 <0>        -0.1218
      3 C3         -0.0979    1.9745    2.7051 C.ar      1 <0>        -0.0971
      4 C4         -0.5153    0.7648    2.1823 C.ar      1 <0>        -0.0468
      5 C5         -0.0887   -0.4192    2.7541 C.ar      1 <0>        -0.1196
      6 C6          0.7467   -0.3935    3.8551 C.ar      1 <0>        -0.1280
      7 C7         -1.4310    0.7369    0.9858 C.3       1 <0>        -0.0692
      8 C8         -2.8807    0.6027    1.4561 C.3       1 <0>        -0.1079
      9 H1         -2.9725   -0.2666    2.1072 H         1 <0>         0.0640
     10 C9         -3.7966    0.4301    0.2427 C.3       1 <0>        -0.1374
     11 C10        -5.2066    0.1754    0.7098 C.2       1 <0>         0.4575
     12 O1         -5.4536    0.1360    1.8919 O.co2     1 <0>        -0.6102
     13 C11        -3.2796    1.8425    2.2142 C.2       1 <0>         0.4994
     14 O2         -3.3586    2.9026    1.6399 O.co2     1 <0>        -0.6684
     15 H2          1.8122    0.8364    5.2416 H         1 <0>         0.1087
     16 H3          1.0600    2.9454    4.2173 H         1 <0>         0.1118
     17 H4         -0.4281    2.8996    2.2560 H         1 <0>         0.1208
     18 H5         -0.4118   -1.3644    2.3434 H         1 <0>         0.1158
     19 H6          1.0763   -1.3186    4.3046 H         1 <0>         0.1107
     20 H7         -1.3169    1.6610    0.4192 H         1 <0>         0.0684
     21 H8         -1.1747   -0.1120    0.3518 H         1 <0>         0.0572
     22 H9         -3.7725    1.3363   -0.3626 H         1 <0>         0.0641
     23 H10        -3.4534   -0.4148   -0.3543 H         1 <0>         0.0467
     24 O3         -6.1881   -0.0077   -0.1874 O.co2     1 <0>        -0.8072
     25 O4         -3.5472    1.7691    3.5275 O.co2     1 <0>        -0.7686
@<TRIPOS>BOND
     1    1    6 ar
     2    1    2 ar
     3    1   15 1
     4    2    3 ar
     5    2   16 1
     6    3    4 ar
     7    3   17 1
     8    4    5 ar
     9    4    7 1
    10    5    6 ar
    11    5   18 1
    12    6   19 1
    13    7    8 1
    14    7   20 1
    15    7   21 1
    16    8    9 1
    17    8   10 1
    18    8   13 1
    19   10   11 1
    20   10   22 1
    21   10   23 1
    22   11   12 2
    23   11   24 1
    24   13   14 2
    25   13   25 1
