@<TRIPOS>MOLECULE
ZINC00364427
   33    34     0     0     0
SMALL
USER_CHARGES

@<TRIPOS>ATOM
      1 C1          3.4387    0.9521    2.3642 C.3       1 <0>        -0.1275
      2 C2          2.7081   -0.2779    1.8905 C.ar      1 <0>        -0.0225
      3 C3          2.1257   -0.2960    0.6370 C.ar      1 <0>        -0.1405
      4 C4          1.4556   -1.4243    0.2025 C.ar      1 <0>        -0.0120
      5 C5          1.3683   -2.5346    1.0213 C.ar      1 <0>        -0.6852
      6 C6          1.9514   -2.5168    2.2745 C.ar      1 <0>        -0.0140
      7 C7          2.6252   -1.3900    2.7073 C.ar      1 <0>        -0.1422
      8 S1          0.5131   -3.9723    0.4679 S.o2      1 <0>         2.6889
      9 O1         -0.0033   -4.6096    1.6283 O.2       1 <0>        -0.9481
     10 O2         -0.3179   -3.5612   -0.6090 O.2       1 <0>        -0.9459
     11 N1          1.6441   -4.9987   -0.1721 N.pl3     1 <0>        -1.0631
     12 C8          2.3845   -4.6117   -1.2914 C.ar      1 <0>         0.1231
     13 C9          1.7936   -4.6054   -2.5488 C.ar      1 <0>        -0.0722
     14 C10         2.5283   -4.2218   -3.6533 C.ar      1 <0>        -0.1087
     15 C11         3.8511   -3.8445   -3.5088 C.ar      1 <0>        -0.0624
     16 C12         4.4423   -3.8501   -2.2590 C.ar      1 <0>        -0.1770
     17 C13         3.7114   -4.2268   -1.1492 C.ar      1 <0>        -0.0629
     18 C14         5.8842   -3.4392   -2.1067 C.3       1 <0>         0.5092
     19 F1          6.4068   -3.0986   -3.3589 F         1 <0>        -0.1743
     20 F2          5.9666   -2.3355   -1.2510 F         1 <0>        -0.1748
     21 F3          6.6176   -4.5021   -1.5687 F         1 <0>        -0.1746
     22 H1          4.4872    0.8864    2.0737 H         1 <0>         0.0815
     23 H2          2.9912    1.8372    1.9121 H         1 <0>         0.0743
     24 H3          3.3661    1.0224    3.4496 H         1 <0>         0.0741
     25 H4          2.1940    0.5714   -0.0027 H         1 <0>         0.1341
     26 H5          1.0000   -1.4382   -0.7766 H         1 <0>         0.1409
     27 H6          1.8829   -3.3841    2.9144 H         1 <0>         0.1395
     28 H7          3.0840   -1.3774    3.6850 H         1 <0>         0.1343
     29 H8          1.7924   -5.8688    0.2304 H         1 <0>         0.4291
     30 H9          0.7609   -4.9005   -2.6624 H         1 <0>         0.1475
     31 H10         2.0696   -4.2166   -4.6310 H         1 <0>         0.1461
     32 H11         4.4235   -3.5453   -4.3744 H         1 <0>         0.1452
     33 H12         4.1724   -4.2264   -0.1725 H         1 <0>         0.1401
@<TRIPOS>BOND
     1    1    2 1
     2    1   22 1
     3    1   23 1
     4    1   24 1
     5    2    7 ar
     6    2    3 ar
     7    3    4 ar
     8    3   25 1
     9    4    5 ar
    10    4   26 1
    11    5    6 ar
    12    5    8 1
    13    6    7 ar
    14    6   27 1
    15    7   28 1
    16    8    9 2
    17    8   10 2
    18    8   11 1
    19   11   12 1
    20   11   29 1
    21   12   17 ar
    22   12   13 ar
    23   13   14 ar
    24   13   30 1
    25   14   15 ar
    26   14   31 1
    27   15   16 ar
    28   15   32 1
    29   16   17 ar
    30   16   18 1
    31   17   33 1
    32   18   19 1
    33   18   20 1
    34   18   21 1
@<TRIPOS>MOLECULE
ZINC00364427
   32    33     0     0     0
SMALL
USER_CHARGES

@<TRIPOS>ATOM
      1 C1         -0.0184    1.5028    0.0103 C.3       1 <0>        -0.1161
      2 C2          0.0021   -0.0041    0.0020 C.ar      1 <0>        -0.0528
      3 C3          0.0057   -0.6887   -1.1989 C.ar      1 <0>        -0.1478
      4 C4          0.0245   -2.0709   -1.2065 C.ar      1 <0>        -0.0202
      5 C5          0.0400   -2.7685   -0.0132 C.ar      1 <0>        -0.6201
      6 C6          0.0373   -2.0839    1.1877 C.ar      1 <0>        -0.0203
      7 C7          0.0229   -0.7016    1.1953 C.ar      1 <0>        -0.1477
      8 S1          0.0628   -4.5303   -0.0229 S.o2      1 <0>         2.6055
      9 O1         -0.4759   -4.9503    1.2232 O.2       1 <0>        -1.0287
     10 O2         -0.4897   -4.9367   -1.2674 O.2       1 <0>        -1.0288
     11 N1          1.6509   -4.9994   -0.0343 N.2       1 <0>        -1.0876
     12 C8          1.9779   -6.3573   -0.0434 C.ar      1 <0>         0.2788
     13 C9          0.9721   -7.3157   -0.0489 C.ar      1 <0>        -0.2384
     14 C10         1.2989   -8.6572   -0.0584 C.ar      1 <0>        -0.0652
     15 C11         2.6258   -9.0473   -0.0621 C.ar      1 <0>        -0.1850
     16 C12         3.6293   -8.0962   -0.0563 C.ar      1 <0>        -0.1421
     17 C13         3.3094   -6.7525   -0.0530 C.ar      1 <0>        -0.1331
     18 C14         5.0737   -8.5260   -0.0594 C.3       1 <0>         0.5089
     19 F1          5.1445   -9.9232   -0.0683 F         1 <0>        -0.1848
     20 F2          5.7085   -8.0196   -1.1986 F         1 <0>        -0.1827
     21 F3          5.7090   -8.0342    1.0859 F         1 <0>        -0.1826
     22 H1          1.0042    1.8801    0.0026 H         1 <0>         0.0730
     23 H2         -0.5455    1.8639   -0.8728 H         1 <0>         0.0670
     24 H3         -0.5286    1.8543    0.9071 H         1 <0>         0.0670
     25 H4         -0.0064   -0.1436   -2.1312 H         1 <0>         0.1255
     26 H5          0.0266   -2.6057   -2.1448 H         1 <0>         0.1363
     27 H6          0.0491   -2.6289    2.1200 H         1 <0>         0.1363
     28 H7          0.0245   -0.1667    2.1335 H         1 <0>         0.1255
     29 H8         -0.0643   -7.0117   -0.0453 H         1 <0>         0.1049
     30 H9          0.5175   -9.4027   -0.0627 H         1 <0>         0.1146
     31 H10         2.8786  -10.0973   -0.0693 H         1 <0>         0.1180
     32 H11         4.0937   -6.0100   -0.0532 H         1 <0>         0.1228
@<TRIPOS>BOND
     1    1    2 1
     2    1   22 1
     3    1   23 1
     4    1   24 1
     5    2    7 ar
     6    2    3 ar
     7    3    4 ar
     8    3   25 1
     9    4    5 ar
    10    4   26 1
    11    5    6 ar
    12    5    8 1
    13    6    7 ar
    14    6   27 1
    15    7   28 1
    16    8    9 2
    17    8   10 2
    18    8   11 1
    19   11   12 1
    20   12   17 ar
    21   12   13 ar
    22   13   14 ar
    23   13   29 1
    24   14   15 ar
    25   14   30 1
    26   15   16 ar
    27   15   31 1
    28   16   17 ar
    29   16   18 1
    30   17   32 1
    31   18   19 1
    32   18   20 1
    33   18   21 1
@<TRIPOS>MOLECULE
ZINC01738108
   29    30     0     0     0
SMALL
USER_CHARGES

@<TRIPOS>ATOM
      1 C1         -0.0166    1.3766    0.0096 C.ar      1 <0>        -0.0653
      2 C2          1.1707    2.0859    0.0021 C.ar      1 <0>        -0.1827
      3 C3          2.3799    1.4157   -0.0135 C.ar      1 <0>        -0.1422
      4 C4          2.4059    0.0347   -0.0211 C.ar      1 <0>        -0.1300
      5 C5          1.2154   -0.6807   -0.0131 C.ar      1 <0>         0.2807
      6 C6          0.0021   -0.0041    0.0020 C.ar      1 <0>        -0.2374
      7 N1          1.2380   -2.0772   -0.0208 N.2       1 <0>        -1.0747
      8 S1         -0.1825   -2.9284   -0.0112 S.o2      1 <0>         2.5992
      9 O1         -0.8016   -2.6713    1.2417 O.2       1 <0>        -1.0200
     10 O2         -0.8263   -2.6580   -1.2488 O.2       1 <0>        -1.0040
     11 C7          0.2357   -4.6400   -0.0245 C.ar      1 <0>        -0.6017
     12 C8         -0.0862   -5.4382    1.0572 C.ar      1 <0>         0.0026
     13 C9          0.2418   -6.7818    1.0473 C.ar      1 <0>        -0.0544
     14 C10         0.8924   -7.3275   -0.0467 C.ar      1 <0>         0.0164
     15 C11         1.2138   -6.5286   -1.1287 C.ar      1 <0>        -0.1184
     16 C12         0.8809   -5.1856   -1.1198 C.ar      1 <0>         0.0720
     17 Cl1         1.2783   -4.1839   -2.4808 Cl        1 <0>        -0.0065
     18 Cl2         1.3049   -9.0137   -0.0595 Cl        1 <0>        -0.0373
     19 Cl3        -0.1616   -7.7839    2.4063 Cl        1 <0>        -0.0419
     20 C13         3.6711    2.1928   -0.0226 C.3       1 <0>         0.5086
     21 F1          3.3905    3.5634   -0.0129 F         1 <0>        -0.1848
     22 F2          4.4222    1.8626    1.1105 F         1 <0>        -0.1823
     23 F3          4.3991    1.8740   -1.1739 F         1 <0>        -0.1824
     24 H1         -0.9594    1.9032    0.0259 H         1 <0>         0.1149
     25 H2          1.1532    3.1658    0.0080 H         1 <0>         0.1183
     26 H3          3.3508   -0.4882   -0.0336 H         1 <0>         0.1239
     27 H4         -0.9254   -0.5574    0.0082 H         1 <0>         0.1045
     28 H5         -0.5936   -5.0126    1.9103 H         1 <0>         0.1671
     29 H6          1.7215   -6.9535   -1.9820 H         1 <0>         0.1580
@<TRIPOS>BOND
     1    1    6 ar
     2    1    2 ar
     3    1   24 1
     4    2    3 ar
     5    2   25 1
     6    3    4 ar
     7    3   20 1
     8    4    5 ar
     9    4   26 1
    10    5    6 ar
    11    5    7 1
    12    6   27 1
    13    7    8 1
    14    8    9 2
    15    8   10 2
    16    8   11 1
    17   11   16 ar
    18   11   12 ar
    19   12   13 ar
    20   12   28 1
    21   13   14 ar
    22   13   19 1
    23   14   15 ar
    24   14   18 1
    25   15   16 ar
    26   15   29 1
    27   16   17 1
    28   20   21 1
    29   20   22 1
    30   20   23 1
@<TRIPOS>MOLECULE
ZINC58655676
   55    57     0     0     0
SMALL
USER_CHARGES

@<TRIPOS>ATOM
      1 C1          0.5488    1.6611   -0.2219 C.3       1 <0>        -0.1411
      2 C2          0.4334    0.1368   -0.1575 C.3       1 <0>        -0.0014
      3 C3          1.1752   -0.3791    1.0772 C.3       1 <0>        -0.1412
      4 C4         -1.0195   -0.2538   -0.0701 C.2       1 <0>        -0.2596
      5 C5         -1.9098    0.1168    0.9294 C.2       1 <0>         0.1117
      6 N1         -3.0838   -0.4099    0.6710 N.2       1 <0>        -0.3361
      7 N2         -2.9973   -1.1475   -0.5153 N.pl3     1 <0>        -0.3639
      8 C6         -1.7117   -1.0440   -0.9772 C.2       1 <0>         0.3466
      9 N3         -1.3417   -1.6548   -2.1127 N.2       1 <0>        -0.5767
     10 C7         -2.2072   -2.3671   -2.8134 C.2       1 <0>         0.4953
     11 C8         -3.5350   -2.4948   -2.3753 C.2       1 <0>        -0.3671
     12 C9         -3.9182   -1.8828   -1.2175 C.2       1 <0>         0.5060
     13 N4         -5.2172   -1.9910   -0.7665 N.pl3     1 <0>        -0.7101
     14 C10        -6.1925   -2.7789   -1.5242 C.3       1 <0>         0.1679
     15 C11        -7.5259   -2.7365   -0.8233 C.ar      1 <0>        -0.1184
     16 C12        -7.8360   -3.6880    0.1303 C.ar      1 <0>        -0.0961
     17 C13        -9.0591   -3.6491    0.7733 C.ar      1 <0>        -0.1212
     18 C14        -9.9719   -2.6584    0.4630 C.ar      1 <0>        -0.1053
     19 C15        -9.6614   -1.7064   -0.4899 C.ar      1 <0>        -0.1214
     20 C16        -8.4366   -1.7427   -1.1298 C.ar      1 <0>        -0.0963
     21 N5         -1.8032   -2.9889   -3.9834 N.pl3     1 <0>        -0.6918
     22 C17        -0.4184   -2.8566   -4.4427 C.3       1 <0>         0.1320
     23 H1         -0.0468   -1.8624   -4.1947 H         1 <0>         0.1085
     24 C18         0.4500   -3.9119   -3.7549 C.3       1 <0>         0.0700
     25 O1          0.0275   -5.2151   -4.1614 O.3       1 <0>        -0.5699
     26 C19        -0.3623   -3.0587   -5.9582 C.3       1 <0>         0.1075
     27 H2         -0.7661   -4.0395   -6.2092 H         1 <0>         0.1172
     28 C20        -1.1915   -1.9738   -6.6485 C.3       1 <0>         0.0440
     29 O2         -1.2351   -2.2295   -8.0537 O.3       1 <0>        -0.5625
     30 O3          0.9941   -2.9748   -6.4001 O.3       1 <0>        -0.5390
     31 H3          1.5996    1.9436   -0.2851 H         1 <0>         0.0538
     32 H4          0.0202    2.0286   -1.1015 H         1 <0>         0.0506
     33 H5          0.1086    2.0970    0.6749 H         1 <0>         0.0520
     34 H6          0.8736   -0.2992   -1.0543 H         1 <0>         0.0769
     35 H7          2.2261   -0.0966    1.0141 H         1 <0>         0.0538
     36 H8          0.7351    0.0569    1.9741 H         1 <0>         0.0520
     37 H9          1.0931   -1.4650    1.1232 H         1 <0>         0.0506
     38 H10        -1.6741    0.7374    1.7813 H         1 <0>         0.1890
     39 H11        -4.2442   -3.0761   -2.9458 H         1 <0>         0.1543
     40 H12        -5.4849   -1.5453    0.0524 H         1 <0>         0.4169
     41 H13        -6.2955   -2.3630   -2.5265 H         1 <0>         0.0824
     42 H14        -5.8507   -3.8116   -1.5927 H         1 <0>         0.0828
     43 H15        -7.1229   -4.4620    0.3727 H         1 <0>         0.1248
     44 H16        -9.3017   -4.3929    1.5178 H         1 <0>         0.1267
     45 H17       -10.9277   -2.6285    0.9648 H         1 <0>         0.1260
     46 H18       -10.3746   -0.9326   -0.7326 H         1 <0>         0.1266
     47 H19        -8.1925   -0.9967   -1.8716 H         1 <0>         0.1246
     48 H20        -2.4372   -3.5119   -4.4985 H         1 <0>         0.4145
     49 H21         1.4927   -3.7638   -4.0361 H         1 <0>         0.0598
     50 H22         0.3484   -3.8178   -2.6738 H         1 <0>         0.0555
     51 H23         0.5354   -5.9352   -3.7633 H         1 <0>         0.3813
     52 H24        -2.2046   -1.9800   -6.2464 H         1 <0>         0.0549
     53 H25        -0.7358   -0.9998   -6.4704 H         1 <0>         0.0491
     54 H26        -1.7454   -1.5796   -8.5561 H         1 <0>         0.3802
     55 H27         1.4409   -2.1559   -6.1452 H         1 <0>         0.3731
@<TRIPOS>BOND
     1    1    2 1
     2    1   31 1
     3    1   32 1
     4    1   33 1
     5    2    3 1
     6    2    4 1
     7    2   34 1
     8    3   35 1
     9    3   36 1
    10    3   37 1
    11    4    8 2
    12    4    5 1
    13    5    6 2
    14    5   38 1
    15    6    7 1
    16    7   12 1
    17    7    8 1
    18    8    9 1
    19    9   10 2
    20   10   11 1
    21   10   21 1
    22   11   12 2
    23   11   39 1
    24   12   13 1
    25   13   14 1
    26   13   40 1
    27   14   15 1
    28   14   41 1
    29   14   42 1
    30   15   20 ar
    31   15   16 ar
    32   16   17 ar
    33   16   43 1
    34   17   18 ar
    35   17   44 1
    36   18   19 ar
    37   18   45 1
    38   19   20 ar
    39   19   46 1
    40   20   47 1
    41   21   22 1
    42   21   48 1
    43   22   23 1
    44   22   24 1
    45   22   26 1
    46   24   25 1
    47   24   49 1
    48   24   50 1
    49   25   51 1
    50   26   27 1
    51   26   28 1
    52   26   30 1
    53   28   29 1
    54   28   52 1
    55   28   53 1
    56   29   54 1
    57   30   55 1
@<TRIPOS>MOLECULE
ZINC01649340
   52    54     0     0     0
SMALL
USER_CHARGES

@<TRIPOS>ATOM
      1 C1         -0.0187    1.5258    0.0104 C.3       1 <0>        -0.1531
      2 C2          0.0021   -0.0041    0.0020 C.3       1 <0>        -0.1278
      3 C3         -1.4333   -0.5336    0.0129 C.3       1 <0>         0.1689
      4 H1         -1.9701   -0.1109    0.8621 H         1 <0>         0.1030
      5 C4         -1.4133   -2.0590    0.1302 C.3       1 <0>         0.0625
      6 O1         -0.6117   -2.6069   -0.9183 O.3       1 <0>        -0.5692
      7 N1         -2.1054   -0.1483   -1.2305 N.pl3     1 <0>        -0.6816
      8 C5         -3.4856   -0.0365   -1.2658 C.ar      1 <0>         0.6305
      9 N2         -4.1766   -0.2783   -0.1589 N.ar      1 <0>        -0.6256
     10 C6         -5.5013   -0.1844   -0.1423 C.ar      1 <0>         0.5407
     11 C7         -6.1646    0.1788   -1.3275 C.ar      1 <0>        -0.1560
     12 C8         -5.3921    0.4251   -2.4741 C.ar      1 <0>         0.3485
     13 N3         -4.0693    0.3129   -2.4004 N.ar      1 <0>        -0.6161
     14 N4         -6.2808    0.7538   -3.4662 N.pl3     1 <0>        -0.4704
     15 C9         -7.5330    0.7038   -2.9264 C.2       1 <0>         0.2320
     16 N5         -7.4624    0.3664   -1.6720 N.2       1 <0>        -0.4548
     17 C10        -5.9467    1.0964   -4.8508 C.3       1 <0>         0.1344
     18 C11        -6.6196    0.1019   -5.7989 C.3       1 <0>        -0.1626
     19 C12        -6.4419    2.5107   -5.1599 C.3       1 <0>        -0.1626
     20 N6         -6.2133   -0.4389    1.0165 N.pl3     1 <0>        -0.6899
     21 C13        -5.5062   -0.8166    2.2427 C.3       1 <0>         0.1717
     22 C14        -6.5039   -1.0364    3.3505 C.ar      1 <0>        -0.1135
     23 C15        -6.8801    0.0183    4.1611 C.ar      1 <0>        -0.0982
     24 C16        -7.7953   -0.1833    5.1773 C.ar      1 <0>        -0.1219
     25 C17        -8.3347   -1.4394    5.3826 C.ar      1 <0>        -0.1101
     26 C18        -7.9592   -2.4939    4.5714 C.ar      1 <0>        -0.1221
     27 C19        -7.0472   -2.2913    3.5524 C.ar      1 <0>        -0.0986
     28 H2          1.0039    1.9031    0.0027 H         1 <0>         0.0563
     29 H3         -0.5459    1.8868   -0.8726 H         1 <0>         0.0552
     30 H4         -0.5289    1.8773    0.9072 H         1 <0>         0.0537
     31 H5          0.5123   -0.3556   -0.8948 H         1 <0>         0.0768
     32 H6          0.5293   -0.3651    0.8851 H         1 <0>         0.0774
     33 H7         -0.9936   -2.3437    1.0951 H         1 <0>         0.0524
     34 H8         -2.4301   -2.4431    0.0488 H         1 <0>         0.0503
     35 H9         -0.5540   -3.5721   -0.9058 H         1 <0>         0.3776
     36 H10        -1.5839    0.0285   -2.0291 H         1 <0>         0.4145
     37 H11        -8.4474    0.9139   -3.4613 H         1 <0>         0.2138
     38 H12        -4.8660    1.0524   -4.9853 H         1 <0>         0.1061
     39 H13        -7.7004    0.1459   -5.6644 H         1 <0>         0.0654
     40 H14        -6.3710    0.3568   -6.8291 H         1 <0>         0.0793
     41 H15        -6.2668   -0.9057   -5.5787 H         1 <0>         0.0629
     42 H16        -5.9625    3.2193   -4.4845 H         1 <0>         0.0629
     43 H17        -6.1933    2.7656   -6.1901 H         1 <0>         0.0793
     44 H18        -7.5227    2.5547   -5.0254 H         1 <0>         0.0654
     45 H19        -7.1807   -0.3672    1.0169 H         1 <0>         0.4195
     46 H20        -4.9460   -1.7357    2.0706 H         1 <0>         0.0763
     47 H21        -4.8186   -0.0196    2.5258 H         1 <0>         0.0773
     48 H22        -6.4587    0.9996    4.0008 H         1 <0>         0.1237
     49 H23        -8.0886    0.6405    5.8111 H         1 <0>         0.1245
     50 H24        -9.0492   -1.5971    6.1770 H         1 <0>         0.1237
     51 H25        -8.3804   -3.4753    4.7320 H         1 <0>         0.1244
     52 H26        -6.7567   -3.1143    2.9163 H         1 <0>         0.1232
@<TRIPOS>BOND
     1    1    2 1
     2    1   28 1
     3    1   29 1
     4    1   30 1
     5    2    3 1
     6    2   31 1
     7    2   32 1
     8    3    4 1
     9    3    5 1
    10    3    7 1
    11    5    6 1
    12    5   33 1
    13    5   34 1
    14    6   35 1
    15    7    8 1
    16    7   36 1
    17    8   13 ar
    18    8    9 ar
    19    9   10 ar
    20   10   11 ar
    21   10   20 1
    22   11   16 1
    23   11   12 ar
    24   12   13 ar
    25   12   14 1
    26   14   15 1
    27   14   17 1
    28   15   16 2
    29   15   37 1
    30   17   18 1
    31   17   19 1
    32   17   38 1
    33   18   39 1
    34   18   40 1
    35   18   41 1
    36   19   42 1
    37   19   43 1
    38   19   44 1
    39   20   21 1
    40   20   45 1
    41   21   22 1
    42   21   46 1
    43   21   47 1
    44   22   27 ar
    45   22   23 ar
    46   23   24 ar
    47   23   48 1
    48   24   25 ar
    49   24   49 1
    50   25   26 ar
    51   25   50 1
    52   26   27 ar
    53   26   51 1
    54   27   52 1
@<TRIPOS>MOLECULE
ZINC43207770
   61    63     0     0     0
SMALL
USER_CHARGES

@<TRIPOS>ATOM
      1 C1         -0.0187    1.5258    0.0104 C.3       1 <0>        -0.1420
      2 C2          0.0021   -0.0041    0.0020 C.3       1 <0>        -0.0004
      3 C3          0.7182   -0.4975   -1.2568 C.3       1 <0>        -0.1418
      4 C4          0.7309   -0.5033    1.2229 C.2       1 <0>        -0.2574
      5 C5          2.0495   -0.2273    1.5610 C.2       1 <0>         0.1123
      6 N1          2.3353   -0.8321    2.6902 N.2       1 <0>        -0.3325
      7 N2          1.2034   -1.5282    3.1295 N.pl3     1 <0>        -0.3639
      8 C6          0.2043   -1.3172    2.2162 C.2       1 <0>         0.3429
      9 N3         -1.0069   -1.8674    2.3882 N.2       1 <0>        -0.5741
     10 C7         -1.2661   -2.6222    3.4420 C.2       1 <0>         0.4905
     11 C8         -0.2698   -2.8598    4.4024 C.2       1 <0>        -0.3712
     12 C9          0.9673   -2.3100    4.2317 C.2       1 <0>         0.5074
     13 N4          1.9627   -2.5263    5.1616 N.pl3     1 <0>        -0.7091
     14 C10         1.6996   -3.3630    6.3350 C.3       1 <0>         0.1691
     15 C11         2.9408   -3.4387    7.1865 C.ar      1 <0>        -0.1212
     16 C12         3.8714   -4.4365    6.9645 C.ar      1 <0>        -0.0964
     17 C13         5.0098   -4.5059    7.7455 C.ar      1 <0>        -0.1207
     18 C14         5.2179   -3.5773    8.7481 C.ar      1 <0>        -0.1036
     19 C15         4.2878   -2.5789    8.9694 C.ar      1 <0>        -0.1207
     20 C16         3.1514   -2.5069    8.1857 C.ar      1 <0>        -0.0964
     21 N5         -2.5242   -3.1798    3.5996 N.pl3     1 <0>        -0.7103
     22 C17        -3.5654   -2.9329    2.5990 C.3       1 <0>         0.1310
     23 C18        -4.8488   -3.6579    3.0089 C.3       1 <0>        -0.1349
     24 C19        -5.9362   -3.4000    1.9640 C.3       1 <0>        -0.1172
     25 C20        -7.2197   -4.1250    2.3739 C.3       1 <0>        -0.1183
     26 C21        -8.3071   -3.8671    1.3289 C.3       1 <0>        -0.1535
     27 C22        -9.5905   -4.5921    1.7388 C.3       1 <0>        -0.0100
     28 N6        -10.6346   -4.3445    0.7355 N.4       1 <0>        -0.6388
     29 H1          1.0039    1.9031    0.0027 H         1 <0>         0.0535
     30 H2         -0.5459    1.8868   -0.8726 H         1 <0>         0.0537
     31 H3         -0.5289    1.8773    0.9072 H         1 <0>         0.0505
     32 H4         -1.0205   -0.3814    0.0098 H         1 <0>         0.0755
     33 H5          1.7408   -0.1202   -1.2645 H         1 <0>         0.0535
     34 H6          0.7330   -1.5874   -1.2628 H         1 <0>         0.0505
     35 H7          0.1910   -0.1364   -2.1398 H         1 <0>         0.0537
     36 H8          2.7294    0.3853    0.9875 H         1 <0>         0.1905
     37 H9         -0.4788   -3.4760    5.2643 H         1 <0>         0.1532
     38 H10         2.8369   -2.1244    5.0386 H         1 <0>         0.4179
     39 H11         0.8863   -2.9284    6.9162 H         1 <0>         0.0820
     40 H12         1.4195   -4.3654    6.0111 H         1 <0>         0.0819
     41 H13         3.7088   -5.1620    6.1812 H         1 <0>         0.1243
     42 H14         5.7366   -5.2859    7.5726 H         1 <0>         0.1274
     43 H15         6.1071   -3.6320    9.3588 H         1 <0>         0.1272
     44 H16         4.4502   -1.8536    9.7530 H         1 <0>         0.1274
     45 H17         2.4265   -1.7247    8.3561 H         1 <0>         0.1244
     46 H18        -2.7158   -3.7339    4.3723 H         1 <0>         0.4105
     47 H19        -3.7584   -1.8622    2.5322 H         1 <0>         0.0678
     48 H20        -3.2327   -3.3033    1.6294 H         1 <0>         0.0678
     49 H21        -4.6558   -4.7286    3.0757 H         1 <0>         0.0709
     50 H22        -5.1815   -3.2875    3.9785 H         1 <0>         0.0709
     51 H23        -6.1293   -2.3293    1.8971 H         1 <0>         0.0712
     52 H24        -5.6035   -3.7704    0.9943 H         1 <0>         0.0712
     53 H25        -7.0266   -5.1957    2.4407 H         1 <0>         0.0750
     54 H26        -7.5524   -3.7546    3.3435 H         1 <0>         0.0750
     55 H27        -8.5001   -2.7964    1.2621 H         1 <0>         0.0886
     56 H28        -7.9744   -4.2375    0.3593 H         1 <0>         0.0886
     57 H29        -9.3975   -5.6628    1.8056 H         1 <0>         0.1333
     58 H30        -9.9232   -4.2217    2.7085 H         1 <0>         0.1334
     59 H31       -11.4810   -4.8226    1.0058 H         1 <0>         0.4384
     60 H32       -10.8133   -3.3533    0.6737 H         1 <0>         0.4356
     61 H33       -10.3266   -4.6873   -0.1621 H         1 <0>         0.4356
@<TRIPOS>BOND
     1    1    2 1
     2    1   29 1
     3    1   30 1
     4    1   31 1
     5    2    3 1
     6    2    4 1
     7    2   32 1
     8    3   33 1
     9    3   34 1
    10    3   35 1
    11    4    8 2
    12    4    5 1
    13    5    6 2
    14    5   36 1
    15    6    7 1
    16    7   12 1
    17    7    8 1
    18    8    9 1
    19    9   10 2
    20   10   11 1
    21   10   21 1
    22   11   12 2
    23   11   37 1
    24   12   13 1
    25   13   14 1
    26   13   38 1
    27   14   15 1
    28   14   39 1
    29   14   40 1
    30   15   20 ar
    31   15   16 ar
    32   16   17 ar
    33   16   41 1
    34   17   18 ar
    35   17   42 1
    36   18   19 ar
    37   18   43 1
    38   19   20 ar
    39   19   44 1
    40   20   45 1
    41   21   22 1
    42   21   46 1
    43   22   23 1
    44   22   47 1
    45   22   48 1
    46   23   24 1
    47   23   49 1
    48   23   50 1
    49   24   25 1
    50   24   51 1
    51   24   52 1
    52   25   26 1
    53   25   53 1
    54   25   54 1
    55   26   27 1
    56   26   55 1
    57   26   56 1
    58   27   28 1
    59   27   57 1
    60   27   58 1
    61   28   59 1
    62   28   60 1
    63   28   61 1
@<TRIPOS>MOLECULE
ZINC29056064
   54    57     0     0     0
SMALL
USER_CHARGES
1-(2,6-dichlorophenyl)-6-[[4-(2-hydroxyethoxy)phenyl]methyl]-3-isopropyl-5H-pyrazolo[3,4-d]pyrimidin-4-one
@<TRIPOS>ATOM
      1 C1          2.3572    8.4917    1.4942 C.3       1 <0>        -0.1430
      2 C2          1.5734    8.5299    0.1807 C.3       1 <0>        -0.0242
      3 C3          2.5502    8.5120   -0.9967 C.3       1 <0>        -0.1426
      4 C4          0.6681    7.3278    0.1008 C.2       1 <0>         0.1688
      5 C5         -0.7348    7.3590   -0.0077 C.2       1 <0>        -0.3390
      6 C6         -1.7365    8.4226   -0.0767 C.2       1 <0>         0.5817
      7 O1         -1.4146    9.5972   -0.0426 O.2       1 <0>        -0.5166
      8 N1         -3.0347    8.0531   -0.1803 N.am      1 <0>        -0.6609
      9 H1         -3.8220    8.8194   -0.2351 H         1 <0>         0.4506
     10 C7         -3.3711    6.7390   -0.2170 C.2       1 <0>         0.4368
     11 N2         -2.4939    5.7801   -0.1572 N.2       1 <0>        -0.5073
     12 C8         -1.1793    6.0279   -0.0529 C.2       1 <0>         0.3607
     13 N3         -0.0688    5.2451    0.0268 N.pl3     1 <0>        -0.3137
     14 N4          1.0510    6.0805    0.1260 N.2       1 <0>        -0.2484
     15 C9         -0.0497    3.8439    0.0174 C.ar      1 <0>         0.1627
     16 C10        -0.7963    3.1310    0.9473 C.ar      1 <0>        -0.0096
     17 C11        -0.7746    1.7489    0.9353 C.ar      1 <0>        -0.0953
     18 C12        -0.0111    1.0759   -0.0007 C.ar      1 <0>        -0.0850
     19 C13         0.7377    1.7821   -0.9240 C.ar      1 <0>        -0.0998
     20 C14         0.7164    3.1643   -0.9216 C.ar      1 <0>        -0.0144
     21 Cl1         1.6508    4.0499   -2.0863 Cl        1 <0>        -0.0314
     22 Cl2        -1.7557    3.9749    2.1224 Cl        1 <0>        -0.0279
     23 C15        -4.8284    6.3733   -0.3330 C.3       1 <0>        -0.0338
     24 C16        -4.9808    4.8776   -0.2304 C.ar      1 <0>        -0.1032
     25 C17        -4.9382    4.0996   -1.3726 C.ar      1 <0>        -0.0545
     26 C18        -5.0719    2.7277   -1.2807 C.ar      1 <0>        -0.2083
     27 C19        -5.2600    2.1317   -0.0421 C.ar      1 <0>         0.1366
     28 C20        -5.3080    2.9151    1.1019 C.ar      1 <0>        -0.1465
     29 C21        -5.1685    4.2861    1.0052 C.ar      1 <0>        -0.0571
     30 O2         -5.3973    0.7828    0.0504 O.3       1 <0>        -0.3063
     31 C22        -5.3375    0.0395   -1.1686 C.3       1 <0>         0.0581
     32 C23        -5.5106   -1.4503   -0.8665 C.3       1 <0>         0.0868
     33 O3         -6.8213   -1.6818   -0.3465 O.3       1 <0>        -0.5962
     34 H2          1.6549    8.5046    2.3407 H         1 <0>         0.0553
     35 H3          3.0179    9.3692    1.5525 H         1 <0>         0.0669
     36 H4          2.9622    7.5739    1.5336 H         1 <0>         0.0624
     37 H5          0.9554    9.4390    0.1401 H         1 <0>         0.1059
     38 H6          1.9867    8.5395   -1.9410 H         1 <0>         0.0548
     39 H7          3.1552    7.5942   -0.9573 H         1 <0>         0.0623
     40 H8          3.2109    9.3895   -0.9383 H         1 <0>         0.0669
     41 H9         -1.3550    1.1941    1.6576 H         1 <0>         0.1493
     42 H10         0.0040   -0.0040   -0.0077 H         1 <0>         0.1497
     43 H11         1.3367    1.2532   -1.6506 H         1 <0>         0.1497
     44 H12        -5.3932    6.8559    0.4782 H         1 <0>         0.1138
     45 H13        -5.2162    6.7156   -1.3038 H         1 <0>         0.1153
     46 H14        -4.7962    4.5644   -2.3371 H         1 <0>         0.1199
     47 H15        -5.0338    2.1199   -2.1726 H         1 <0>         0.1236
     48 H16        -5.4546    2.4535    2.0672 H         1 <0>         0.1272
     49 H17        -5.2059    4.8963    1.8954 H         1 <0>         0.1219
     50 H18        -6.1414    0.3731   -1.8412 H         1 <0>         0.0695
     51 H19        -4.3631    0.2049   -1.6515 H         1 <0>         0.0769
     52 H20        -5.3754   -2.0301   -1.7915 H         1 <0>         0.0645
     53 H21        -4.7612   -1.7635   -0.1246 H         1 <0>         0.0539
     54 H22        -7.1311   -2.7003   -0.0694 H         1 <0>         0.4127
@<TRIPOS>BOND
     1    1    2 1
     2    1   34 1
     3    1   35 1
     4    1   36 1
     5    2    3 1
     6    2    4 1
     7    2   37 1
     8    3   38 1
     9    3   39 1
    10    3   40 1
    11    4   14 2
    12    4    5 1
    13    5   12 2
    14    5    6 1
    15    6    7 2
    16    6    8 am
    17    8    9 1
    18    8   10 1
    19   10   11 2
    20   10   23 1
    21   11   12 1
    22   12   13 1
    23   13   14 1
    24   13   15 1
    25   15   20 ar
    26   15   16 ar
    27   16   17 ar
    28   16   22 1
    29   17   18 ar
    30   17   41 1
    31   18   19 ar
    32   18   42 1
    33   19   20 ar
    34   19   43 1
    35   20   21 1
    36   23   24 1
    37   23   44 1
    38   23   45 1
    39   24   29 ar
    40   24   25 ar
    41   25   26 ar
    42   25   46 1
    43   26   27 ar
    44   26   47 1
    45   27   28 ar
    46   27   30 1
    47   28   29 ar
    48   28   48 1
    49   29   49 1
    50   30   31 1
    51   31   32 1
    52   31   50 1
    53   31   51 1
    54   32   33 1
    55   32   52 1
    56   32   53 1
    57   33   54 1
@<TRIPOS>MOLECULE
ZINC29056064
   53    56     0     0     0
SMALL
USER_CHARGES
1-(2,6-dichlorophenyl)-6-[[4-(2-hydroxyethoxy)phenyl]methyl]-3-isopropyl-5H-pyrazolo[3,4-d]pyrimidin-4-one
@<TRIPOS>ATOM
      1 C1          2.3572    8.4917    1.4942 C.3       1 <0>        -0.1356
      2 C2          1.5734    8.5299    0.1807 C.3       1 <0>        -0.0213
      3 C3          2.5502    8.5120   -0.9967 C.3       1 <0>        -0.1351
      4 C4          0.6681    7.3278    0.1008 C.2       1 <0>         0.1613
      5 C5         -0.7348    7.3590   -0.0077 C.ar      1 <0>        -0.3976
      6 C6         -1.7365    8.4226   -0.0767 C.ar      1 <0>         0.5480
      7 O1         -1.4146    9.5972   -0.0426 O.3       1 <0>        -0.5931
      8 N1         -3.0347    8.0531   -0.1803 N.ar      1 <0>        -0.6810
      9 C7         -3.3711    6.7390   -0.2170 C.ar      1 <0>         0.3959
     10 N2         -2.4939    5.7801   -0.1572 N.ar      1 <0>        -0.6094
     11 C8         -1.1793    6.0279   -0.0529 C.ar      1 <0>         0.3775
     12 N3         -0.0688    5.2451    0.0268 N.pl3     1 <0>        -0.3533
     13 N4          1.0510    6.0805    0.1260 N.2       1 <0>        -0.2964
     14 C9         -0.0497    3.8439    0.0174 C.ar      1 <0>         0.2037
     15 C10        -0.7963    3.1310    0.9473 C.ar      1 <0>        -0.0180
     16 C11        -0.7746    1.7489    0.9353 C.ar      1 <0>        -0.0985
     17 C12        -0.0111    1.0759   -0.0007 C.ar      1 <0>        -0.1076
     18 C13         0.7377    1.7821   -0.9240 C.ar      1 <0>        -0.1050
     19 C14         0.7164    3.1643   -0.9216 C.ar      1 <0>        -0.0276
     20 Cl1         1.6508    4.0499   -2.0863 Cl        1 <0>        -0.0424
     21 Cl2        -1.7557    3.9749    2.1224 Cl        1 <0>        -0.0263
     22 C15        -4.8284    6.3733   -0.3330 C.3       1 <0>        -0.0068
     23 C16        -4.9808    4.8776   -0.2304 C.ar      1 <0>        -0.0676
     24 C17        -4.9382    4.0996   -1.3726 C.ar      1 <0>        -0.0620
     25 C18        -5.0719    2.7277   -1.2807 C.ar      1 <0>        -0.2068
     26 C19        -5.2600    2.1317   -0.0421 C.ar      1 <0>         0.1155
     27 C20        -5.3080    2.9151    1.1019 C.ar      1 <0>        -0.1459
     28 C21        -5.1685    4.2861    1.0052 C.ar      1 <0>        -0.0628
     29 O2         -5.3973    0.7828    0.0504 O.3       1 <0>        -0.3112
     30 C22        -5.3375    0.0395   -1.1686 C.3       1 <0>         0.0597
     31 C23        -5.5106   -1.4503   -0.8665 C.3       1 <0>         0.0880
     32 O3         -6.8213   -1.6818   -0.3465 O.3       1 <0>        -0.5941
     33 H1          1.6549    8.5046    2.3407 H         1 <0>         0.0521
     34 H2          3.0179    9.3692    1.5525 H         1 <0>         0.0550
     35 H3          2.9622    7.5739    1.5336 H         1 <0>         0.0557
     36 H4          0.9554    9.4390    0.1401 H         1 <0>         0.1043
     37 H5          1.9867    8.5395   -1.9410 H         1 <0>         0.0515
     38 H6          3.1552    7.5942   -0.9573 H         1 <0>         0.0557
     39 H7          3.2109    9.3895   -0.9383 H         1 <0>         0.0549
     40 H8         -1.3550    1.1941    1.6576 H         1 <0>         0.1399
     41 H9          0.0040   -0.0040   -0.0077 H         1 <0>         0.1392
     42 H10         1.3367    1.2532   -1.6506 H         1 <0>         0.1392
     43 H11        -5.3932    6.8559    0.4782 H         1 <0>         0.0898
     44 H12        -5.2162    6.7156   -1.3038 H         1 <0>         0.0884
     45 H13        -4.7962    4.5644   -2.3371 H         1 <0>         0.1156
     46 H14        -5.0338    2.1199   -2.1726 H         1 <0>         0.1160
     47 H15        -5.4546    2.4535    2.0672 H         1 <0>         0.1195
     48 H16        -5.2059    4.8963    1.8954 H         1 <0>         0.1181
     49 H17        -6.1414    0.3731   -1.8412 H         1 <0>         0.0656
     50 H18        -4.3631    0.2049   -1.6515 H         1 <0>         0.0750
     51 H19        -5.3754   -2.0301   -1.7915 H         1 <0>         0.0608
     52 H20        -4.7612   -1.7635   -0.1246 H         1 <0>         0.0528
     53 H21        -7.1311   -2.7003   -0.0694 H         1 <0>         0.4068
@<TRIPOS>BOND
     1    1    2 1
     2    1   33 1
     3    1   34 1
     4    1   35 1
     5    2    3 1
     6    2    4 1
     7    2   36 1
     8    3   37 1
     9    3   38 1
    10    3   39 1
    11    4   13 2
    12    4    5 1
    13    5   11 ar
    14    5    6 ar
    15    6    7 1
    16    6    8 ar
    17    8    9 ar
    18    9   10 ar
    19    9   22 1
    20   10   11 ar
    21   11   12 1
    22   12   13 1
    23   12   14 1
    24   14   19 ar
    25   14   15 ar
    26   15   16 ar
    27   15   21 1
    28   16   17 ar
    29   16   40 1
    30   17   18 ar
    31   17   41 1
    32   18   19 ar
    33   18   42 1
    34   19   20 1
    35   22   23 1
    36   22   43 1
    37   22   44 1
    38   23   28 ar
    39   23   24 ar
    40   24   25 ar
    41   24   45 1
    42   25   26 ar
    43   25   46 1
    44   26   27 ar
    45   26   29 1
    46   27   28 ar
    47   27   47 1
    48   28   48 1
    49   29   30 1
    50   30   31 1
    51   30   49 1
    52   30   50 1
    53   31   32 1
    54   31   51 1
    55   31   52 1
    56   32   53 1
@<TRIPOS>MOLECULE
ZINC02047389
   35    37     0     0     0
SMALL
USER_CHARGES
4-(2-amino-4-methyl-thiazol-5-yl)-N-(3-nitrophenyl)-pyrimidin-2-amine
@<TRIPOS>ATOM
      1 C1         -0.3352    9.7451    0.3855 C.3       1 <0>        -0.0905
      2 C2          1.0683   10.2863    0.4765 C.2       1 <0>         0.1892
      3 C3          2.1516    9.4456    0.4437 C.2       1 <0>        -0.2443
      4 S1          3.4879   10.6229    0.5913 S.3       1 <0>         0.0803
      5 C4          2.5163   12.0599    0.6693 C.2       1 <0>         0.3677
      6 N1          1.2883   11.5754    0.5891 N.2       1 <0>        -0.5897
      7 N2          2.9227   13.3752    0.7905 N.pl3     1 <0>        -0.7863
      8 C5          2.1999    7.9776    0.3258 C.ar      1 <0>         0.3332
      9 C6          3.4297    7.3038    0.3117 C.ar      1 <0>        -0.2707
     10 C7          3.4239    5.9278    0.2000 C.ar      1 <0>         0.2012
     11 N3          2.2663    5.2881    0.1154 N.ar      1 <0>        -0.5701
     12 C8          1.1176    5.9489    0.1256 C.ar      1 <0>         0.5646
     13 N4          1.0742    7.2675    0.2311 N.ar      1 <0>        -0.5547
     14 N5         -0.0691    5.2405    0.0290 N.pl3     1 <0>        -0.6363
     15 C9         -0.0510    3.8425    0.0333 C.ar      1 <0>         0.1760
     16 C10        -0.9835    3.1319   -0.7120 C.ar      1 <0>        -0.1004
     17 C11        -0.9631    1.7513   -0.7052 C.ar      1 <0>        -0.0922
     18 C12        -0.0158    1.0757    0.0425 C.ar      1 <0>        -0.0777
     19 C13         0.9104    1.7799    0.7896 C.ar      1 <0>        -0.0222
     20 C14         0.8989    3.1611    0.7830 C.ar      1 <0>        -0.0570
     21 N6          1.9186    1.0527    1.5932 N.pl3     1 <0>         0.0280
     22 O1          1.9320   -0.1652    1.5961 O.2       1 <0>        -0.1580
     23 O2          2.7348    1.6723    2.2515 O.3       1 <0>        -0.1552
     24 H1         -0.7077    9.5307    1.3872 H         1 <0>         0.0791
     25 H2         -0.9794   10.4840   -0.0912 H         1 <0>         0.0712
     26 H3         -0.3338    8.8291   -0.2054 H         1 <0>         0.0997
     27 H4          2.2629   14.0853    0.8267 H         1 <0>         0.4203
     28 H5          3.8677   13.5883    0.8394 H         1 <0>         0.4243
     29 H6          4.3593    7.8485    0.3862 H         1 <0>         0.1461
     30 H7          4.3533    5.3778    0.1861 H         1 <0>         0.1761
     31 H8         -0.9125    5.7144   -0.0416 H         1 <0>         0.4300
     32 H9         -1.7237    3.6588   -1.2958 H         1 <0>         0.1460
     33 H10        -1.6880    1.1983   -1.2841 H         1 <0>         0.1526
     34 H11        -0.0023   -0.0042    0.0464 H         1 <0>         0.1544
     35 H12         1.6253    3.7105    1.3635 H         1 <0>         0.1650
@<TRIPOS>BOND
     1    1    2 1
     2    1   24 1
     3    1   25 1
     4    1   26 1
     5    2    6 1
     6    2    3 2
     7    3    4 1
     8    3    8 1
     9    4    5 1
    10    5    6 2
    11    5    7 1
    12    7   27 1
    13    7   28 1
    14    8   13 ar
    15    8    9 ar
    16    9   10 ar
    17    9   29 1
    18   10   11 ar
    19   10   30 1
    20   11   12 ar
    21   12   13 ar
    22   12   14 1
    23   14   15 1
    24   14   31 1
    25   15   20 ar
    26   15   16 ar
    27   16   17 ar
    28   16   32 1
    29   17   18 ar
    30   17   33 1
    31   18   19 ar
    32   18   34 1
    33   19   20 ar
    34   19   21 1
    35   20   35 1
    36   21   22 2
    37   21   23 1
@<TRIPOS>MOLECULE
ZINC21288966
   49    52     0     0     0
SMALL
USER_CHARGES
2-(2-chlorophenyl)-5,7-dihydroxy-8-[(3S,4R)-3-hydroxy-1-methyl-4-piperidyl]chromen-4-one
@<TRIPOS>ATOM
      1 C1          6.0895   -0.0238    5.9621 C.3       1 <0>        -0.0460
      2 N1          6.1756    1.0472    4.9603 N.4       1 <0>        -0.3934
      3 C2          5.9739    0.5180    3.6055 C.3       1 <0>        -0.0028
      4 C3          6.2126    1.6289    2.5802 C.3       1 <0>        -0.1464
      5 C4          5.2418    2.7821    2.8491 C.3       1 <0>        -0.0180
      6 H1          4.2050    2.4431    2.7074 H         1 <0>         0.1039
      7 C5          5.4391    3.2830    4.2825 C.3       1 <0>         0.1015
      8 H2          4.7709    4.1271    4.5084 H         1 <0>         0.0941
      9 C6          5.2218    2.1236    5.2574 C.3       1 <0>        -0.0361
     10 O1          6.7669    3.7898    4.4323 O.3       1 <0>        -0.5639
     11 C7          5.5132    3.9050    1.8814 C.ar      1 <0>        -0.2158
     12 C8          6.8017    4.3949    1.7322 C.ar      1 <0>         0.2946
     13 C9          7.0678    5.4304    0.8434 C.ar      1 <0>        -0.3049
     14 C10         6.0448    5.9841    0.0956 C.ar      1 <0>         0.3111
     15 C11         4.7411    5.4942    0.2412 C.ar      1 <0>        -0.3649
     16 C12         4.4748    4.4470    1.1407 C.ar      1 <0>         0.2362
     17 O2          3.2147    3.9814    1.2730 O.3       1 <0>        -0.2171
     18 C13         2.1871    4.4838    0.5705 C.2       1 <0>         0.1982
     19 C14         2.3394    5.4926   -0.3277 C.2       1 <0>        -0.2780
     20 C15         3.6225    6.0546   -0.5353 C.2       1 <0>         0.4382
     21 O3          3.7953    6.9641   -1.3304 O.2       1 <0>        -0.4786
     22 C16         0.8407    3.9147    0.7769 C.ar      1 <0>        -0.0680
     23 C17         0.6478    2.5322    0.7263 C.ar      1 <0>        -0.0708
     24 C18        -0.6124    2.0073    0.9205 C.ar      1 <0>        -0.1159
     25 C19        -1.6867    2.8467    1.1599 C.ar      1 <0>        -0.0780
     26 C20        -1.5036    4.2164    1.2169 C.ar      1 <0>        -0.1066
     27 C21        -0.2472    4.7566    1.0243 C.ar      1 <0>        -0.0057
     28 Cl1        -0.0199    6.4765    1.0889 Cl        1 <0>        -0.0424
     29 O4          6.3024    6.9947   -0.7728 O.3       1 <0>        -0.4999
     30 O5          7.8133    3.8585    2.4614 O.3       1 <0>        -0.4665
     31 H3          6.8128   -0.8151    5.7159 H         1 <0>         0.1242
     32 H4          5.0728   -0.4438    5.9634 H         1 <0>         0.1169
     33 H5          6.3184    0.3856    6.9571 H         1 <0>         0.1225
     34 H6          6.6809   -0.3050    3.4243 H         1 <0>         0.1308
     35 H7          4.9438    0.1448    3.5072 H         1 <0>         0.1211
     36 H8          7.2477    1.9910    2.6662 H         1 <0>         0.1216
     37 H9          6.0450    1.2349    1.5669 H         1 <0>         0.1057
     38 H10         4.1951    1.7434    5.1512 H         1 <0>         0.1298
     39 H11         5.3771    2.4772    6.2874 H         1 <0>         0.1312
     40 H12         7.0946    4.1958    5.4007 H         1 <0>         0.4106
     41 H13         8.0758    5.8030    0.7365 H         1 <0>         0.1471
     42 H14         1.4871    5.8659   -0.8759 H         1 <0>         0.1670
     43 H15         1.4839    1.8757    0.5352 H         1 <0>         0.1384
     44 H16        -0.7625    0.9385    0.8812 H         1 <0>         0.1407
     45 H17        -2.6721    2.4298    1.3071 H         1 <0>         0.1438
     46 H18        -2.3456    4.8651    1.4082 H         1 <0>         0.1476
     47 H19         5.4855    7.4321   -1.3656 H         1 <0>         0.4556
     48 H20         8.8375    4.2431    2.3473 H         1 <0>         0.4397
     49 H21         7.1882    1.4744    5.0059 H         1 <0>         0.4481
@<TRIPOS>BOND
     1    1    2 1
     2    1   31 1
     3    1   32 1
     4    1   33 1
     5    2    9 1
     6    2    3 1
     7    2   49 1
     8    3    4 1
     9    3   34 1
    10    3   35 1
    11    4    5 1
    12    4   36 1
    13    4   37 1
    14    5    6 1
    15    5    7 1
    16    5   11 1
    17    7    8 1
    18    7    9 1
    19    7   10 1
    20    9   38 1
    21    9   39 1
    22   10   40 1
    23   11   16 ar
    24   11   12 ar
    25   12   13 ar
    26   12   30 1
    27   13   14 ar
    28   13   41 1
    29   14   15 ar
    30   14   29 1
    31   15   20 1
    32   15   16 ar
    33   16   17 1
    34   17   18 1
    35   18   19 2
    36   18   22 1
    37   19   20 1
    38   19   42 1
    39   20   21 2
    40   22   27 ar
    41   22   23 ar
    42   23   24 ar
    43   23   43 1
    44   24   25 ar
    45   24   44 1
    46   25   26 ar
    47   25   45 1
    48   26   27 ar
    49   26   46 1
    50   27   28 1
    51   29   47 1
    52   30   48 1
