@<TRIPOS>MOLECULE
ZINC02007763
   64    68     0     0     0
SMALL
USER_CHARGES
(11S)-11-[3-[4-(4-fluorophenyl)-4-hydroxy-1-piperidyl]propyl]-6H-benzo[c][1]benzothiepine-11-carbonitrile
@<TRIPOS>ATOM
      1 C1         -1.2010    5.1045   -6.7499 C.ar      1 <0>        -0.1049
      2 C2         -0.0752    4.3018   -6.8022 C.ar      1 <0>        -0.0989
      3 C3         -0.2210    2.9627   -6.5406 C.ar      1 <0>        -0.1238
      4 C4         -1.4789    2.4075   -6.2147 C.ar      1 <0>        -0.0514
      5 C5         -2.5444    3.1659   -6.1020 C.ar      1 <0>        -0.0636
      6 C6         -2.4032    4.5482   -6.4119 C.ar      1 <0>        -0.1221
      7 C7         -3.9707    2.9597   -5.6293 C.3       1 <0>        -0.0740
      8 S1         -4.7640    1.5243   -6.3508 S.3       1 <0>        -0.0908
      9 C8         -3.7937    0.1096   -5.9010 C.ar      1 <0>        -0.0642
     10 C9         -4.6241   -0.9980   -5.5771 C.ar      1 <0>        -0.0965
     11 C10        -4.1103   -2.2216   -5.2455 C.ar      1 <0>        -0.0976
     12 C11        -2.7361   -2.3890   -5.2387 C.ar      1 <0>        -0.1004
     13 C12        -1.9373   -1.3147   -5.5310 C.ar      1 <0>        -0.1267
     14 C13        -2.4714   -0.0419   -5.8419 C.ar      1 <0>        -0.0536
     15 C14        -1.4185    0.9525   -6.0391 C.3       1 <0>         0.1402
     16 C15        -0.4516    0.7374   -4.8730 C.3       1 <0>        -0.1313
     17 C16        -1.0607    1.3124   -3.5927 C.3       1 <0>        -0.1502
     18 C17        -0.1526    0.9870   -2.4051 C.3       1 <0>        -0.0035
     19 C18        -0.0256    1.0494    0.0116 C.3       1 <0>         0.0031
     20 C19        -0.7485    1.5258    1.2736 C.3       1 <0>        -0.1719
     21 C20        -0.7982    3.0562    1.2805 C.3       1 <0>         0.1770
     22 C21        -1.5016    3.5417    0.0100 C.3       1 <0>        -0.1339
     23 C22        -0.7571    3.0069   -1.2155 C.3       1 <0>        -0.0026
     24 C23        -1.5610    3.5299    2.4908 C.ar      1 <0>        -0.1422
     25 C24        -2.9289    3.7157    2.4159 C.ar      1 <0>        -0.0830
     26 C25        -3.6302    4.1454    3.5265 C.ar      1 <0>        -0.1481
     27 C26        -2.9607    4.3999    4.7115 C.ar      1 <0>         0.1168
     28 C27        -1.5900    4.2185    4.7838 C.ar      1 <0>        -0.1457
     29 C28        -0.8916    3.7837    3.6734 C.ar      1 <0>        -0.0757
     30 F1         -3.6446    4.8246    5.7965 F         1 <0>        -0.1293
     31 O1          0.5314    3.5785    1.3195 O.3       1 <0>        -0.5476
     32 C29        -0.6501    0.4639   -7.1956 C.1       1 <0>         0.1888
     33 N1         -0.0571    0.0868   -8.0882 N.1       1 <0>        -0.3946
     34 H1         -1.1309    6.1587   -6.9741 H         1 <0>         0.1332
     35 H2          0.8920    4.7179   -7.0426 H         1 <0>         0.1354
     36 H3          0.6450    2.3188   -6.5845 H         1 <0>         0.1261
     37 H4         -3.2780    5.1806   -6.3787 H         1 <0>         0.1285
     38 H5         -3.9661    2.8476   -4.5451 H         1 <0>         0.0979
     39 H6         -4.5538    3.8450   -5.8831 H         1 <0>         0.1324
     40 H7         -5.6962   -0.8689   -5.5930 H         1 <0>         0.1364
     41 H8         -4.7651   -3.0427   -4.9938 H         1 <0>         0.1381
     42 H9         -2.3010   -3.3501   -5.0073 H         1 <0>         0.1358
     43 H10        -0.8650   -1.4436   -5.5237 H         1 <0>         0.1310
     44 H11         0.4913    1.2415   -5.0851 H         1 <0>         0.0930
     45 H12        -0.2716   -0.3297   -4.7424 H         1 <0>         0.1023
     46 H13        -2.0445    0.8726   -3.4290 H         1 <0>         0.0921
     47 H14        -1.1578    2.3936   -3.6903 H         1 <0>         0.0942
     48 H15         0.8312    1.4268   -2.5687 H         1 <0>         0.1347
     49 H16        -0.0556   -0.0943   -2.3075 H         1 <0>         0.1321
     50 H17        -0.0009   -0.0402   -0.0033 H         1 <0>         0.1310
     51 H18         0.9936    1.4359    0.0091 H         1 <0>         0.1368
     52 H19        -1.7634    1.1286    1.2835 H         1 <0>         0.1006
     53 H20        -0.2113    1.1754    2.1549 H         1 <0>         0.1172
     54 H21        -1.5024    4.6315   -0.0117 H         1 <0>         0.1232
     55 H22        -2.5284    3.1761    0.0002 H         1 <0>         0.1035
     56 H23         0.2656    3.3840   -1.2123 H         1 <0>         0.1405
     57 H24        -1.2639    3.3389   -2.1216 H         1 <0>         0.1309
     58 H25        -3.4502    3.5210    1.4903 H         1 <0>         0.1341
     59 H26        -4.6993    4.2865    3.4690 H         1 <0>         0.1431
     60 H27        -1.0669    4.4164    5.7077 H         1 <0>         0.1438
     61 H28         0.1776    3.6418    3.7296 H         1 <0>         0.1332
     62 H29         1.0365    3.3105    2.0994 H         1 <0>         0.3907
     63 N2         -0.7658    1.5292   -1.1750 N.4       1 <0>        -0.3938
     64 H30        -1.7377    1.2034   -1.1155 H         1 <0>         0.4242
@<TRIPOS>BOND
     1    1    6 ar
     2    1    2 ar
     3    1   34 1
     4    2    3 ar
     5    2   35 1
     6    3    4 ar
     7    3   36 1
     8    4   15 1
     9    4    5 ar
    10    5    6 ar
    11    5    7 1
    12    6   37 1
    13    7    8 1
    14    7   38 1
    15    7   39 1
    16    8    9 1
    17    9   14 ar
    18    9   10 ar
    19   10   11 ar
    20   10   40 1
    21   11   12 ar
    22   11   41 1
    23   12   13 ar
    24   12   42 1
    25   13   14 ar
    26   13   43 1
    27   14   15 1
    28   15   16 1
    29   15   32 1
    30   16   17 1
    31   16   44 1
    32   16   45 1
    33   17   18 1
    34   17   46 1
    35   17   47 1
    36   18   48 1
    37   18   49 1
    38   18   63 1
    39   19   20 1
    40   19   50 1
    41   19   51 1
    42   19   63 1
    43   20   21 1
    44   20   52 1
    45   20   53 1
    46   21   22 1
    47   21   24 1
    48   21   31 1
    49   22   23 1
    50   22   54 1
    51   22   55 1
    52   23   56 1
    53   23   57 1
    54   23   63 1
    55   24   29 ar
    56   24   25 ar
    57   25   26 ar
    58   25   58 1
    59   26   27 ar
    60   26   59 1
    61   27   28 ar
    62   27   30 1
    63   28   29 ar
    64   28   60 1
    65   29   61 1
    66   31   62 1
    67   32   33 3
    68   63   64 1
@<TRIPOS>MOLECULE
ZINC03981168
   64    68     0     0     0
SMALL
USER_CHARGES
3-[4-(4-fluorophenyl)-4-hydroxy-1-piperidyl]propylBLAHcarbonitrile
@<TRIPOS>ATOM
      1 C1          0.4282    1.1130   -1.3283 C.ar      1 <0>        -0.1050
      2 C2         -0.6365    1.5433   -2.1003 C.ar      1 <0>        -0.1032
      3 C3         -1.5349    2.4141   -1.5374 C.ar      1 <0>        -0.1266
      4 C4         -1.3849    2.8735   -0.2091 C.ar      1 <0>        -0.0533
      5 C5         -0.4184    2.4240    0.5561 C.ar      1 <0>        -0.0562
      6 C6          0.5279    1.5380   -0.0330 C.ar      1 <0>        -0.1215
      7 C7         -0.0179    2.5998    2.0090 C.3       1 <0>        -0.0794
      8 S1          0.0283    4.3126    2.5337 S.3       1 <0>        -0.0959
      9 C8         -1.5980    4.9735    2.2848 C.ar      1 <0>        -0.0710
     10 C9         -1.9627    5.8335    3.3588 C.ar      1 <0>        -0.0962
     11 C10        -3.1442    6.5219    3.3733 C.ar      1 <0>        -0.0992
     12 C11        -4.0182    6.3733    2.3101 C.ar      1 <0>        -0.0952
     13 C12        -3.6757    5.5270    1.2878 C.ar      1 <0>        -0.1248
     14 C13        -2.4602    4.8029    1.2874 C.ar      1 <0>        -0.0480
     15 C14        -2.3680    3.9091    0.1306 C.3       1 <0>         0.1383
     16 C15        -2.3790    4.8355   -1.0869 C.3       1 <0>        -0.1291
     17 C16        -1.1102    5.6906   -1.0886 C.3       1 <0>        -0.1499
     18 C17        -1.1303    6.6306   -2.2956 C.3       1 <0>        -0.0035
     19 C18         0.1130    8.3581   -1.1422 C.3       1 <0>        -0.0017
     20 C19         1.4561    9.0903   -1.0959 C.3       1 <0>        -0.1705
     21 C20         1.6458    9.8811   -2.3933 C.3       1 <0>         0.1768
     22 C21         1.5672    8.9207   -3.5832 C.3       1 <0>        -0.1347
     23 C22         0.2209    8.1934   -3.5575 C.3       1 <0>         0.0022
     24 C23         2.9925   10.5574   -2.3800 C.ar      1 <0>        -0.1412
     25 C24         4.1009    9.8991   -2.8792 C.ar      1 <0>        -0.0829
     26 C25         5.3354   10.5201   -2.8720 C.ar      1 <0>        -0.1481
     27 C26         5.4639   11.7981   -2.3549 C.ar      1 <0>         0.1162
     28 C27         4.3540   12.4543   -1.8503 C.ar      1 <0>        -0.1458
     29 C28         3.1195   11.8333   -1.8634 C.ar      1 <0>        -0.0758
     30 F1          6.6711   12.4043   -2.3430 F         1 <0>        -0.1296
     31 O1          0.6174   10.8668   -2.5064 O.3       1 <0>        -0.5479
     32 C29        -3.6808    3.2474    0.0554 C.1       1 <0>         0.1872
     33 N1         -4.6939    2.7368   -0.0026 N.1       1 <0>        -0.3954
     34 H1          1.1715    0.4490   -1.7441 H         1 <0>         0.1327
     35 H2         -0.7571    1.2026   -3.1181 H         1 <0>         0.1353
     36 H3         -2.3760    2.7560   -2.1223 H         1 <0>         0.1325
     37 H4          1.3556    1.1885    0.5663 H         1 <0>         0.1283
     38 H5          0.9703    2.1633    2.1542 H         1 <0>         0.1335
     39 H6         -0.7297    2.0618    2.6351 H         1 <0>         0.1043
     40 H7         -1.2811    5.9497    4.1885 H         1 <0>         0.1363
     41 H8         -3.3914    7.1705    4.2007 H         1 <0>         0.1382
     42 H9         -4.9528    6.9140    2.2868 H         1 <0>         0.1361
     43 H10        -4.3551    5.4088    0.4567 H         1 <0>         0.1252
     44 H11        -2.4156    4.2380   -1.9978 H         1 <0>         0.1026
     45 H12        -3.2540    5.4839   -1.0423 H         1 <0>         0.0909
     46 H13        -1.0668    6.2780   -0.1714 H         1 <0>         0.0955
     47 H14        -0.2356    5.0428   -1.1470 H         1 <0>         0.0955
     48 H15        -1.1737    6.0432   -3.2128 H         1 <0>         0.1315
     49 H16        -2.0049    7.2783   -2.2372 H         1 <0>         0.1333
     50 H17        -0.6940    9.0851   -1.2335 H         1 <0>         0.1363
     51 H18        -0.0187    7.7826   -0.2259 H         1 <0>         0.1325
     52 H19         2.2627    8.3647   -0.9907 H         1 <0>         0.1009
     53 H20         1.4684    9.7745   -0.2475 H         1 <0>         0.1165
     54 H21         2.3755    8.1925   -3.5172 H         1 <0>         0.1038
     55 H22         1.6592    9.4833   -4.5123 H         1 <0>         0.1231
     56 H23         0.1675    7.4984   -4.3954 H         1 <0>         0.1310
     57 H24        -0.5866    8.9212   -3.6375 H         1 <0>         0.1395
     58 H25         4.0012    8.9006   -3.2788 H         1 <0>         0.1342
     59 H26         6.2005   10.0072   -3.2658 H         1 <0>         0.1429
     60 H27         4.4530   13.4513   -1.4470 H         1 <0>         0.1436
     61 H28         2.2536   12.3452   -1.4702 H         1 <0>         0.1331
     62 H29         0.6079   11.5100   -1.7843 H         1 <0>         0.3904
     63 N2          0.1108    7.4323   -2.2947 N.4       1 <0>        -0.3932
     64 H30         0.9160    6.8002   -2.2156 H         1 <0>         0.4248
@<TRIPOS>BOND
     1    1    6 ar
     2    1    2 ar
     3    1   34 1
     4    2    3 ar
     5    2   35 1
     6    3    4 ar
     7    3   36 1
     8    4   15 1
     9    4    5 ar
    10    5    6 ar
    11    5    7 1
    12    6   37 1
    13    7    8 1
    14    7   38 1
    15    7   39 1
    16    8    9 1
    17    9   14 ar
    18    9   10 ar
    19   10   11 ar
    20   10   40 1
    21   11   12 ar
    22   11   41 1
    23   12   13 ar
    24   12   42 1
    25   13   14 ar
    26   13   43 1
    27   14   15 1
    28   15   16 1
    29   15   32 1
    30   16   17 1
    31   16   44 1
    32   16   45 1
    33   17   18 1
    34   17   46 1
    35   17   47 1
    36   18   48 1
    37   18   49 1
    38   18   63 1
    39   19   20 1
    40   19   50 1
    41   19   51 1
    42   19   63 1
    43   20   21 1
    44   20   52 1
    45   20   53 1
    46   21   22 1
    47   21   24 1
    48   21   31 1
    49   22   23 1
    50   22   54 1
    51   22   55 1
    52   23   56 1
    53   23   57 1
    54   23   63 1
    55   24   29 ar
    56   24   25 ar
    57   25   26 ar
    58   25   58 1
    59   26   27 ar
    60   26   59 1
    61   27   28 ar
    62   27   30 1
    63   28   29 ar
    64   28   60 1
    65   29   61 1
    66   31   62 1
    67   32   33 3
    68   63   64 1
@<TRIPOS>MOLECULE
ZINC13613346
   70    73     0     0     0
SMALL
USER_CHARGES
1-(5-acetyl-4-methyl-thiazol-2-yl)-3-[(1R,2S)-2-[[(3S)-3-[(4-fluorophenyl)methyl]-1-piperidyl]methyl]cyclohexyl]urea
@<TRIPOS>ATOM
      1 C1         -5.6728    3.5355   10.4423 C.3       1 <0>        -0.0985
      2 C2         -4.6582    2.4944   10.0451 C.2       1 <0>         0.1933
      3 C3         -3.7716    1.9589   10.9773 C.2       1 <0>        -0.3113
      4 S1         -2.8609    0.8186    9.9455 S.3       1 <0>         0.1442
      5 C4         -3.6901    1.1481    8.4559 C.2       1 <0>         0.3169
      6 N1         -4.5788    2.0630    8.8160 N.2       1 <0>        -0.5137
      7 N2         -3.4800    0.5913    7.2086 N.am      1 <0>        -0.6248
      8 C5         -4.2380    0.9759    6.1626 C.2       1 <0>         0.6890
      9 O1         -5.1064    1.8126    6.3164 O.2       1 <0>        -0.4745
     10 N3         -4.0331    0.4330    4.9462 N.am      1 <0>        -0.7457
     11 C6         -4.8570    0.8510    3.8092 C.3       1 <0>         0.1464
     12 H1         -5.0943    1.9108    3.9027 H         1 <0>         0.1167
     13 C7         -6.1528    0.0378    3.7921 C.3       1 <0>        -0.1315
     14 C8         -7.0133    0.4744    2.6047 C.3       1 <0>        -0.1229
     15 C9         -6.2447    0.2367    1.3032 C.3       1 <0>        -0.1247
     16 C10        -4.9489    1.0500    1.3204 C.3       1 <0>        -0.1077
     17 C11        -4.0884    0.6134    2.5078 C.3       1 <0>        -0.1184
     18 H2         -3.8511   -0.4464    2.4143 H         1 <0>         0.1014
     19 C12        -2.7926    1.4266    2.5249 C.3       1 <0>        -0.0042
     20 C13        -1.3448   -0.3944    3.1945 C.3       1 <0>        -0.0167
     21 C14        -0.5437   -0.9679    4.3656 C.3       1 <0>        -0.1472
     22 C15         0.5823    0.0038    4.7329 C.3       1 <0>        -0.1376
     23 C16        -0.0241    1.3672    5.0765 C.3       1 <0>        -0.1063
     24 H3         -0.6734    1.2679    5.9463 H         1 <0>         0.0863
     25 C17        -0.8401    1.8730    3.8848 C.3       1 <0>        -0.0032
     26 C18         1.0969    2.3613    5.3868 C.3       1 <0>        -0.0692
     27 C19         1.8243    1.9254    6.6325 C.ar      1 <0>        -0.1091
     28 C20         1.4045    2.3751    7.8705 C.ar      1 <0>        -0.0849
     29 C21         2.0679    1.9722    9.0140 C.ar      1 <0>        -0.1488
     30 C22         3.1598    1.1261    8.9185 C.ar      1 <0>         0.1092
     31 C23         3.5825    0.6806    7.6776 C.ar      1 <0>        -0.1504
     32 C24         2.9144    1.0806    6.5359 C.ar      1 <0>        -0.0842
     33 F1          3.8119    0.7354   10.0353 F         1 <0>        -0.1325
     34 C25        -3.6351    2.2352   12.3519 C.2       1 <0>         0.4350
     35 O2         -4.3618    3.0514   12.8826 O.2       1 <0>        -0.4405
     36 C26        -2.5875    1.5183   13.1641 C.3       1 <0>        -0.1890
     37 H4         -6.5941    3.0442   10.7553 H         1 <0>         0.0902
     38 H5         -5.2797    4.1299   11.2671 H         1 <0>         0.1003
     39 H6         -5.8785    4.1855    9.5918 H         1 <0>         0.0817
     40 H7         -2.7871   -0.0763    7.0859 H         1 <0>         0.4219
     41 H8         -3.3401   -0.2346    4.8235 H         1 <0>         0.3858
     42 H9         -6.7004    0.2071    4.7192 H         1 <0>         0.0818
     43 H10        -5.9155   -1.0220    3.6986 H         1 <0>         0.0717
     44 H11        -7.2506    1.5341    2.6981 H         1 <0>         0.0725
     45 H12        -7.9365   -0.1050    2.5924 H         1 <0>         0.0786
     46 H13        -6.8577    0.5478    0.4573 H         1 <0>         0.0807
     47 H14        -6.0074   -0.8230    1.2097 H         1 <0>         0.0694
     48 H15        -5.1862    2.1097    1.4138 H         1 <0>         0.0813
     49 H16        -4.4013    0.8806    0.3932 H         1 <0>         0.0849
     50 H17        -3.0228    2.4727    2.7269 H         1 <0>         0.1320
     51 H18        -2.2987    1.3436    1.5568 H         1 <0>         0.1388
     52 H19        -2.1556   -1.0770    2.9402 H         1 <0>         0.1264
     53 H20        -0.6897   -0.2715    2.3320 H         1 <0>         0.1378
     54 H21        -1.2013   -1.1039    5.2242 H         1 <0>         0.0746
     55 H22        -0.1160   -1.9284    4.0782 H         1 <0>         0.1198
     56 H23         1.2618    0.1101    3.8873 H         1 <0>         0.0892
     57 H24         1.1288   -0.3794    5.5946 H         1 <0>         0.1011
     58 H25        -1.2845    2.8372    4.1319 H         1 <0>         0.1269
     59 H26        -0.1875    1.9851    3.0190 H         1 <0>         0.1349
     60 H27         1.7955    2.3937    4.5507 H         1 <0>         0.0889
     61 H28         0.6708    3.3523    5.5428 H         1 <0>         0.0863
     62 H29         0.5554    3.0383    7.9444 H         1 <0>         0.1302
     63 H30         1.7372    2.3204    9.9814 H         1 <0>         0.1395
     64 H31         4.4339    0.0203    7.6019 H         1 <0>         0.1399
     65 H32         3.2442    0.7335    5.5679 H         1 <0>         0.1333
     66 H33        -1.7354    2.0413   13.1451 H         1 <0>         0.0904
     67 H34        -2.9307    1.4200   14.1940 H         1 <0>         0.0983
     68 H35        -2.4155    0.5280   12.7424 H         1 <0>         0.0792
     69 N4         -1.9210    0.9057    3.5983 N.4       1 <0>        -0.4126
     70 H36        -2.4820    0.7719    4.4478 H         1 <0>         0.4031
@<TRIPOS>BOND
     1    1    2 1
     2    1   37 1
     3    1   38 1
     4    1   39 1
     5    2    6 1
     6    2    3 2
     7    3    4 1
     8    3   34 1
     9    4    5 1
    10    5    6 2
    11    5    7 1
    12    7    8 am
    13    7   40 1
    14    8    9 2
    15    8   10 am
    16   10   11 1
    17   10   41 1
    18   11   12 1
    19   11   17 1
    20   11   13 1
    21   13   14 1
    22   13   42 1
    23   13   43 1
    24   14   15 1
    25   14   44 1
    26   14   45 1
    27   15   16 1
    28   15   46 1
    29   15   47 1
    30   16   17 1
    31   16   48 1
    32   16   49 1
    33   17   18 1
    34   17   19 1
    35   19   50 1
    36   19   51 1
    37   19   69 1
    38   20   21 1
    39   20   52 1
    40   20   53 1
    41   20   69 1
    42   21   22 1
    43   21   54 1
    44   21   55 1
    45   22   23 1
    46   22   56 1
    47   22   57 1
    48   23   24 1
    49   23   25 1
    50   23   26 1
    51   25   58 1
    52   25   59 1
    53   25   69 1
    54   26   27 1
    55   26   60 1
    56   26   61 1
    57   27   32 ar
    58   27   28 ar
    59   28   29 ar
    60   28   62 1
    61   29   30 ar
    62   29   63 1
    63   30   31 ar
    64   30   33 1
    65   31   32 ar
    66   31   64 1
    67   32   65 1
    68   34   35 2
    69   34   36 1
    70   36   66 1
    71   36   67 1
    72   36   68 1
    73   69   70 1
@<TRIPOS>MOLECULE
ZINC15564548
   51    54     0     0     0
SMALL
USER_CHARGES
2-(1,3-benzothiazol-2-ylsulfanyl)-N-(1-benzyl-4-piperidyl)acetamide
@<TRIPOS>ATOM
      1 C1         -9.5707   14.2514    5.2467 C.ar      1 <0>        -0.0834
      2 C2         -8.4078   14.6877    4.6398 C.ar      1 <0>        -0.1132
      3 C3         -8.1798   14.4125    3.3045 C.ar      1 <0>        -0.0967
      4 C4         -9.1149   13.7014    2.5759 C.ar      1 <0>        -0.1644
      5 C5        -10.2804   13.2701    3.1812 C.ar      1 <0>        -0.0944
      6 C6        -10.5058   13.5404    4.5180 C.ar      1 <0>        -0.1134
      7 C7         -8.8665   13.4018    1.1200 C.3       1 <0>         0.0491
      8 C8         -8.1078   11.6789   -0.4020 C.3       1 <0>         0.0034
      9 C9         -7.4953   10.2783   -0.4745 C.3       1 <0>        -0.1572
     10 C10        -6.0852   10.3117    0.1213 C.3       1 <0>         0.1369
     11 C11        -6.1609   10.8208    1.5634 C.3       1 <0>        -0.1613
     12 C12        -6.8121   12.2056    1.5769 C.3       1 <0>        -0.0028
     13 N1         -5.5160    8.9619    0.1078 N.am      1 <0>        -0.7234
     14 C13        -4.1787    8.7946    0.0933 C.2       1 <0>         0.5462
     15 O1         -3.4466    9.7615    0.0914 O.2       1 <0>        -0.5064
     16 C14        -3.5931    7.4061    0.0795 C.3       1 <0>        -0.1881
     17 S1         -1.7864    7.5134    0.0618 S.3       1 <0>         0.1461
     18 C15        -1.3782    5.7994    0.0479 C.2       1 <0>         0.0959
     19 N2         -0.1914    5.2346    0.0326 N.2       1 <0>        -0.4704
     20 C16        -0.0267    3.8938    0.0233 C.ar      1 <0>         0.0780
     21 C17         1.1840    3.1634    0.0073 C.ar      1 <0>        -0.0547
     22 C18         1.1750    1.7928    0.0005 C.ar      1 <0>        -0.1074
     23 C19        -0.0126    1.0758    0.0080 C.ar      1 <0>        -0.0843
     24 C20        -1.2156    1.7582    0.0173 C.ar      1 <0>        -0.0701
     25 C21        -1.2161    3.1304    0.0310 C.ar      1 <0>        -0.1289
     26 S2         -2.4725    4.3864    0.0509 S.3       1 <0>        -0.0197
     27 H1         -9.7485   14.4658    6.2901 H         1 <0>         0.1361
     28 H2         -7.6773   15.2432    5.2091 H         1 <0>         0.1365
     29 H3         -7.2713   14.7533    2.8304 H         1 <0>         0.1315
     30 H4        -11.0130   12.7184    2.6108 H         1 <0>         0.1310
     31 H5        -11.4142   13.1993    4.9922 H         1 <0>         0.1361
     32 H6         -8.2595   14.1953    0.6841 H         1 <0>         0.1379
     33 H7         -9.8192   13.3424    0.5936 H         1 <0>         0.1362
     34 H8         -7.4970   12.3727   -0.9797 H         1 <0>         0.1358
     35 H9         -9.1173   11.6556   -0.8125 H         1 <0>         0.1361
     36 H10        -7.4433    9.9573   -1.5149 H         1 <0>         0.1214
     37 H11        -8.1132    9.5812    0.0915 H         1 <0>         0.0955
     38 H12        -5.4561   10.9782   -0.4687 H         1 <0>         0.1094
     39 H13        -6.7578   10.1322    2.1615 H         1 <0>         0.0910
     40 H14        -5.1555   10.8873    1.9791 H         1 <0>         0.1181
     41 H15        -6.2073   12.8970    0.9899 H         1 <0>         0.1344
     42 H16        -6.8805   12.5648    2.6037 H         1 <0>         0.1334
     43 H17        -6.1015    8.1885    0.1094 H         1 <0>         0.4106
     44 H18        -3.9344    6.8767   -0.8101 H         1 <0>         0.1313
     45 H19        -3.9164    6.8666    0.9697 H         1 <0>         0.1307
     46 H20         2.1261    3.6913    0.0008 H         1 <0>         0.1380
     47 H21         2.1137    1.2590   -0.0114 H         1 <0>         0.1406
     48 H22         0.0021   -0.0041    0.0020 H         1 <0>         0.1445
     49 H23        -2.1488    1.2145    0.0184 H         1 <0>         0.1367
     50 N3         -8.1748   12.1006    1.0135 N.4       1 <0>        -0.3945
     51 H24        -8.7019   11.3983    1.5456 H         1 <0>         0.4261
@<TRIPOS>BOND
     1    1    6 ar
     2    1    2 ar
     3    1   27 1
     4    2    3 ar
     5    2   28 1
     6    3    4 ar
     7    3   29 1
     8    4    5 ar
     9    4    7 1
    10    5    6 ar
    11    5   30 1
    12    6   31 1
    13    7   32 1
    14    7   33 1
    15    7   50 1
    16    8    9 1
    17    8   34 1
    18    8   35 1
    19    8   50 1
    20    9   10 1
    21    9   36 1
    22    9   37 1
    23   10   11 1
    24   10   13 1
    25   10   38 1
    26   11   12 1
    27   11   39 1
    28   11   40 1
    29   12   41 1
    30   12   42 1
    31   12   50 1
    32   13   14 am
    33   13   43 1
    34   14   15 2
    35   14   16 1
    36   16   17 1
    37   16   44 1
    38   16   45 1
    39   17   18 1
    40   18   26 1
    41   18   19 2
    42   19   20 1
    43   20   25 ar
    44   20   21 ar
    45   21   22 ar
    46   21   46 1
    47   22   23 ar
    48   22   47 1
    49   23   24 ar
    50   23   48 1
    51   24   25 ar
    52   24   49 1
    53   25   26 1
    54   50   51 1
@<TRIPOS>MOLECULE
ZINC00602832
   53    56     0     0     0
SMALL
USER_CHARGES
2-(6-aminobenzothiazol-2-yl)sulfanyl-N-[1-[(3,4-dichlorophenyl)methyl]-4-piperidyl]-acetamide
@<TRIPOS>ATOM
      1 C1         11.8204   10.2567    3.2730 C.ar      1 <0>        -0.0771
      2 C2         12.3431   10.1440    4.5479 C.ar      1 <0>        -0.0932
      3 C3         13.2685    9.1560    4.8310 C.ar      1 <0>        -0.0063
      4 C4         13.6670    8.2766    3.8381 C.ar      1 <0>        -0.0349
      5 C5         13.1392    8.3875    2.5646 C.ar      1 <0>        -0.0777
      6 C6         12.2142    9.3758    2.2833 C.ar      1 <0>        -0.1477
      7 C7         11.6397    9.4965    0.8954 C.3       1 <0>         0.0498
      8 C8          9.9715    8.5765   -0.5984 C.3       1 <0>         0.0047
      9 C9          8.6316    7.8388   -0.6481 C.3       1 <0>        -0.1572
     10 C10         8.8016    6.4407   -0.0474 C.3       1 <0>         0.1368
     11 C11         9.3221    6.5697    1.3868 C.3       1 <0>        -0.1606
     12 C12        10.6420    7.3442    1.3775 C.3       1 <0>        -0.0060
     13 N1          7.5091    5.7510   -0.0390 N.am      1 <0>        -0.7246
     14 C13         7.4640    4.4040   -0.0459 C.2       1 <0>         0.5410
     15 O1          8.4934    3.7628   -0.0592 O.2       1 <0>        -0.5112
     16 C14         6.1345    3.6945   -0.0372 C.3       1 <0>        -0.1613
     17 S1          6.4055    1.9050   -0.0496 S.3       1 <0>         0.1143
     18 C15         4.7357    1.3426   -0.0369 C.2       1 <0>         0.0682
     19 N2          3.6286    2.0493   -0.0221 N.2       1 <0>        -0.4845
     20 C16         2.4026    1.4775   -0.0130 C.ar      1 <0>         0.0137
     21 C17         1.1426    2.1187    0.0025 C.ar      1 <0>        -0.0063
     22 C18        -0.0168    1.3888    0.0097 C.ar      1 <0>        -0.1798
     23 C19         0.0021   -0.0041    0.0020 C.ar      1 <0>         0.2528
     24 C20         1.2239   -0.6643   -0.0132 C.ar      1 <0>        -0.1582
     25 C21         2.3866    0.0646   -0.0205 C.ar      1 <0>        -0.0840
     26 S2          4.1179   -0.3344   -0.0398 S.3       1 <0>         0.0461
     27 N3         -1.1951   -0.7290    0.0101 N.pl3     1 <0>        -0.8624
     28 Cl1        14.8281    7.0355    4.1919 Cl        1 <0>        -0.0178
     29 Cl2        13.9297    9.0177    6.4302 Cl        1 <0>        -0.0153
     30 H1         11.1008   11.0310    3.0512 H         1 <0>         0.1483
     31 H2         12.0318   10.8301    5.3217 H         1 <0>         0.1565
     32 H3         13.4498    7.7023    1.7897 H         1 <0>         0.1515
     33 H4         12.3737    9.1519    0.1671 H         1 <0>         0.1430
     34 H5         11.3903   10.5385    0.6948 H         1 <0>         0.1425
     35 H6         10.7098    8.0283   -1.1837 H         1 <0>         0.1364
     36 H7          9.8506    9.5775   -1.0123 H         1 <0>         0.1377
     37 H8          8.3019    7.7525   -1.6834 H         1 <0>         0.1220
     38 H9          7.8893    8.3936   -0.0742 H         1 <0>         0.0960
     39 H10         9.5141    5.8718   -0.6447 H         1 <0>         0.1085
     40 H11         8.5906    7.1046    1.9927 H         1 <0>         0.0914
     41 H12         9.4857    5.5767    1.8053 H         1 <0>         0.1185
     42 H13        11.3771    6.8018    0.7829 H         1 <0>         0.1351
     43 H14        11.0081    7.4502    2.3988 H         1 <0>         0.1333
     44 H15         6.6858    6.2638   -0.0284 H         1 <0>         0.4105
     45 H16         5.5637    3.9817   -0.9203 H         1 <0>         0.1300
     46 H17         5.5805    3.9719    0.8596 H         1 <0>         0.1293
     47 H18         1.0935    3.1976    0.0085 H         1 <0>         0.1339
     48 H19        -0.9658    1.9044    0.0169 H         1 <0>         0.1362
     49 H20         1.2587   -1.7438   -0.0190 H         1 <0>         0.1349
     50 H21        -2.0451   -0.2617    0.0210 H         1 <0>         0.4058
     51 H22        -1.1749   -1.6988    0.0047 H         1 <0>         0.4052
     52 N4         10.4055    8.6888    0.8106 N.4       1 <0>        -0.3951
     53 H23         9.6658    9.1526    1.3509 H         1 <0>         0.4274
@<TRIPOS>BOND
     1    1    6 ar
     2    1    2 ar
     3    1   30 1
     4    2    3 ar
     5    2   31 1
     6    3    4 ar
     7    3   29 1
     8    4    5 ar
     9    4   28 1
    10    5    6 ar
    11    5   32 1
    12    6    7 1
    13    7   33 1
    14    7   34 1
    15    7   52 1
    16    8    9 1
    17    8   35 1
    18    8   36 1
    19    8   52 1
    20    9   10 1
    21    9   37 1
    22    9   38 1
    23   10   11 1
    24   10   13 1
    25   10   39 1
    26   11   12 1
    27   11   40 1
    28   11   41 1
    29   12   42 1
    30   12   43 1
    31   12   52 1
    32   13   14 am
    33   13   44 1
    34   14   15 2
    35   14   16 1
    36   16   17 1
    37   16   45 1
    38   16   46 1
    39   17   18 1
    40   18   26 1
    41   18   19 2
    42   19   20 1
    43   20   25 ar
    44   20   21 ar
    45   21   22 ar
    46   21   47 1
    47   22   23 ar
    48   22   48 1
    49   23   24 ar
    50   23   27 1
    51   24   25 ar
    52   24   49 1
    53   25   26 1
    54   27   50 1
    55   27   51 1
    56   52   53 1
@<TRIPOS>MOLECULE
ZINC22010574
   54    56     0     0     0
SMALL
USER_CHARGES
[5-chloro-2-[2-[(2R)-4-[(4-fluorophenyl)methyl]-2-methyl-piperazin-1-yl]-2-oxo-ethoxy]phenyl]urea
@<TRIPOS>ATOM
      1 C1          6.3375   -1.6445   -0.7087 C.3       1 <0>        -0.1553
      2 C2          5.3974   -2.8260   -0.4613 C.3       1 <0>         0.1534
      3 H1          5.6505   -3.3194    0.4887 H         1 <0>         0.0848
      4 C3          5.4927   -3.8084   -1.6275 C.3       1 <0>         0.0438
      5 N1          4.4779   -4.8582   -1.4661 N.3       1 <0>        -0.5317
      6 C4          3.1204   -4.2987   -1.5117 C.3       1 <0>         0.0319
      7 C5          2.9282   -3.3366   -0.3345 C.3       1 <0>         0.1063
      8 N2          4.0119   -2.3425   -0.3619 N.am      1 <0>        -0.6097
      9 C6          3.7421   -1.0233   -0.3031 C.2       1 <0>         0.5227
     10 O1          4.6486   -0.2222   -0.2175 O.2       1 <0>        -0.5064
     11 C7          2.3140   -0.5437   -0.3437 C.3       1 <0>         0.0366
     12 O2          2.2883    0.8830   -0.2676 O.3       1 <0>        -0.2872
     13 C8          1.0669    1.4808   -0.2922 C.ar      1 <0>         0.1021
     14 C9         -0.0808    0.7108   -0.3873 C.ar      1 <0>        -0.1799
     15 C10        -1.3217    1.3197   -0.4180 C.ar      1 <0>        -0.0885
     16 C11        -1.4220    2.6978   -0.3432 C.ar      1 <0>        -0.0488
     17 C12        -0.2805    3.4729   -0.2481 C.ar      1 <0>        -0.0804
     18 C13         0.9675    2.8682   -0.2222 C.ar      1 <0>         0.1640
     19 N3          2.1259    3.6516   -0.1263 N.am      1 <0>        -0.6910
     20 C14         2.1130    4.7876    0.5989 C.2       1 <0>         0.7091
     21 O3          1.0767    5.1753    1.1031 O.2       1 <0>        -0.5880
     22 N4          3.2488    5.4938    0.7653 N.am      1 <0>        -0.8845
     23 Cl1        -2.9835    3.4556   -0.3749 Cl        1 <0>        -0.0630
     24 C15         4.6467   -5.9130   -2.4744 C.3       1 <0>         0.0937
     25 C16         3.7642   -7.0846   -2.1284 C.ar      1 <0>        -0.0917
     26 C17         4.2489   -8.1014   -1.3268 C.ar      1 <0>        -0.0670
     27 C18         3.4387   -9.1734   -1.0042 C.ar      1 <0>        -0.1530
     28 C19         2.1450   -9.2348   -1.4937 C.ar      1 <0>         0.1005
     29 C20         1.6625   -8.2186   -2.3010 C.ar      1 <0>        -0.1535
     30 C21         2.4725   -7.1445   -2.6173 C.ar      1 <0>        -0.0872
     31 F1          1.3542  -10.2855   -1.1842 F         1 <0>        -0.1388
     32 H2          7.3728   -2.0089   -0.7826 H         1 <0>         0.0527
     33 H3          6.2582   -0.9320    0.1256 H         1 <0>         0.0995
     34 H4          6.0573   -1.1433   -1.6469 H         1 <0>         0.0578
     35 H5          5.3200   -3.2731   -2.5728 H         1 <0>         0.0429
     36 H6          6.4936   -4.2645   -1.6419 H         1 <0>         0.0932
     37 H7          2.9794   -3.7553   -2.4577 H         1 <0>         0.0418
     38 H8          2.3852   -5.1142   -1.4441 H         1 <0>         0.0965
     39 H9          1.9547   -2.8331   -0.4277 H         1 <0>         0.0879
     40 H10         2.9603   -3.9008    0.6092 H         1 <0>         0.0862
     41 H11         1.8445   -0.8693   -1.2837 H         1 <0>         0.0942
     42 H12         1.7609   -0.9663    0.5080 H         1 <0>         0.0949
     43 H13        -0.0060   -0.3652   -0.4421 H         1 <0>         0.1391
     44 H14        -2.2151    0.7180   -0.4967 H         1 <0>         0.1385
     45 H15        -0.3609    4.5486   -0.1943 H         1 <0>         0.1600
     46 H16         3.0454    3.3392   -0.6429 H         1 <0>         0.4371
     47 H17         3.2383    6.4209    1.3572 H         1 <0>         0.4418
     48 H18         4.1863    5.1430    0.3092 H         1 <0>         0.4177
     49 H19         4.3666   -5.5226   -3.4639 H         1 <0>         0.0483
     50 H20         5.6974   -6.2381   -2.4926 H         1 <0>         0.0906
     51 H21         5.2598   -8.0558   -0.9493 H         1 <0>         0.1342
     52 H22         3.8160   -9.9653   -0.3741 H         1 <0>         0.1365
     53 H23         0.6537   -8.2655   -2.6837 H         1 <0>         0.1359
     54 H24         2.0964   -6.3518   -3.2470 H         1 <0>         0.1292
@<TRIPOS>BOND
     1    1    2 1
     2    1   32 1
     3    1   33 1
     4    1   34 1
     5    2    3 1
     6    2    8 1
     7    2    4 1
     8    4    5 1
     9    4   35 1
    10    4   36 1
    11    5    6 1
    12    5   24 1
    13    6    7 1
    14    6   37 1
    15    6   38 1
    16    7    8 1
    17    7   39 1
    18    7   40 1
    19    8    9 am
    20    9   10 2
    21    9   11 1
    22   11   12 1
    23   11   41 1
    24   11   42 1
    25   12   13 1
    26   13   18 ar
    27   13   14 ar
    28   14   15 ar
    29   14   43 1
    30   15   16 ar
    31   15   44 1
    32   16   17 ar
    33   16   23 1
    34   17   18 ar
    35   17   45 1
    36   18   19 1
    37   19   20 am
    38   19   46 1
    39   20   21 2
    40   20   22 am
    41   22   47 1
    42   22   48 1
    43   24   25 1
    44   24   49 1
    45   24   50 1
    46   25   30 ar
    47   25   26 ar
    48   26   27 ar
    49   26   51 1
    50   27   28 ar
    51   27   52 1
    52   28   29 ar
    53   28   31 1
    54   29   30 ar
    55   29   53 1
    56   30   54 1
@<TRIPOS>MOLECULE
ZINC03979252
   73    77     0     0     0
SMALL
USER_CHARGES
2,7-dichloro-N-[1-(1-cyclooctenylmethyl)-1-ethyl-3,4,5,6-tetrahydro-2H-pyridin-4-yl]-9H-xanthene-9-carboxamide
@<TRIPOS>ATOM
      1 C1          2.3543   10.0887   -4.0201 C.3       1 <0>        -0.1888
      2 C2          1.3098    8.9858   -4.2035 C.3       1 <0>        -0.0204
      3 N1          1.7784    8.0312   -5.2169 N.4       1 <0>        -0.2601
      4 C3          0.7745    6.9751   -5.3934 C.3       1 <0>        -0.0101
      5 C4          0.5039    6.2937   -4.0503 C.3       1 <0>        -0.1561
      6 C5          1.8047    5.6808   -3.5238 C.3       1 <0>         0.1389
      7 C6          2.8684    6.7770   -3.4145 C.3       1 <0>        -0.1611
      8 C7          3.0500    7.4418   -4.7809 C.3       1 <0>        -0.0218
      9 N2          1.5697    5.0928   -2.2027 N.am      1 <0>        -0.7272
     10 C8          2.3606    4.0960   -1.7584 C.2       1 <0>         0.5285
     11 O1          3.2668    3.6858   -2.4522 O.2       1 <0>        -0.5047
     12 C9          2.1188    3.4911   -0.3994 C.3       1 <0>        -0.0093
     13 H1          2.2242    4.2641    0.3619 H         1 <0>         0.1270
     14 C10         0.7237    2.9311   -0.3464 C.ar      1 <0>        -0.1438
     15 C11        -0.3466    3.7925   -0.1815 C.ar      1 <0>        -0.0776
     16 C12        -1.6369    3.2980   -0.1318 C.ar      1 <0>        -0.0542
     17 C13        -1.8618    1.9379   -0.2524 C.ar      1 <0>        -0.0658
     18 C14        -0.7969    1.0742   -0.4105 C.ar      1 <0>        -0.1134
     19 C15         0.5016    1.5686   -0.4609 C.ar      1 <0>         0.1382
     20 O2          1.5322    0.7042   -0.6215 O.3       1 <0>        -0.2335
     21 C16         2.7888    1.0722   -0.2739 C.ar      1 <0>         0.1299
     22 C17         3.1331    2.4083   -0.1508 C.ar      1 <0>        -0.1244
     23 C18         4.4243    2.7575    0.2035 C.ar      1 <0>        -0.0554
     24 C19         5.3715    1.7774    0.4368 C.ar      1 <0>        -0.0529
     25 C20         5.0294    0.4421    0.3160 C.ar      1 <0>        -0.0669
     26 C21         3.7430    0.0889   -0.0379 C.ar      1 <0>        -0.1162
     27 Cl1         6.9898    2.2222    0.8805 Cl        1 <0>        -0.0544
     28 Cl2        -2.9753    4.3841    0.0747 Cl        1 <0>        -0.0534
     29 C22         1.9789    8.7323   -6.4922 C.3       1 <0>         0.0063
     30 C23         2.5843    7.7855   -7.4962 C.2       1 <0>        -0.1678
     31 C24         1.6927    7.1930   -8.2076 C.2       1 <0>        -0.0779
     32 C25         2.0349    6.2896   -9.3705 C.3       1 <0>        -0.1136
     33 C26         2.4035    4.9020   -8.8408 C.3       1 <0>        -0.1203
     34 C27         3.1644    4.9954   -7.5260 C.3       1 <0>        -0.1317
     35 C28         4.5945    5.3729   -7.8657 C.3       1 <0>        -0.1273
     36 C29         4.6741    6.7881   -8.4427 C.3       1 <0>        -0.1376
     37 C30         4.0681    7.7575   -7.4217 C.3       1 <0>        -0.0950
     38 H2          2.0320   10.7666   -3.2297 H         1 <0>         0.1051
     39 H3          3.3106    9.6419   -3.7480 H         1 <0>         0.0805
     40 H4          2.4644   10.6433   -4.9519 H         1 <0>         0.0817
     41 H5          0.3680    9.4278   -4.5286 H         1 <0>         0.1284
     42 H6          1.1599    8.4664   -3.2570 H         1 <0>         0.1304
     43 H7          1.1445    6.2381   -6.1062 H         1 <0>         0.1341
     44 H8         -0.1496    7.4129   -5.7710 H         1 <0>         0.1333
     45 H9         -0.2405    5.5087   -4.1838 H         1 <0>         0.1193
     46 H10         0.1335    7.0299   -3.3368 H         1 <0>         0.0957
     47 H11         2.1476    4.9074   -4.2112 H         1 <0>         0.1064
     48 H12         2.5484    7.5235   -2.6875 H         1 <0>         0.0919
     49 H13         3.8128    6.3372   -3.0940 H         1 <0>         0.1165
     50 H14         3.3716    6.6948   -5.5067 H         1 <0>         0.1432
     51 H15         3.8057    8.2238   -4.7059 H         1 <0>         0.1345
     52 H16         0.8449    5.4208   -1.6478 H         1 <0>         0.4039
     53 H17        -0.1735    4.8547   -0.0917 H         1 <0>         0.1365
     54 H18        -2.8699    1.5520   -0.2180 H         1 <0>         0.1514
     55 H19        -0.9730    0.0124   -0.4997 H         1 <0>         0.1527
     56 H20         4.6933    3.7992    0.2984 H         1 <0>         0.1371
     57 H21         5.7688   -0.3236    0.4989 H         1 <0>         0.1503
     58 H22         3.4770   -0.9536   -0.1321 H         1 <0>         0.1505
     59 H23         1.0193    9.0914   -6.8641 H         1 <0>         0.1292
     60 H24         2.6493    9.5782   -6.3403 H         1 <0>         0.1352
     61 H25         0.6520    7.3509   -7.9659 H         1 <0>         0.1192
     62 H26         2.8796    6.7051   -9.9199 H         1 <0>         0.0948
     63 H27         1.1742    6.2083  -10.0344 H         1 <0>         0.0812
     64 H28         3.0249    4.3925   -9.5772 H         1 <0>         0.0764
     65 H29         1.4915    4.3257   -8.6851 H         1 <0>         0.0642
     66 H30         3.1453    4.0322   -7.0162 H         1 <0>         0.0706
     67 H31         2.7183    5.7616   -6.8919 H         1 <0>         0.0596
     68 H32         4.9857    4.6665   -8.5978 H         1 <0>         0.0702
     69 H33         5.2015    5.3213   -6.9618 H         1 <0>         0.0604
     70 H34         4.1115    6.8372   -9.3750 H         1 <0>         0.0882
     71 H35         5.7156    7.0520   -8.6268 H         1 <0>         0.0745
     72 H36         4.4519    8.7596   -7.6128 H         1 <0>         0.0843
     73 H37         4.3672    7.4499   -6.4196 H         1 <0>         0.0822
@<TRIPOS>BOND
     1    1    2 1
     2    1   38 1
     3    1   39 1
     4    1   40 1
     5    2    3 1
     6    2   41 1
     7    2   42 1
     8    3    8 1
     9    3    4 1
    10    3   29 1
    11    4    5 1
    12    4   43 1
    13    4   44 1
    14    5    6 1
    15    5   45 1
    16    5   46 1
    17    6    7 1
    18    6    9 1
    19    6   47 1
    20    7    8 1
    21    7   48 1
    22    7   49 1
    23    8   50 1
    24    8   51 1
    25    9   10 am
    26    9   52 1
    27   10   11 2
    28   10   12 1
    29   12   13 1
    30   12   22 1
    31   12   14 1
    32   14   19 ar
    33   14   15 ar
    34   15   16 ar
    35   15   53 1
    36   16   17 ar
    37   16   28 1
    38   17   18 ar
    39   17   54 1
    40   18   19 ar
    41   18   55 1
    42   19   20 1
    43   20   21 1
    44   21   26 ar
    45   21   22 ar
    46   22   23 ar
    47   23   24 ar
    48   23   56 1
    49   24   25 ar
    50   24   27 1
    51   25   26 ar
    52   25   57 1
    53   26   58 1
    54   29   30 1
    55   29   59 1
    56   29   60 1
    57   30   37 1
    58   30   31 2
    59   31   32 1
    60   31   61 1
    61   32   33 1
    62   32   62 1
    63   32   63 1
    64   33   34 1
    65   33   64 1
    66   33   65 1
    67   34   35 1
    68   34   66 1
    69   34   67 1
    70   35   36 1
    71   35   68 1
    72   35   69 1
    73   36   37 1
    74   36   70 1
    75   36   71 1
    76   37   72 1
    77   37   73 1
@<TRIPOS>MOLECULE
ZINC13862637
   73    77     0     0     0
SMALL
USER_CHARGES

@<TRIPOS>ATOM
      1 C1          0.2535    1.1684   -0.3634 C.3       1 <0>        -0.1883
      2 C2          0.0753   -0.3398   -0.1781 C.3       1 <0>        -0.0177
      3 N1         -1.3422   -0.6391    0.0655 N.4       1 <0>        -0.2555
      4 C3         -1.7714    0.0116    1.3092 C.3       1 <0>        -0.0099
      5 C4         -0.8835   -0.4535    2.4654 C.3       1 <0>        -0.1572
      6 C5         -1.0034   -1.9729    2.6147 C.3       1 <0>         0.1395
      7 C6         -0.6246   -2.6377    1.2882 C.3       1 <0>        -0.1596
      8 C7         -1.5220   -2.0917    0.1756 C.3       1 <0>        -0.0029
      9 N2         -0.0983   -2.4344    3.6701 N.am      1 <0>        -0.7274
     10 C8         -0.3598   -3.5810    4.3284 C.2       1 <0>         0.5288
     11 O1         -1.3445   -4.2308    4.0470 O.2       1 <0>        -0.5056
     12 C9          0.5713   -4.0557    5.4141 C.3       1 <0>        -0.0095
     13 C10         0.6586   -3.0061    6.4887 C.ar      1 <0>        -0.1436
     14 C11         1.4467   -1.8878    6.2820 C.ar      1 <0>        -0.0774
     15 C12         1.5405   -0.9125    7.2578 C.ar      1 <0>        -0.0540
     16 C13         0.8448   -1.0530    8.4457 C.ar      1 <0>        -0.0659
     17 C14         0.0569   -2.1667    8.6562 C.ar      1 <0>        -0.1133
     18 C15        -0.0398   -3.1484    7.6766 C.ar      1 <0>         0.1375
     19 O2         -0.8165   -4.2352    7.9035 O.3       1 <0>        -0.2335
     20 C16        -0.6122   -5.3731    7.1971 C.ar      1 <0>         0.1295
     21 C17         0.0539   -5.3491    5.9826 C.ar      1 <0>        -0.1240
     22 C18         0.2497   -6.5250    5.2803 C.ar      1 <0>        -0.0559
     23 C19        -0.2176   -7.7239    5.7863 C.ar      1 <0>        -0.0527
     24 C20        -0.8834   -7.7505    6.9990 C.ar      1 <0>        -0.0671
     25 C21        -1.0808   -6.5798    7.7038 C.ar      1 <0>        -0.1160
     26 Cl1         0.0303   -9.1957    4.8998 Cl        1 <0>        -0.0544
     27 Cl2         2.5317    0.4879    6.9929 Cl        1 <0>        -0.0534
     28 C22        -2.1476   -0.1309   -1.0529 C.3       1 <0>         0.0207
     29 C23        -3.5846   -0.5448   -0.8659 C.2       1 <0>        -0.1954
     30 C24        -3.9924   -1.6057   -1.4170 C.2       1 <0>        -0.0907
     31 C25        -3.4702   -2.0649   -2.7536 C.3       1 <0>        -0.1032
     32 C26        -4.5105   -1.3831   -3.6807 C.3       1 <0>        -0.1201
     33 C27        -4.5873    0.1260   -3.3637 C.3       1 <0>        -0.1206
     34 C28        -5.6303    0.4255   -2.2884 C.3       1 <0>        -0.1249
     35 C29        -5.0377    1.2608   -1.1333 C.3       1 <0>        -0.1163
     36 C30        -4.4881    0.3162   -0.0227 C.3       1 <0>        -0.0861
     37 H1          1.3108    1.3953   -0.5002 H         1 <0>         0.1047
     38 H2         -0.3047    1.4951   -1.2408 H         1 <0>         0.0809
     39 H3         -0.1187    1.6894    0.5187 H         1 <0>         0.0801
     40 H4          0.4066   -0.8581   -1.0779 H         1 <0>         0.1272
     41 H5          0.6686   -0.6739    0.6730 H         1 <0>         0.1312
     42 H6         -1.6885    1.0930    1.2003 H         1 <0>         0.1340
     43 H7         -2.8078   -0.2532    1.5183 H         1 <0>         0.1364
     44 H8          0.1532   -0.1889    2.2574 H         1 <0>         0.0949
     45 H9         -1.2050    0.0294    3.3882 H         1 <0>         0.1183
     46 H10        -2.0297   -2.2338    2.8732 H         1 <0>         0.1062
     47 H11         0.4176   -2.4185    1.0558 H         1 <0>         0.0904
     48 H12        -0.7609   -3.7161    1.3696 H         1 <0>         0.1156
     49 H13        -2.5638   -2.3117    0.4089 H         1 <0>         0.1323
     50 H14        -1.2551   -2.5632   -0.7702 H         1 <0>         0.1285
     51 H15         0.6892   -1.9147    3.8952 H         1 <0>         0.4039
     52 H16         1.5631   -4.2187    4.9923 H         1 <0>         0.1270
     53 H17         1.9907   -1.7764    5.3557 H         1 <0>         0.1367
     54 H18         0.9186   -0.2916    9.2081 H         1 <0>         0.1514
     55 H19        -0.4861   -2.2752    9.5834 H         1 <0>         0.1527
     56 H20         0.7689   -6.5063    4.3335 H         1 <0>         0.1373
     57 H21        -1.2485   -8.6868    7.3943 H         1 <0>         0.1503
     58 H22        -1.6014   -6.6011    8.6498 H         1 <0>         0.1506
     59 H23        -2.0837    0.9569   -1.0819 H         1 <0>         0.1287
     60 H24        -1.7700   -0.5421   -1.9890 H         1 <0>         0.1317
     61 H25        -4.7388   -2.2026   -0.9141 H         1 <0>         0.1247
     62 H26        -2.4645   -1.6876   -2.9388 H         1 <0>         0.0740
     63 H27        -3.5078   -3.1505   -2.8439 H         1 <0>         0.0891
     64 H28        -4.2136   -1.5200   -4.7205 H         1 <0>         0.0735
     65 H29        -5.4889   -1.8365   -3.5222 H         1 <0>         0.0740
     66 H30        -3.6115    0.4664   -3.0171 H         1 <0>         0.0589
     67 H31        -4.8486    0.6673   -4.2730 H         1 <0>         0.0653
     68 H32        -6.4561    0.9768   -2.7382 H         1 <0>         0.0657
     69 H33        -6.0088   -0.5152   -1.8887 H         1 <0>         0.0679
     70 H34        -4.2269    1.8817   -1.5144 H         1 <0>         0.0644
     71 H35        -5.8143    1.8996   -0.7128 H         1 <0>         0.0711
     72 H36        -5.2865   -0.2705    0.4316 H         1 <0>         0.0901
     73 H37        -3.9241    0.8662    0.7308 H         1 <0>         0.0764
@<TRIPOS>BOND
     1    1    2 1
     2    1   37 1
     3    1   38 1
     4    1   39 1
     5    2    3 1
     6    2   40 1
     7    2   41 1
     8    3    8 1
     9    3    4 1
    10    3   28 1
    11    4    5 1
    12    4   42 1
    13    4   43 1
    14    5    6 1
    15    5   44 1
    16    5   45 1
    17    6    7 1
    18    6    9 1
    19    6   46 1
    20    7    8 1
    21    7   47 1
    22    7   48 1
    23    8   49 1
    24    8   50 1
    25    9   10 am
    26    9   51 1
    27   10   11 2
    28   10   12 1
    29   12   21 1
    30   12   13 1
    31   12   52 1
    32   13   18 ar
    33   13   14 ar
    34   14   15 ar
    35   14   53 1
    36   15   16 ar
    37   15   27 1
    38   16   17 ar
    39   16   54 1
    40   17   18 ar
    41   17   55 1
    42   18   19 1
    43   19   20 1
    44   20   25 ar
    45   20   21 ar
    46   21   22 ar
    47   22   23 ar
    48   22   56 1
    49   23   24 ar
    50   23   26 1
    51   24   25 ar
    52   24   57 1
    53   25   58 1
    54   28   29 1
    55   28   59 1
    56   28   60 1
    57   29   36 1
    58   29   30 2
    59   30   31 1
    60   30   61 1
    61   31   32 1
    62   31   62 1
    63   31   63 1
    64   32   33 1
    65   32   64 1
    66   32   65 1
    67   33   34 1
    68   33   66 1
    69   33   67 1
    70   34   35 1
    71   34   68 1
    72   34   69 1
    73   35   36 1
    74   35   70 1
    75   35   71 1
    76   36   72 1
    77   36   73 1
@<TRIPOS>MOLECULE
ZINC28230897
   51    54     0     0     0
SMALL
USER_CHARGES
2-(1,3-benzothiazol-2-ylsulfanyl)-N-[1-[(4-chlorophenyl)methyl]-4-piperidyl]acetamide
@<TRIPOS>ATOM
      1 C1          4.2269    7.5828   14.5518 C.ar      1 <0>        -0.1074
      2 C2          2.8922    7.9548   14.4840 C.ar      1 <0>        -0.0845
      3 C3          2.2154    7.8328   13.2839 C.ar      1 <0>        -0.0701
      4 C4          2.8727    7.3473   12.1816 C.ar      1 <0>        -0.1291
      5 C5          4.2311    6.9583   12.2133 C.ar      1 <0>         0.0782
      6 C6          4.8912    7.0961   13.4562 C.ar      1 <0>        -0.0549
      7 N1          4.7364    6.5003   11.0472 N.2       1 <0>        -0.4712
      8 C7          4.0169    6.4191    9.9502 C.2       1 <0>         0.0966
      9 S1          2.4284    7.0349   10.4900 S.3       1 <0>        -0.0200
     10 S2          4.4982    5.8542    8.3521 S.3       1 <0>         0.1440
     11 C8          2.9392    6.0723    7.4589 C.3       1 <0>        -0.1888
     12 C9          3.1164    5.6401    6.0261 C.2       1 <0>         0.5472
     13 O1          4.1910    5.2254    5.6463 O.2       1 <0>        -0.5125
     14 N2          2.0807    5.7143    5.1668 N.am      1 <0>        -0.7374
     15 C10         2.2530    5.2942    3.7740 C.3       1 <0>         0.1373
     16 C11         1.2295    6.0145    2.8919 C.3       1 <0>        -0.1540
     17 C12         1.3739    5.5264    1.4487 C.3       1 <0>         0.0017
     18 N3          1.1558    4.0751    1.3973 N.4       1 <0>        -0.3981
     19 C13         2.1561    3.3591    2.1992 C.3       1 <0>        -0.0073
     20 C14         2.0350    3.7825    3.6648 C.3       1 <0>        -0.1588
     21 C15         1.1497    3.5925    0.0098 C.3       1 <0>         0.0468
     22 C16         1.1708    2.0856    0.0021 C.ar      1 <0>        -0.1576
     23 C17        -0.0167    1.3779    0.0096 C.ar      1 <0>        -0.0803
     24 C18         0.0021   -0.0041    0.0020 C.ar      1 <0>        -0.1067
     25 C19         1.2096   -0.6792   -0.0131 C.ar      1 <0>        -0.0072
     26 C20         2.3977    0.0297   -0.0206 C.ar      1 <0>        -0.1069
     27 C21         2.3777    1.4116   -0.0130 C.ar      1 <0>        -0.0829
     28 Cl1         1.2340   -2.4150   -0.0221 Cl        1 <0>        -0.0371
     29 H1          4.7544    7.6785   15.4894 H         1 <0>         0.1406
     30 H2          2.3870    8.3361   15.3590 H         1 <0>         0.1444
     31 H3          1.1760    8.1182   13.2148 H         1 <0>         0.1367
     32 H4          5.9304    6.8151   13.5430 H         1 <0>         0.1379
     33 H5          2.1568    5.4609    7.9322 H         1 <0>         0.1313
     34 H6          2.6447    7.1317    7.4886 H         1 <0>         0.1318
     35 H7          1.1061    6.0903    5.5113 H         1 <0>         0.4323
     36 H8          3.2789    5.5636    3.4827 H         1 <0>         0.1075
     37 H9          0.2144    5.7960    3.2549 H         1 <0>         0.0973
     38 H10         1.4083    7.0991    2.9336 H         1 <0>         0.1212
     39 H11         0.6300    6.0312    0.8148 H         1 <0>         0.1391
     40 H12         2.3851    5.7579    1.0827 H         1 <0>         0.1312
     41 H13         1.9857    2.2756    2.1157 H         1 <0>         0.1370
     42 H14         3.1636    3.6013    1.8301 H         1 <0>         0.1293
     43 H15         2.7944    3.2584    4.2637 H         1 <0>         0.1169
     44 H16         1.0327    3.5285    4.0400 H         1 <0>         0.0921
     45 H17         0.2417    3.9492   -0.4985 H         1 <0>         0.1417
     46 H18         2.0377    3.9744   -0.5152 H         1 <0>         0.1364
     47 H19        -0.9593    1.9051    0.0169 H         1 <0>         0.1414
     48 H20        -0.9257   -0.5569    0.0082 H         1 <0>         0.1469
     49 H21         3.3407   -0.4968   -0.0321 H         1 <0>         0.1473
     50 H22         3.3051    1.9651   -0.0192 H         1 <0>         0.1405
     51 H23         0.1670    3.8690    1.8330 H         1 <0>         0.4402
@<TRIPOS>BOND
     1    1    6 ar
     2    1    2 ar
     3    1   29 1
     4    2    3 ar
     5    2   30 1
     6    3    4 ar
     7    3   31 1
     8    4    9 1
     9    4    5 ar
    10    5    6 ar
    11    5    7 1
    12    6   32 1
    13    7    8 2
    14    8    9 1
    15    8   10 1
    16   10   11 1
    17   11   12 1
    18   11   33 1
    19   11   34 1
    20   12   13 2
    21   12   14 am
    22   14   15 1
    23   14   35 1
    24   15   20 1
    25   15   16 1
    26   15   36 1
    27   16   17 1
    28   16   37 1
    29   16   38 1
    30   17   18 1
    31   17   39 1
    32   17   40 1
    33   18   19 1
    34   18   21 1
    35   18   51 1
    36   19   20 1
    37   19   41 1
    38   19   42 1
    39   20   43 1
    40   20   44 1
    41   21   22 1
    42   21   45 1
    43   21   46 1
    44   22   27 ar
    45   22   23 ar
    46   23   24 ar
    47   23   47 1
    48   24   25 ar
    49   24   48 1
    50   25   26 ar
    51   25   28 1
    52   26   27 ar
    53   26   49 1
    54   27   50 1
@<TRIPOS>MOLECULE
ZINC03991118
   62    65     0     0     0
SMALL
USER_CHARGES

@<TRIPOS>ATOM
      1 C1         -0.5721    3.9401   11.0033 C.ar      1 <0>        -0.1046
      2 C2          0.4886    3.0549   11.0491 C.ar      1 <0>        -0.1112
      3 C3          1.1026    2.6507    9.8784 C.ar      1 <0>        -0.0985
      4 C4          0.6561    3.1321    8.6619 C.ar      1 <0>        -0.0928
      5 C5         -0.4010    4.0217    8.6165 C.ar      1 <0>        -0.1111
      6 C6         -1.0183    4.4218    9.7869 C.ar      1 <0>        -0.1147
      7 C7          1.3257    2.6918    7.3857 C.3       1 <0>         0.1385
      8 C8          0.7113    3.4421    6.2023 C.3       1 <0>        -0.1060
      9 C9          1.4231    3.0300    4.9121 C.3       1 <0>        -0.1615
     10 C10         0.7604    3.7236    3.7202 C.3       1 <0>        -0.0024
     11 C11         0.6968    3.7802    1.3008 C.3       1 <0>         0.0030
     12 C12         1.5067    3.4803    0.0374 C.3       1 <0>        -0.1350
     13 C13         1.7706    1.9745   -0.0484 C.3       1 <0>         0.1755
     14 C14         2.5068    1.5205    1.2151 C.3       1 <0>        -0.1710
     15 C15         1.6679    1.8771    2.4444 C.3       1 <0>        -0.0056
     16 C16         2.6174    1.6798   -1.2596 C.ar      1 <0>        -0.1259
     17 C17         3.5119    2.6260   -1.7240 C.ar      1 <0>        -0.1006
     18 C18         4.2929    2.3541   -2.8315 C.ar      1 <0>        -0.1042
     19 C19         4.1713    1.1391   -3.4819 C.ar      1 <0>        -0.0247
     20 C20         3.2719    0.1947   -3.0200 C.ar      1 <0>        -0.1017
     21 C21         2.4955    0.4656   -1.9091 C.ar      1 <0>        -0.0932
     22 Cl1         5.1473    0.7994   -4.8768 Cl        1 <0>        -0.0502
     23 O1          0.5277    1.2771   -0.1535 O.3       1 <0>        -0.5472
     24 C22         2.7658    2.9875    7.4599 C.1       1 <0>         0.2071
     25 N1          3.8772    3.2157    7.5171 N.1       1 <0>        -0.4036
     26 C23         1.1261    1.2098    7.1991 C.ar      1 <0>        -0.0857
     27 C24         2.2191    0.3819    7.0231 C.ar      1 <0>        -0.1190
     28 C25         2.0363   -0.9782    6.8568 C.ar      1 <0>        -0.1121
     29 C26         0.7600   -1.5091    6.8564 C.ar      1 <0>        -0.1084
     30 C27        -0.3333   -0.6805    7.0267 C.ar      1 <0>        -0.1112
     31 C28        -0.1502    0.6789    7.1983 C.ar      1 <0>        -0.0968
     32 H1         -1.0521    4.2556   11.9179 H         1 <0>         0.1288
     33 H2          0.8374    2.6788   11.9995 H         1 <0>         0.1286
     34 H3          1.9313    1.9591    9.9142 H         1 <0>         0.1197
     35 H4         -0.7469    4.4012    7.6664 H         1 <0>         0.1291
     36 H5         -1.8468    5.1137    9.7511 H         1 <0>         0.1295
     37 H6          0.8259    4.5155    6.3536 H         1 <0>         0.0943
     38 H7         -0.3481    3.1969    6.1270 H         1 <0>         0.1039
     39 H8          1.3538    1.9493    4.7882 H         1 <0>         0.0997
     40 H9          2.4716    3.3231    4.9661 H         1 <0>         0.0861
     41 H10         0.8297    4.8043    3.8441 H         1 <0>         0.1319
     42 H11        -0.2881    3.4306    3.6662 H         1 <0>         0.1362
     43 H12         0.5194    4.8533    1.3724 H         1 <0>         0.1320
     44 H13        -0.2581    3.2567    1.2529 H         1 <0>         0.1404
     45 H14         2.4560    4.0144    0.0784 H         1 <0>         0.1037
     46 H15         0.9451    3.8019   -0.8397 H         1 <0>         0.1238
     47 H16         2.6597    0.4418    1.1794 H         1 <0>         0.1166
     48 H17         3.4718    2.0237    1.2747 H         1 <0>         0.0997
     49 H18         2.1958    1.5681    3.3465 H         1 <0>         0.1335
     50 H19         0.7084    1.3627    2.3908 H         1 <0>         0.1384
     51 H20         3.6036    3.5761   -1.2188 H         1 <0>         0.1331
     52 H21         4.9949    3.0917   -3.1916 H         1 <0>         0.1405
     53 H22         3.1768   -0.7540   -3.5272 H         1 <0>         0.1413
     54 H23         1.7936   -0.2717   -1.5482 H         1 <0>         0.1323
     55 H24         0.6196    0.3162   -0.2119 H         1 <0>         0.3906
     56 H25         3.2161    0.7973    7.0193 H         1 <0>         0.1181
     57 H26         2.8905   -1.6255    6.7234 H         1 <0>         0.1268
     58 H27         0.6170   -2.5712    6.7227 H         1 <0>         0.1279
     59 H28        -1.3305   -1.0952    7.0261 H         1 <0>         0.1296
     60 H29        -1.0044    1.3263    7.3313 H         1 <0>         0.1283
     61 N2          1.4704    3.3419    2.4819 N.4       1 <0>        -0.3944
     62 H30         2.3881    3.8021    2.4684 H         1 <0>         0.4249
@<TRIPOS>BOND
     1    1    6 ar
     2    1    2 ar
     3    1   32 1
     4    2    3 ar
     5    2   33 1
     6    3    4 ar
     7    3   34 1
     8    4    5 ar
     9    4    7 1
    10    5    6 ar
    11    5   35 1
    12    6   36 1
    13    7    8 1
    14    7   24 1
    15    7   26 1
    16    8    9 1
    17    8   37 1
    18    8   38 1
    19    9   10 1
    20    9   39 1
    21    9   40 1
    22   10   41 1
    23   10   42 1
    24   10   61 1
    25   11   12 1
    26   11   43 1
    27   11   44 1
    28   11   61 1
    29   12   13 1
    30   12   45 1
    31   12   46 1
    32   13   14 1
    33   13   16 1
    34   13   23 1
    35   14   15 1
    36   14   47 1
    37   14   48 1
    38   15   49 1
    39   15   50 1
    40   15   61 1
    41   16   21 ar
    42   16   17 ar
    43   17   18 ar
    44   17   51 1
    45   18   19 ar
    46   18   52 1
    47   19   20 ar
    48   19   22 1
    49   20   21 ar
    50   20   53 1
    51   21   54 1
    52   23   55 1
    53   24   25 3
    54   26   31 ar
    55   26   27 ar
    56   27   28 ar
    57   27   56 1
    58   28   29 ar
    59   28   57 1
    60   29   30 ar
    61   29   58 1
    62   30   31 ar
    63   30   59 1
    64   31   60 1
    65   61   62 1
@<TRIPOS>MOLECULE
ZINC13802060
   59    62     0     0     0
SMALL
USER_CHARGES
4-[4-(4-chlorophenyl)-4-hydroxy-1-piperidyl]-2,2-diphenyl-butanenitrile
@<TRIPOS>ATOM
      1 C1          2.9818    1.9080    9.5025 C.ar      1 <0>        -0.1020
      2 C2          1.9317    2.7790    9.7254 C.ar      1 <0>        -0.1082
      3 C3          1.2344    3.3089    8.6560 C.ar      1 <0>        -0.0953
      4 C4          1.5867    2.9675    7.3636 C.ar      1 <0>        -0.0939
      5 C5          2.6331    2.0920    7.1409 C.ar      1 <0>        -0.1141
      6 C6          3.3338    1.5662    8.2102 C.ar      1 <0>        -0.1130
      7 C7          0.8261    3.5448    6.1978 C.3       1 <0>         0.1508
      8 C8          1.3359    2.9210    4.8971 C.3       1 <0>        -0.1417
      9 C9          0.6303    3.5746    3.7072 C.3       1 <0>        -0.0117
     10 C10         0.4185    3.4947    1.2969 C.3       1 <0>         0.0017
     11 C11         1.1346    3.0855    0.0078 C.3       1 <0>        -0.1338
     12 C12         1.3284    1.5667   -0.0026 C.3       1 <0>         0.1743
     13 C13         2.1219    1.1527    1.2397 C.3       1 <0>        -0.1702
     14 C14         1.3772    1.6179    2.4931 C.3       1 <0>        -0.0081
     15 C15         2.0848    1.1640   -1.2423 C.ar      1 <0>        -0.1257
     16 C16         2.9880    2.0396   -1.8155 C.ar      1 <0>        -0.1004
     17 C17         3.6863    1.6686   -2.9492 C.ar      1 <0>        -0.1042
     18 C18         3.4728    0.4251   -3.5168 C.ar      1 <0>        -0.0247
     19 C19         2.5645   -0.4486   -2.9459 C.ar      1 <0>        -0.1016
     20 C20         1.8711   -0.0787   -1.8090 C.ar      1 <0>        -0.0932
     21 Cl1         4.3446   -0.0390   -4.9444 Cl        1 <0>        -0.0503
     22 O1          0.0529    0.9225    0.0088 O.3       1 <0>        -0.5474
     23 C21        -0.6079    3.2513    6.3537 C.1       1 <0>         0.1946
     24 N1         -1.7145    3.0248    6.4740 N.1       1 <0>        -0.3861
     25 C22         1.0315    5.0371    6.1535 C.ar      1 <0>        -0.1016
     26 C23        -0.0602    5.8851    6.1438 C.ar      1 <0>        -0.1152
     27 C24         0.1283    7.2541    6.1080 C.ar      1 <0>        -0.1085
     28 C25         1.4083    7.7748    6.0719 C.ar      1 <0>        -0.1028
     29 C26         2.4999    6.9267    6.0758 C.ar      1 <0>        -0.1108
     30 C27         2.3115    5.5578    6.1169 C.ar      1 <0>        -0.0988
     31 H1          3.5269    1.4942   10.3380 H         1 <0>         0.1304
     32 H2          1.6565    3.0457   10.7351 H         1 <0>         0.1306
     33 H3          0.4140    3.9894    8.8302 H         1 <0>         0.1217
     34 H4          2.9055    1.8218    6.1313 H         1 <0>         0.1250
     35 H5          4.1540    0.8854    8.0360 H         1 <0>         0.1304
     36 H6          1.1267    1.8513    4.9007 H         1 <0>         0.1083
     37 H7          2.4110    3.0807    4.8145 H         1 <0>         0.1153
     38 H8          0.7531    4.6563    3.7613 H         1 <0>         0.1393
     39 H9         -0.4310    3.3277    3.7337 H         1 <0>         0.1317
     40 H10         0.2918    4.5772    1.3141 H         1 <0>         0.1327
     41 H11        -0.5588    3.0139    1.3377 H         1 <0>         0.1397
     42 H12         2.1065    3.5767   -0.0402 H         1 <0>         0.1051
     43 H13         0.5337    3.3817   -0.8520 H         1 <0>         0.1241
     44 H14         2.2263    0.0679    1.2601 H         1 <0>         0.1176
     45 H15         3.1093    1.6134    1.2111 H         1 <0>         0.1019
     46 H16         1.9467    1.3372    3.3791 H         1 <0>         0.1344
     47 H17         0.3952    1.1460    2.5281 H         1 <0>         0.1377
     48 H18         3.1514    3.0120   -1.3748 H         1 <0>         0.1336
     49 H19         4.3951    2.3511   -3.3944 H         1 <0>         0.1406
     50 H20         2.3977   -1.4196   -3.3883 H         1 <0>         0.1411
     51 H21         1.1623   -0.7608   -1.3630 H         1 <0>         0.1322
     52 H22         0.1000   -0.0434    0.0031 H         1 <0>         0.3908
     53 H23        -1.0603    5.4781    6.1679 H         1 <0>         0.1209
     54 H24        -0.7245    7.9167    6.1046 H         1 <0>         0.1302
     55 H25         1.5555    8.8442    6.0402 H         1 <0>         0.1305
     56 H26         3.5000    7.3335    6.0472 H         1 <0>         0.1315
     57 H27         3.1644    4.8952    6.1200 H         1 <0>         0.1287
     58 N2          1.2448    3.0899    2.4540 N.4       1 <0>        -0.3907
     59 H28         2.1786    3.5058    2.3580 H         1 <0>         0.4264
@<TRIPOS>BOND
     1    1    6 ar
     2    1    2 ar
     3    1   31 1
     4    2    3 ar
     5    2   32 1
     6    3    4 ar
     7    3   33 1
     8    4    5 ar
     9    4    7 1
    10    5    6 ar
    11    5   34 1
    12    6   35 1
    13    7    8 1
    14    7   23 1
    15    7   25 1
    16    8    9 1
    17    8   36 1
    18    8   37 1
    19    9   38 1
    20    9   39 1
    21    9   58 1
    22   10   11 1
    23   10   40 1
    24   10   41 1
    25   10   58 1
    26   11   12 1
    27   11   42 1
    28   11   43 1
    29   12   13 1
    30   12   15 1
    31   12   22 1
    32   13   14 1
    33   13   44 1
    34   13   45 1
    35   14   46 1
    36   14   47 1
    37   14   58 1
    38   15   20 ar
    39   15   16 ar
    40   16   17 ar
    41   16   48 1
    42   17   18 ar
    43   17   49 1
    44   18   19 ar
    45   18   21 1
    46   19   20 ar
    47   19   50 1
    48   20   51 1
    49   22   52 1
    50   23   24 3
    51   25   30 ar
    52   25   26 ar
    53   26   27 ar
    54   26   53 1
    55   27   28 ar
    56   27   54 1
    57   28   29 ar
    58   28   55 1
    59   29   30 ar
    60   29   56 1
    61   30   57 1
    62   58   59 1
@<TRIPOS>MOLECULE
ZINC40379588
   52    54     0     0     0
SMALL
USER_CHARGES

@<TRIPOS>ATOM
      1 C1         -2.9491   -3.5149   -3.0245 C.ar      1 <0>        -0.1023
      2 C2         -3.5168   -4.7110   -2.6275 C.ar      1 <0>        -0.1081
      3 C3         -2.9405   -5.4445   -1.6057 C.ar      1 <0>        -0.0305
      4 C4         -1.7962   -4.9802   -0.9819 C.ar      1 <0>        -0.1082
      5 C5         -1.2294   -3.7840   -1.3798 C.ar      1 <0>        -0.0915
      6 C6         -1.8058   -3.0515   -2.4007 C.ar      1 <0>        -0.1048
      7 C7         -1.1870   -1.7476   -2.8343 C.3       1 <0>         0.1431
      8 N1         -1.6482   -0.6715   -1.9536 N.am      1 <0>        -0.6032
      9 C8         -0.9742   -0.4319   -0.6751 C.3       1 <0>         0.1178
     10 C9          0.1001    0.6420   -0.8583 C.3       1 <0>         0.0602
     11 O1         -0.5208    1.8845   -1.1940 O.3       1 <0>        -0.5452
     12 C10        -2.6924    0.0980   -2.3195 C.2       1 <0>         0.5232
     13 O2         -3.1305    0.9299   -1.5535 O.2       1 <0>        -0.5023
     14 C11        -3.3157   -0.0754   -3.6806 C.3       1 <0>         0.1366
     15 H1         -2.5895   -0.5088   -4.3683 H         1 <0>         0.0952
     16 C12        -4.5533   -0.9917   -3.5782 C.3       1 <0>        -0.1268
     17 C13        -5.7280    0.0187   -3.4978 C.3       1 <0>        -0.1294
     18 C14        -5.2288    1.1509   -4.4298 C.3       1 <0>         0.0971
     19 N2         -3.7728    1.2255   -4.1906 N.am      1 <0>        -0.6147
     20 C15        -2.9931    2.3043   -4.4019 C.2       1 <0>         0.7267
     21 O3         -1.8016    2.2488   -4.1661 O.2       1 <0>        -0.5503
     22 N3         -3.5341    3.4447   -4.8746 N.am      1 <0>        -0.6834
     23 C16        -2.7094    4.5277   -5.2017 C.ar      1 <0>         0.1771
     24 C17        -3.1559    5.8272   -5.0018 C.ar      1 <0>        -0.1365
     25 C18        -2.3404    6.8938   -5.3254 C.ar      1 <0>        -0.0878
     26 C19        -1.0793    6.6683   -5.8484 C.ar      1 <0>        -0.0536
     27 C20        -0.6320    5.3743   -6.0491 C.ar      1 <0>        -0.0887
     28 C21        -1.4413    4.3041   -5.7214 C.ar      1 <0>        -0.1079
     29 Cl1        -0.0567    8.0113   -6.2541 Cl        1 <0>        -0.0715
     30 Cl2        -3.6532   -6.9465   -1.1062 Cl        1 <0>        -0.0663
     31 H2         -3.3963   -2.9445   -3.8251 H         1 <0>         0.1350
     32 H3         -4.4103   -5.0727   -3.1146 H         1 <0>         0.1359
     33 H4         -1.3461   -5.5521   -0.1840 H         1 <0>         0.1353
     34 H5         -0.3364   -3.4213   -0.8926 H         1 <0>         0.1316
     35 H6         -0.1012   -1.8238   -2.7770 H         1 <0>         0.0911
     36 H7         -1.4823   -1.5288   -3.8605 H         1 <0>         0.0933
     37 H8         -1.7029   -0.0948    0.0622 H         1 <0>         0.0886
     38 H9         -0.5095   -1.3557   -0.3306 H         1 <0>         0.0886
     39 H10         0.6622    0.7555    0.0687 H         1 <0>         0.0495
     40 H11         0.7769    0.3459   -1.6597 H         1 <0>         0.0424
     41 H12         0.1019    2.6126   -1.3252 H         1 <0>         0.3727
     42 H13        -4.6436   -1.6183   -4.4655 H         1 <0>         0.0924
     43 H14        -4.5075   -1.6024   -2.6766 H         1 <0>         0.0917
     44 H15        -6.6495   -0.4224   -3.8779 H         1 <0>         0.0927
     45 H16        -5.8619    0.3819   -2.4789 H         1 <0>         0.0845
     46 H17        -5.4283    0.9003   -5.4717 H         1 <0>         0.0769
     47 H18        -5.7054    2.0956   -4.1680 H         1 <0>         0.0761
     48 H19        -4.4948    3.5150   -4.9881 H         1 <0>         0.4070
     49 H20        -4.1403    6.0037   -4.5940 H         1 <0>         0.1342
     50 H21        -2.6875    7.9047   -5.1704 H         1 <0>         0.1374
     51 H22         0.3525    5.2009   -6.4577 H         1 <0>         0.1358
     52 H23        -1.0899    3.2942   -5.8736 H         1 <0>         0.1430
@<TRIPOS>BOND
     1    1    6 ar
     2    1    2 ar
     3    1   31 1
     4    2    3 ar
     5    2   32 1
     6    3    4 ar
     7    3   30 1
     8    4    5 ar
     9    4   33 1
    10    5    6 ar
    11    5   34 1
    12    6    7 1
    13    7    8 1
    14    7   35 1
    15    7   36 1
    16    8    9 1
    17    8   12 am
    18    9   10 1
    19    9   37 1
    20    9   38 1
    21   10   11 1
    22   10   39 1
    23   10   40 1
    24   11   41 1
    25   12   13 2
    26   12   14 1
    27   14   15 1
    28   14   19 1
    29   14   16 1
    30   16   17 1
    31   16   42 1
    32   16   43 1
    33   17   18 1
    34   17   44 1
    35   17   45 1
    36   18   19 1
    37   18   46 1
    38   18   47 1
    39   19   20 am
    40   20   21 2
    41   20   22 am
    42   22   23 1
    43   22   48 1
    44   23   28 ar
    45   23   24 ar
    46   24   25 ar
    47   24   49 1
    48   25   26 ar
    49   25   50 1
    50   26   27 ar
    51   26   29 1
    52   27   28 ar
    53   27   51 1
    54   28   52 1
@<TRIPOS>MOLECULE
ZINC40899370
   51    53     0     0     0
SMALL
USER_CHARGES

@<TRIPOS>ATOM
      1 C1         -0.0149    1.4579    0.0112 C.3       1 <0>         0.0723
      2 N1          0.0123   -0.0068   -0.0009 N.am      1 <0>        -0.6114
      3 C2          0.0438   -0.7492    1.2617 C.3       1 <0>         0.1570
      4 C3         -1.3658   -1.0303    1.7145 C.ar      1 <0>        -0.1068
      5 C4         -2.0248   -0.1246    2.5246 C.ar      1 <0>        -0.0950
      6 C5         -3.3176   -0.3818    2.9402 C.ar      1 <0>        -0.1158
      7 C6         -3.9522   -1.5461    2.5453 C.ar      1 <0>        -0.0281
      8 C7         -3.2920   -2.4522    1.7346 C.ar      1 <0>        -0.1097
      9 C8         -2.0013   -2.1912    1.3150 C.ar      1 <0>        -0.0731
     10 Cl1        -5.5758   -1.8702    3.0674 Cl        1 <0>        -0.0701
     11 C9          0.0083   -0.6712   -1.1735 C.2       1 <0>         0.5143
     12 O1          0.0308   -1.8838   -1.1834 O.2       1 <0>        -0.5173
     13 C10        -0.0242    0.0925   -2.4722 C.3       1 <0>         0.1384
     14 H1         -0.7075    0.9376   -2.3881 H         1 <0>         0.1007
     15 C11         1.3925    0.5956   -2.8208 C.3       1 <0>        -0.1210
     16 C12         1.9096   -0.4808   -3.8113 C.3       1 <0>        -0.1304
     17 C13         0.6143   -0.8449   -4.5790 C.3       1 <0>         0.0955
     18 N2         -0.4568   -0.7937   -3.5627 N.am      1 <0>        -0.6147
     19 C14        -1.6326   -1.4496   -3.6222 C.2       1 <0>         0.7306
     20 O2         -2.4407   -1.3321   -2.7213 O.2       1 <0>        -0.5553
     21 N3         -1.9128   -2.2359   -4.6804 N.am      1 <0>        -0.6834
     22 C15        -3.0900   -2.9925   -4.6976 C.ar      1 <0>         0.2009
     23 C16        -3.0994   -4.2514   -5.2838 C.ar      1 <0>        -0.1492
     24 C17        -4.2626   -4.9958   -5.2989 C.ar      1 <0>        -0.0484
     25 C18        -5.4171   -4.4889   -4.7310 C.ar      1 <0>        -0.2026
     26 C19        -5.4111   -3.2355   -4.1469 C.ar      1 <0>        -0.0491
     27 C20        -4.2496   -2.4885   -4.1236 C.ar      1 <0>        -0.1218
     28 C21        -6.6845   -5.3039   -4.7492 C.3       1 <0>         0.5101
     29 F1         -6.7455   -6.0971   -3.5984 F         1 <0>        -0.1766
     30 F2         -7.7897   -4.4467   -4.7838 F         1 <0>        -0.1773
     31 F3         -6.6951   -6.1245   -5.8822 F         1 <0>        -0.1779
     32 H2          1.0057    1.8404   -0.0003 H         1 <0>         0.0628
     33 H3         -0.5480    1.8187   -0.8685 H         1 <0>         0.0728
     34 H4         -0.5228    1.8045    0.9112 H         1 <0>         0.0751
     35 H5          0.5734   -1.6908    1.1163 H         1 <0>         0.0939
     36 H6          0.5574   -0.1567    2.0188 H         1 <0>         0.0897
     37 H7         -1.5293    0.7841    2.8331 H         1 <0>         0.1294
     38 H8         -3.8323    0.3257    3.5734 H         1 <0>         0.1331
     39 H9         -3.7867   -3.3614    1.4262 H         1 <0>         0.1321
     40 H10        -1.4876   -2.8962    0.6782 H         1 <0>         0.1341
     41 H11         1.3472    1.5726   -3.3020 H         1 <0>         0.0938
     42 H12         2.0189    0.6322   -1.9295 H         1 <0>         0.0899
     43 H13         2.6588   -0.0644   -4.4847 H         1 <0>         0.0939
     44 H14         2.3037   -1.3457   -3.2777 H         1 <0>         0.0822
     45 H15         0.4228   -0.1165   -5.3669 H         1 <0>         0.0778
     46 H16         0.6914   -1.8478   -4.9989 H         1 <0>         0.0776
     47 H17        -1.2986   -2.2774   -5.4299 H         1 <0>         0.4093
     48 H18        -2.1982   -4.6477   -5.7278 H         1 <0>         0.1374
     49 H19        -4.2707   -5.9748   -5.7549 H         1 <0>         0.1404
     50 H20        -6.3144   -2.8422   -3.7046 H         1 <0>         0.1389
     51 H21        -4.2443   -1.5116   -3.6630 H         1 <0>         0.1514
@<TRIPOS>BOND
     1    1    2 1
     2    1   32 1
     3    1   33 1
     4    1   34 1
     5    2    3 1
     6    2   11 am
     7    3    4 1
     8    3   35 1
     9    3   36 1
    10    4    9 ar
    11    4    5 ar
    12    5    6 ar
    13    5   37 1
    14    6    7 ar
    15    6   38 1
    16    7    8 ar
    17    7   10 1
    18    8    9 ar
    19    8   39 1
    20    9   40 1
    21   11   12 2
    22   11   13 1
    23   13   14 1
    24   13   18 1
    25   13   15 1
    26   15   16 1
    27   15   41 1
    28   15   42 1
    29   16   17 1
    30   16   43 1
    31   16   44 1
    32   17   18 1
    33   17   45 1
    34   17   46 1
    35   18   19 am
    36   19   20 2
    37   19   21 am
    38   21   22 1
    39   21   47 1
    40   22   27 ar
    41   22   23 ar
    42   23   24 ar
    43   23   48 1
    44   24   25 ar
    45   24   49 1
    46   25   26 ar
    47   25   28 1
    48   26   27 ar
    49   26   50 1
    50   27   51 1
    51   28   29 1
    52   28   30 1
    53   28   31 1
@<TRIPOS>MOLECULE
ZINC42887577
   51    55     0     0     0
SMALL
USER_CHARGES

@<TRIPOS>ATOM
      1 C1         -0.0518    1.5017   -0.1148 C.3       1 <0>        -0.1240
      2 C2          1.3896    2.0009   -0.1884 C.3       1 <0>        -0.1233
      3 C3          2.1792    1.5324    1.0162 C.3       1 <0>        -0.1236
      4 C4          2.0195    0.0939    1.3795 C.3       1 <0>         0.0936
      5 H1          2.2717   -0.0155    2.4343 H         1 <0>         0.0954
      6 C5          0.6350   -0.5290    1.1646 C.3       1 <0>        -0.0591
      7 H2         -0.0167   -0.3840    2.0262 H         1 <0>         0.1072
      8 C6         -0.0335   -0.0263   -0.0957 C.3       1 <0>        -0.1163
      9 C7          1.0170   -1.9803    0.9762 C.2       1 <0>        -0.3344
     10 C8          2.3328   -2.0225    0.6739 C.2       1 <0>         0.2511
     11 O1          2.8682   -0.7933    0.6365 O.3       1 <0>        -0.2589
     12 C9          3.0235   -3.3350    0.3757 C.3       1 <0>        -0.0898
     13 C10         2.3849   -4.4569    1.1913 C.3       1 <0>        -0.0540
     14 C11         0.8856   -4.4170    1.1377 C.ar      1 <0>        -0.2237
     15 C12         0.2049   -3.1948    1.0601 C.ar      1 <0>         0.3605
     16 N1         -1.1238   -3.1799    1.0574 N.ar      1 <0>        -0.5496
     17 C13        -1.8045   -4.3176    1.0919 C.ar      1 <0>         0.6483
     18 N2         -1.1964   -5.4936    1.1387 N.ar      1 <0>        -0.5521
     19 C14         0.1326   -5.5842    1.1657 C.ar      1 <0>         0.5268
     20 N3          0.7537   -6.8224    1.2213 N.pl3     1 <0>        -0.6706
     21 C15         1.1158   -7.4297    2.5114 C.3       1 <0>         0.1172
     22 C16         0.5808   -8.8652    2.5396 C.3       1 <0>        -0.0241
     23 N4          1.0770   -9.5946    1.3658 N.4       1 <0>        -0.5044
     24 C17         0.5361   -8.9955    0.1392 C.3       1 <0>        -0.0241
     25 C18         1.0638   -7.5690   -0.0077 C.3       1 <0>         0.1164
     26 N5         -3.1878   -4.2751    1.0794 N.pl3     1 <0>        -0.7861
     27 H3         -0.5233    1.8744    0.7945 H         1 <0>         0.0723
     28 H4         -0.6061    1.8511   -0.9859 H         1 <0>         0.0790
     29 H5          1.8567    1.6173   -1.0955 H         1 <0>         0.0679
     30 H6          1.3913    3.0905   -0.2174 H         1 <0>         0.0831
     31 H7          3.2358    1.7200    0.8248 H         1 <0>         0.0919
     32 H8          1.8815    2.1354    1.8741 H         1 <0>         0.0970
     33 H9         -1.0557   -0.4014   -0.1447 H         1 <0>         0.0613
     34 H10         0.5270   -0.3925   -0.9558 H         1 <0>         0.0705
     35 H11         2.9287   -3.5606   -0.6864 H         1 <0>         0.1212
     36 H12         4.0793   -3.2553    0.6345 H         1 <0>         0.1271
     37 H13         2.7271   -5.4157    0.8020 H         1 <0>         0.1112
     38 H14         2.7040   -4.3648    2.2295 H         1 <0>         0.1008
     39 H15         2.2003   -7.4408    2.6194 H         1 <0>         0.1031
     40 H16         0.6696   -6.8565    3.3241 H         1 <0>         0.1198
     41 H17         0.9220   -9.3625    3.4475 H         1 <0>         0.1503
     42 H18        -0.5090   -8.8474    2.5225 H         1 <0>         0.1373
     43 H19         2.0848   -9.5495    1.3446 H         1 <0>         0.4310
     44 H20         0.8444   -9.5888   -0.7216 H         1 <0>         0.1504
     45 H21        -0.5523   -8.9737    0.1947 H         1 <0>         0.1374
     46 H22         0.5833   -7.0878   -0.8596 H         1 <0>         0.1202
     47 H23         2.1430   -7.5944   -0.1584 H         1 <0>         0.1025
     48 H24        -3.6465   -3.4211    1.0456 H         1 <0>         0.4335
     49 H25        -3.6986   -5.0994    1.1043 H         1 <0>         0.4469
     50 H26         0.7871  -10.5594    1.4236 H         1 <0>         0.4402
     51 H27        -1.5976   -2.3339    1.0303 H         1 <0>         0.4460
@<TRIPOS>BOND
     1    1    8 1
     2    1    2 1
     3    1   27 1
     4    1   28 1
     5    2    3 1
     6    2   29 1
     7    2   30 1
     8    3    4 1
     9    3   31 1
    10    3   32 1
    11    4    5 1
    12    4   11 1
    13    4    6 1
    14    6    7 1
    15    6    8 1
    16    6    9 1
    17    8   33 1
    18    8   34 1
    19    9   15 1
    20    9   10 2
    21   10   11 1
    22   10   12 1
    23   12   13 1
    24   12   35 1
    25   12   36 1
    26   13   14 1
    27   13   37 1
    28   13   38 1
    29   14   19 ar
    30   14   15 ar
    31   15   16 ar
    32   16   17 ar
    33   16   51 1
    34   17   18 ar
    35   17   26 1
    36   18   19 ar
    37   19   20 1
    38   20   25 1
    39   20   21 1
    40   21   22 1
    41   21   39 1
    42   21   40 1
    43   22   23 1
    44   22   41 1
    45   22   42 1
    46   23   24 1
    47   23   43 1
    48   23   50 1
    49   24   25 1
    50   24   44 1
    51   24   45 1
    52   25   46 1
    53   25   47 1
    54   26   48 1
    55   26   49 1
@<TRIPOS>MOLECULE
ZINC42887577
   50    54     0     0     0
SMALL
USER_CHARGES

@<TRIPOS>ATOM
      1 C1         -0.0518    1.5017   -0.1148 C.3       1 <0>        -0.1220
      2 C2          1.3896    2.0009   -0.1884 C.3       1 <0>        -0.1192
      3 C3          2.1792    1.5324    1.0162 C.3       1 <0>        -0.1147
      4 C4          2.0195    0.0939    1.3795 C.3       1 <0>         0.0898
      5 H1          2.2717   -0.0155    2.4343 H         1 <0>         0.0758
      6 C5          0.6350   -0.5290    1.1646 C.3       1 <0>        -0.0477
      7 H2         -0.0167   -0.3840    2.0262 H         1 <0>         0.0960
      8 C6         -0.0335   -0.0263   -0.0957 C.3       1 <0>        -0.1049
      9 C7          1.0170   -1.9803    0.9762 C.2       1 <0>        -0.2453
     10 C8          2.3328   -2.0225    0.6739 C.2       1 <0>         0.1401
     11 O1          2.8682   -0.7933    0.6365 O.3       1 <0>        -0.2869
     12 C9          3.0235   -3.3350    0.3757 C.3       1 <0>        -0.0663
     13 C10         2.3849   -4.4569    1.1913 C.3       1 <0>        -0.0450
     14 C11         0.8856   -4.4170    1.1377 C.ar      1 <0>        -0.2541
     15 C12         0.2049   -3.1948    1.0601 C.ar      1 <0>         0.3245
     16 N1         -1.1238   -3.1799    1.0574 N.ar      1 <0>        -0.5564
     17 C13        -1.8045   -4.3176    1.0919 C.ar      1 <0>         0.5906
     18 N2         -1.1964   -5.4936    1.1387 N.ar      1 <0>        -0.6006
     19 C14         0.1326   -5.5842    1.1657 C.ar      1 <0>         0.4501
     20 N3          0.7537   -6.8224    1.2213 N.pl3     1 <0>        -0.6608
     21 C15         1.1158   -7.4297    2.5114 C.3       1 <0>         0.1219
     22 C16         0.5808   -8.8652    2.5396 C.3       1 <0>        -0.0241
     23 N4          1.0770   -9.5946    1.3658 N.4       1 <0>        -0.5018
     24 C17         0.5361   -8.9955    0.1392 C.3       1 <0>        -0.0239
     25 C18         1.0638   -7.5690   -0.0077 C.3       1 <0>         0.1212
     26 N5         -3.1878   -4.2751    1.0794 N.pl3     1 <0>        -0.8176
     27 H3         -0.5233    1.8744    0.7945 H         1 <0>         0.0664
     28 H4         -0.6061    1.8511   -0.9859 H         1 <0>         0.0695
     29 H5          1.8567    1.6173   -1.0955 H         1 <0>         0.0639
     30 H6          1.3913    3.0905   -0.2174 H         1 <0>         0.0723
     31 H7          3.2358    1.7200    0.8248 H         1 <0>         0.0806
     32 H8          1.8815    2.1354    1.8741 H         1 <0>         0.0857
     33 H9         -1.0557   -0.4014   -0.1447 H         1 <0>         0.0725
     34 H10         0.5270   -0.3925   -0.9558 H         1 <0>         0.0586
     35 H11         2.9287   -3.5606   -0.6864 H         1 <0>         0.0972
     36 H12         4.0793   -3.2553    0.6345 H         1 <0>         0.1003
     37 H13         2.7271   -5.4157    0.8020 H         1 <0>         0.0853
     38 H14         2.7040   -4.3648    2.2295 H         1 <0>         0.0768
     39 H15         2.2003   -7.4408    2.6194 H         1 <0>         0.0885
     40 H16         0.6696   -6.8565    3.3241 H         1 <0>         0.1147
     41 H17         0.9220   -9.3625    3.4475 H         1 <0>         0.1413
     42 H18        -0.5090   -8.8474    2.5225 H         1 <0>         0.1345
     43 H19         2.0848   -9.5495    1.3446 H         1 <0>         0.4272
     44 H20         0.8444   -9.5888   -0.7216 H         1 <0>         0.1416
     45 H21        -0.5523   -8.9737    0.1947 H         1 <0>         0.1346
     46 H22         0.5833   -7.0878   -0.8596 H         1 <0>         0.1152
     47 H23         2.1430   -7.5944   -0.1584 H         1 <0>         0.0877
     48 H24        -3.6465   -3.4211    1.0456 H         1 <0>         0.4194
     49 H25        -3.6986   -5.0994    1.1043 H         1 <0>         0.4149
     50 H26         0.7871  -10.5594    1.4236 H         1 <0>         0.4326
@<TRIPOS>BOND
     1    1    8 1
     2    1    2 1
     3    1   27 1
     4    1   28 1
     5    2    3 1
     6    2   29 1
     7    2   30 1
     8    3    4 1
     9    3   31 1
    10    3   32 1
    11    4    5 1
    12    4   11 1
    13    4    6 1
    14    6    7 1
    15    6    8 1
    16    6    9 1
    17    8   33 1
    18    8   34 1
    19    9   15 1
    20    9   10 2
    21   10   11 1
    22   10   12 1
    23   12   13 1
    24   12   35 1
    25   12   36 1
    26   13   14 1
    27   13   37 1
    28   13   38 1
    29   14   19 ar
    30   14   15 ar
    31   15   16 ar
    32   16   17 ar
    33   17   18 ar
    34   17   26 1
    35   18   19 ar
    36   19   20 1
    37   20   25 1
    38   20   21 1
    39   21   22 1
    40   21   39 1
    41   21   40 1
    42   22   23 1
    43   22   41 1
    44   22   42 1
    45   23   24 1
    46   23   43 1
    47   23   50 1
    48   24   25 1
    49   24   44 1
    50   24   45 1
    51   25   46 1
    52   25   47 1
    53   26   48 1
    54   26   49 1
@<TRIPOS>MOLECULE
ZINC42887577
   51    55     0     0     0
SMALL
USER_CHARGES

@<TRIPOS>ATOM
      1 C1         -0.0530    1.5009   -0.1188 C.3       1 <0>        -0.1241
      2 C2          1.3884    2.0000   -0.1944 C.3       1 <0>        -0.1226
      3 C3          2.1794    1.5322    1.0096 C.3       1 <0>        -0.1211
      4 C4          2.0201    0.0940    1.3739 C.3       1 <0>         0.0885
      5 H1          2.2735   -0.0148    2.4285 H         1 <0>         0.0910
      6 C5          0.6353   -0.5290    1.1610 C.3       1 <0>        -0.0474
      7 H2         -0.0154   -0.3835    2.0233 H         1 <0>         0.1079
      8 C6         -0.0346   -0.0270   -0.0987 C.3       1 <0>        -0.1091
      9 C7          1.0170   -1.9805    0.9730 C.2       1 <0>        -0.2880
     10 C8          2.3324   -2.0229    0.6692 C.2       1 <0>         0.2249
     11 O1          2.8679   -0.7937    0.6305 O.3       1 <0>        -0.2629
     12 C9          3.0227   -3.3356    0.3710 C.3       1 <0>        -0.0848
     13 C10         2.3850   -4.4570    1.1880 C.3       1 <0>        -0.0597
     14 C11         0.8856   -4.4170    1.1361 C.ar      1 <0>        -0.1763
     15 C12         0.2049   -3.1948    1.0586 C.ar      1 <0>         0.3893
     16 N1         -1.1238   -3.1799    1.0574 N.ar      1 <0>        -0.5112
     17 C13        -1.8045   -4.3176    1.0935 C.ar      1 <0>         0.6478
     18 N2         -1.1964   -5.4935    1.1402 N.ar      1 <0>        -0.5789
     19 C14         0.1326   -5.5842    1.1657 C.ar      1 <0>         0.4358
     20 N3          0.7537   -6.8224    1.2213 N.pl3     1 <0>        -0.6731
     21 C15         1.1158   -7.4297    2.5114 C.3       1 <0>         0.1064
     22 C16         0.5808   -8.8652    2.5396 C.3       1 <0>        -0.0246
     23 N4          1.0770   -9.5946    1.3658 N.4       1 <0>        -0.5057
     24 C17         0.5361   -8.9955    0.1392 C.3       1 <0>        -0.0245
     25 C18         1.0638   -7.5690   -0.0077 C.3       1 <0>         0.1048
     26 N5         -3.1878   -4.2750    1.0825 N.pl3     1 <0>        -0.7858
     27 H3         -0.5234    1.8742    0.7909 H         1 <0>         0.0704
     28 H4         -0.6083    1.8498   -0.9894 H         1 <0>         0.0754
     29 H5          1.8544    1.6159   -1.1017 H         1 <0>         0.0659
     30 H6          1.3901    3.0896   -0.2240 H         1 <0>         0.0797
     31 H7          3.2357    1.7197    0.8169 H         1 <0>         0.0881
     32 H8          1.8828    2.1357    1.8674 H         1 <0>         0.0950
     33 H9         -1.0570   -0.4021   -0.1463 H         1 <0>         0.0741
     34 H10         0.5248   -0.3938   -0.9593 H         1 <0>         0.0610
     35 H11         2.9266   -3.5619   -0.6909 H         1 <0>         0.1187
     36 H12         4.0788   -3.2558    0.6285 H         1 <0>         0.1259
     37 H13         2.7267   -5.4161    0.7988 H         1 <0>         0.1069
     38 H14         2.7053   -4.3643    2.2258 H         1 <0>         0.1056
     39 H15         2.2003   -7.4408    2.6194 H         1 <0>         0.1105
     40 H16         0.6696   -6.8565    3.3241 H         1 <0>         0.1251
     41 H17         0.9220   -9.3625    3.4475 H         1 <0>         0.1558
     42 H18        -0.5090   -8.8474    2.5225 H         1 <0>         0.1333
     43 H19         2.0848   -9.5495    1.3446 H         1 <0>         0.4347
     44 H20         0.8444   -9.5888   -0.7216 H         1 <0>         0.1561
     45 H21        -0.5523   -8.9737    0.1947 H         1 <0>         0.1330
     46 H22         0.5833   -7.0878   -0.8596 H         1 <0>         0.1249
     47 H23         2.1430   -7.5944   -0.1584 H         1 <0>         0.1103
     48 H24        -3.6465   -3.4210    1.0488 H         1 <0>         0.4503
     49 H25        -3.6987   -5.0992    1.1085 H         1 <0>         0.4297
     50 H26         0.7871  -10.5594    1.4236 H         1 <0>         0.4428
     51 H27        -1.7289   -6.3042    1.1559 H         1 <0>         0.4302
@<TRIPOS>BOND
     1    1    8 1
     2    1    2 1
     3    1   27 1
     4    1   28 1
     5    2    3 1
     6    2   29 1
     7    2   30 1
     8    3    4 1
     9    3   31 1
    10    3   32 1
    11    4    5 1
    12    4   11 1
    13    4    6 1
    14    6    7 1
    15    6    8 1
    16    6    9 1
    17    8   33 1
    18    8   34 1
    19    9   15 1
    20    9   10 2
    21   10   11 1
    22   10   12 1
    23   12   13 1
    24   12   35 1
    25   12   36 1
    26   13   14 1
    27   13   37 1
    28   13   38 1
    29   14   19 ar
    30   14   15 ar
    31   15   16 ar
    32   16   17 ar
    33   17   18 ar
    34   17   26 1
    35   18   19 ar
    36   18   51 1
    37   19   20 1
    38   20   25 1
    39   20   21 1
    40   21   22 1
    41   21   39 1
    42   21   40 1
    43   22   23 1
    44   22   41 1
    45   22   42 1
    46   23   24 1
    47   23   43 1
    48   23   50 1
    49   24   25 1
    50   24   44 1
    51   24   45 1
    52   25   46 1
    53   25   47 1
    54   26   48 1
    55   26   49 1
