@<TRIPOS>MOLECULE
ZINC00389747
   46    50     0     0     0
SMALL
USER_CHARGES

@<TRIPOS>ATOM
      1 C1         -0.2153    1.4141   -0.0745 C.2       1 <0>        -0.0995
      2 C2         -0.0782    0.1114   -0.0902 C.2       1 <0>        -0.2383
      3 C3         -1.2926   -0.7753    0.0102 C.3       1 <0>         0.0219
      4 N1         -1.3177   -1.7022   -1.1291 N.4       1 <0>        -0.3732
      5 C4         -0.1699   -2.6098   -1.0369 C.3       1 <0>        -0.0115
      6 C5         -0.1579   -3.5650   -2.2369 C.3       1 <0>        -0.1224
      7 C6         -1.4766   -4.3355   -2.2476 C.3       1 <0>        -0.0302
      8 C7         -1.6481   -5.0614   -0.9360 C.ar      1 <0>        -0.1900
      9 C8         -2.2077   -4.5563    0.2155 C.ar      1 <0>        -0.0588
     10 C9         -2.2401   -5.4171    1.2982 C.ar      1 <0>        -0.1120
     11 C10        -1.7820   -6.7182    1.1690 C.ar      1 <0>        -0.0958
     12 C11        -1.2916   -7.2400   -0.0258 C.ar      1 <0>         0.1139
     13 C12        -1.2444   -6.3749   -1.1253 C.ar      1 <0>         0.0999
     14 O1         -0.8978   -6.5770   -2.4147 O.3       1 <0>        -0.2605
     15 C13        -1.4528   -5.4998   -3.2278 C.3       1 <0>         0.0635
     16 H1         -0.8189   -5.2819   -4.0873 H         1 <0>         0.1602
     17 C14        -2.8321   -5.9204   -3.6420 C.2       1 <0>         0.3396
     18 O2         -2.9993   -7.0571   -4.0139 O.2       1 <0>        -0.4106
     19 C15        -4.0126   -4.9969   -3.6157 C.3       1 <0>        -0.1600
     20 C16        -3.9662   -4.1258   -2.3586 C.3       1 <0>        -0.1396
     21 C17        -2.6424   -3.3641   -2.3407 C.3       1 <0>         0.1455
     22 C18        -2.5801   -2.4492   -1.1149 C.3       1 <0>         0.0114
     23 H2         -3.3918   -1.7267   -1.1991 H         1 <0>         0.1436
     24 C19        -2.7615   -3.1683    0.2110 C.3       1 <0>        -0.0929
     25 O3         -2.5223   -2.5856   -3.5330 O.3       1 <0>        -0.5416
     26 O4         -0.8769   -8.5317   -0.1197 O.3       1 <0>        -0.4784
     27 H3          0.6551    2.0496   -0.1465 H         1 <0>         0.1244
     28 H4         -1.1989    1.8527    0.0058 H         1 <0>         0.1121
     29 H5          0.9051   -0.3271   -0.1750 H         1 <0>         0.1345
     30 H6         -1.2521   -1.3431    0.9398 H         1 <0>         0.1373
     31 H7         -2.1930   -0.1610   -0.0013 H         1 <0>         0.1333
     32 H8          0.7517   -2.0277   -1.0288 H         1 <0>         0.1386
     33 H9         -0.2388   -3.1877   -0.1153 H         1 <0>         0.1323
     34 H10        -0.0581   -2.9942   -3.1601 H         1 <0>         0.1101
     35 H11         0.6746   -4.2623   -2.1434 H         1 <0>         0.1196
     36 H12        -2.6236   -5.0734    2.2475 H         1 <0>         0.1419
     37 H13        -1.8059   -7.3595    2.0377 H         1 <0>         0.1457
     38 H14        -3.9926   -4.3588   -4.4992 H         1 <0>         0.1182
     39 H15        -4.9312   -5.5837   -3.6157 H         1 <0>         0.1110
     40 H16        -4.7952   -3.4182   -2.3732 H         1 <0>         0.0998
     41 H17        -4.0368   -4.7574   -1.4731 H         1 <0>         0.0957
     42 H18        -3.8263   -3.2164    0.4393 H         1 <0>         0.1278
     43 H19        -2.2654   -2.5918    0.9917 H         1 <0>         0.1086
     44 H20        -3.2345   -1.9433   -3.6567 H         1 <0>         0.3954
     45 H21        -1.5743   -9.1511   -0.3750 H         1 <0>         0.4012
     46 H22        -1.2543   -1.1748   -1.9869 H         1 <0>         0.4286
@<TRIPOS>BOND
     1    1    2 2
     2    1   27 1
     3    1   28 1
     4    2    3 1
     5    2   29 1
     6    3    4 1
     7    3   30 1
     8    3   31 1
     9    4   22 1
    10    4    5 1
    11    4   46 1
    12    5    6 1
    13    5   32 1
    14    5   33 1
    15    6    7 1
    16    6   34 1
    17    6   35 1
    18    7   15 1
    19    7   21 1
    20    7    8 1
    21    8   13 ar
    22    8    9 ar
    23    9   24 1
    24    9   10 ar
    25   10   11 ar
    26   10   36 1
    27   11   12 ar
    28   11   37 1
    29   12   13 ar
    30   12   26 1
    31   13   14 1
    32   14   15 1
    33   15   16 1
    34   15   17 1
    35   17   18 2
    36   17   19 1
    37   19   20 1
    38   19   38 1
    39   19   39 1
    40   20   21 1
    41   20   40 1
    42   20   41 1
    43   21   22 1
    44   21   25 1
    45   22   23 1
    46   22   24 1
    47   24   42 1
    48   24   43 1
    49   25   44 1
    50   26   45 1
