@<TRIPOS>MOLECULE
ZINC00897637
   31    33     0     0     0
SMALL
USER_CHARGES
2-(3,4-dihydroxyphenyl)chromenylium-5,7-diol
@<TRIPOS>ATOM
      1 C1         -0.0126    1.0758    0.0080 C.ar      1 <0>        -0.0387
      2 C2         -1.2163    1.7490    0.0173 C.ar      1 <0>        -0.1351
      3 C3         -1.2386    3.1360    0.0298 C.ar      1 <0>         0.1582
      4 C4         -0.0444    3.8548    0.0223 C.ar      1 <0>         0.0821
      5 C5          1.1644    3.1856    0.0076 C.ar      1 <0>        -0.0702
      6 C6          1.1862    1.7896    0.0003 C.ar      1 <0>        -0.1291
      7 C7          2.4783    1.0685   -0.0149 C.2       1 <0>         0.2957
      8 C8          2.4640   -0.3339   -0.0157 C.2       1 <0>        -0.2246
      9 C9          3.6705   -0.9907   -0.0360 C.2       1 <0>         0.0872
     10 C10         4.8136   -0.1632   -0.0421 C.ar      1 <0>        -0.1897
     11 C11         6.1130   -0.7018   -0.0557 C.ar      1 <0>         0.2070
     12 C12         7.1922    0.1378   -0.0616 C.ar      1 <0>        -0.1593
     13 C13         7.0139    1.5224   -0.0533 C.ar      1 <0>         0.2361
     14 C14         5.7514    2.0754   -0.0395 C.ar      1 <0>        -0.1755
     15 C15         4.6237    1.2417   -0.0337 C.ar      1 <0>         0.1569
     16 O1          3.5010    1.7138   -0.0212 O.3       1 <0>        -0.0544
     17 O2          8.1005    2.3366   -0.0594 O.3       1 <0>        -0.4751
     18 O3          6.2944   -2.0469   -0.0638 O.3       1 <0>        -0.4736
     19 O4         -0.0690    5.2145    0.0298 O.3       1 <0>        -0.4764
     20 O5         -2.4267    3.7950    0.0438 O.3       1 <0>        -0.4781
     21 H1          0.0021   -0.0041    0.0020 H         1 <0>         0.1525
     22 H2         -2.1435    1.1951    0.0190 H         1 <0>         0.1605
     23 H3          2.0905    3.7412    0.0021 H         1 <0>         0.1523
     24 H4          1.5328   -0.8808   -0.0050 H         1 <0>         0.1975
     25 H5          3.7396   -2.0684   -0.0417 H         1 <0>         0.1950
     26 H6          8.1907   -0.2736   -0.0724 H         1 <0>         0.1725
     27 H7          5.6308    3.1486   -0.0336 H         1 <0>         0.1773
     28 H8          8.4231    2.5684    0.8223 H         1 <0>         0.4217
     29 H9          6.3551   -2.4409    0.8172 H         1 <0>         0.4175
     30 H10        -0.0842    5.6125   -0.8514 H         1 <0>         0.4011
     31 H11        -2.7787    3.9900   -0.8355 H         1 <0>         0.4088
@<TRIPOS>BOND
     1    1    6 ar
     2    1    2 ar
     3    1   21 1
     4    2    3 ar
     5    2   22 1
     6    3    4 ar
     7    3   20 1
     8    4    5 ar
     9    4   19 1
    10    5    6 ar
    11    5   23 1
    12    6    7 1
    13    7   16 2
    14    7    8 1
    15    8    9 2
    16    8   24 1
    17    9   10 1
    18    9   25 1
    19   10   15 ar
    20   10   11 ar
    21   11   12 ar
    22   11   18 1
    23   12   13 ar
    24   12   26 1
    25   13   14 ar
    26   13   17 1
    27   14   15 ar
    28   14   27 1
    29   15   16 1
    30   17   28 1
    31   18   29 1
    32   19   30 1
    33   20   31 1
@<TRIPOS>MOLECULE
ZINC18185774
   31    33     0     0     0
SMALL
USER_CHARGES

@<TRIPOS>ATOM
      1 C1         -0.0169    1.3929    0.0097 C.ar      1 <0>        -0.0705
      2 C2          1.1675    2.0983    0.0022 C.ar      1 <0>        -0.1309
      3 C3          2.3803    1.4240   -0.0135 C.ar      1 <0>         0.1099
      4 C4          2.4067    0.0300   -0.0212 C.ar      1 <0>         0.0792
      5 C5          1.2240   -0.6832   -0.0138 C.ar      1 <0>        -0.0904
      6 C6          0.0021   -0.0041    0.0020 C.ar      1 <0>        -0.0661
      7 C7         -1.2642   -0.7606    0.0105 C.2       1 <0>         0.2069
      8 C8         -2.4374   -0.0724    0.0203 C.2       1 <0>        -0.3067
      9 C9         -3.6620   -0.7813    0.0286 C.2       1 <0>         0.4226
     10 O1         -4.7331   -0.1964    0.0371 O.2       1 <0>        -0.4521
     11 C10        -3.5935   -2.2524    0.0260 C.ar      1 <0>        -0.2661
     12 C11        -4.7554   -3.0344    0.0332 C.ar      1 <0>         0.2196
     13 C12        -4.6484   -4.4128    0.0300 C.ar      1 <0>        -0.2046
     14 C13        -3.3955   -5.0163    0.0203 C.ar      1 <0>         0.1928
     15 C14        -2.2415   -4.2483    0.0131 C.ar      1 <0>        -0.1829
     16 C15        -2.3286   -2.8648    0.0157 C.ar      1 <0>         0.1832
     17 O2         -1.2147   -2.1022    0.0028 O.3       1 <0>        -0.2181
     18 O3         -3.3016   -6.3705    0.0182 O.3       1 <0>        -0.4872
     19 O4         -5.9771   -2.4436    0.0436 O.3       1 <0>        -0.4722
     20 O5          3.5971   -0.6274   -0.0366 O.3       1 <0>        -0.4831
     21 O6          3.5446    2.1239   -0.0217 O.3       1 <0>        -0.4848
     22 H1         -0.9593    1.9201    0.0260 H         1 <0>         0.1451
     23 H2          1.1515    3.1781    0.0081 H         1 <0>         0.1468
     24 H3          1.2430   -1.7630   -0.0205 H         1 <0>         0.1466
     25 H4         -2.4342    1.0076    0.0222 H         1 <0>         0.1649
     26 H5         -5.5400   -5.0224    0.0355 H         1 <0>         0.1504
     27 H6         -1.2739   -4.7281    0.0059 H         1 <0>         0.1535
     28 H7         -3.2809   -6.7620   -0.8658 H         1 <0>         0.4041
     29 H8         -6.3379   -2.2705   -0.8367 H         1 <0>         0.4034
     30 H9          3.9502   -0.8223    0.8423 H         1 <0>         0.3919
     31 H10         3.8907    2.3221    0.8592 H         1 <0>         0.3948
@<TRIPOS>BOND
     1    1    6 ar
     2    1    2 ar
     3    1   22 1
     4    2    3 ar
     5    2   23 1
     6    3    4 ar
     7    3   21 1
     8    4    5 ar
     9    4   20 1
    10    5    6 ar
    11    5   24 1
    12    6    7 1
    13    7   17 1
    14    7    8 2
    15    8    9 1
    16    8   25 1
    17    9   10 2
    18    9   11 1
    19   11   16 ar
    20   11   12 ar
    21   12   13 ar
    22   12   19 1
    23   13   14 ar
    24   13   26 1
    25   14   15 ar
    26   14   18 1
    27   15   16 ar
    28   15   27 1
    29   16   17 1
    30   18   28 1
    31   19   29 1
    32   20   30 1
    33   21   31 1
@<TRIPOS>MOLECULE
ZINC04097706
   53    56     0     0     0
SMALL
USER_CHARGES
2-[2-(3,4-dihydroxyphenyl)-5,7-dihydroxy-chromen-3-yl]oxy-6-(hydroxymethyl)tetrahydropyran-3,4,5-triol
@<TRIPOS>ATOM
      1 C1          7.5077    4.9031   -2.3484 C.ar      1 <0>        -0.0542
      2 C2          8.7063    4.2253   -2.2702 C.ar      1 <0>        -0.1258
      3 C3          9.3147    4.0256   -1.0396 C.ar      1 <0>         0.1372
      4 C4          8.7174    4.5100    0.1229 C.ar      1 <0>         0.0904
      5 C5          7.5194    5.1948    0.0501 C.ar      1 <0>        -0.0748
      6 C6          6.9044    5.3902   -1.1882 C.ar      1 <0>        -0.1150
      7 C7          5.6188    6.1172   -1.2706 C.2       1 <0>         0.2617
      8 C8          4.4220    5.3837   -1.1754 C.2       1 <0>         0.0547
      9 C9          3.2338    6.0761   -1.2599 C.2       1 <0>         0.0063
     10 C10         3.3541    7.4722   -1.4248 C.ar      1 <0>        -0.1407
     11 C11         2.2223    8.3023   -1.5190 C.ar      1 <0>         0.1971
     12 C12         2.3844    9.6499   -1.6822 C.ar      1 <0>        -0.1462
     13 C13         3.6626   10.2069   -1.7558 C.ar      1 <0>         0.2305
     14 C14         4.7875    9.4162   -1.6673 C.ar      1 <0>        -0.1687
     15 C15         4.6555    8.0294   -1.4986 C.ar      1 <0>         0.1307
     16 O1          5.6402    7.3175   -1.4166 O.3       1 <0>        -0.0103
     17 O2          3.7992   11.5484   -1.9176 O.3       1 <0>        -0.4739
     18 O3          0.9762    7.7682   -1.4488 O.3       1 <0>        -0.4714
     19 O4          4.4374    4.0344   -1.0109 O.3       1 <0>        -0.2533
     20 C16         3.1716    3.3769   -0.9246 C.3       1 <0>         0.2150
     21 H1          2.5719    3.6265   -1.8000 H         1 <0>         0.0916
     22 C17         3.3860    1.8621   -0.8677 C.3       1 <0>         0.0627
     23 H2          4.0193    1.6157   -0.0154 H         1 <0>         0.0957
     24 C18         2.0292    1.1676   -0.7150 C.3       1 <0>         0.0861
     25 H3          1.4137    1.3735   -1.5907 H         1 <0>         0.0824
     26 C19         1.3319    1.7036    0.5391 C.3       1 <0>         0.0881
     27 H4          1.9231    1.4530    1.4198 H         1 <0>         0.0853
     28 C20         1.1969    3.2245    0.4278 C.3       1 <0>         0.1093
     29 H5          0.5713    3.4721   -0.4298 H         1 <0>         0.0907
     30 O5          2.4914    3.8051    0.2569 O.3       1 <0>        -0.3814
     31 C21         0.5553    3.7745    1.7033 C.3       1 <0>         0.0896
     32 O6          0.3226    5.1764    1.5531 O.3       1 <0>        -0.5767
     33 O7          0.0342    1.1160    0.6520 O.3       1 <0>        -0.5465
     34 O8          2.2255   -0.2420   -0.5873 O.3       1 <0>        -0.5470
     35 O9          4.0148    1.4219   -2.0730 O.3       1 <0>        -0.5456
     36 O10         9.3164    4.3136    1.3279 O.3       1 <0>        -0.4771
     37 O11        10.4953    3.3568   -0.9674 O.3       1 <0>        -0.4798
     38 H6          7.0361    5.0572   -3.3077 H         1 <0>         0.1443
     39 H7          9.1721    3.8489   -3.1690 H         1 <0>         0.1563
     40 H8          7.0577    5.5746    0.9496 H         1 <0>         0.1458
     41 H9          2.2744    5.5836   -1.2000 H         1 <0>         0.1982
     42 H10         1.5167   10.2888   -1.7550 H         1 <0>         0.1748
     43 H11         5.7689    9.8631   -1.7258 H         1 <0>         0.1800
     44 H12         3.8434   12.0422   -1.0874 H         1 <0>         0.4213
     45 H13         0.6194    7.7188   -0.5513 H         1 <0>         0.4197
     46 H14        -0.3922    3.2660    1.8818 H         1 <0>         0.0883
     47 H15         1.2232    3.6054    2.5479 H         1 <0>         0.0622
     48 H16        -0.0834    5.5927    2.3257 H         1 <0>         0.3917
     49 H17         0.0439    0.1515    0.7216 H         1 <0>         0.4023
     50 H18         2.6632   -0.6487   -1.3476 H         1 <0>         0.4003
     51 H19         4.8803    1.8222   -2.2340 H         1 <0>         0.3946
     52 H20         9.9267    5.0189    1.5834 H         1 <0>         0.3993
     53 H21        11.2743    3.9253   -1.0390 H         1 <0>         0.4045
@<TRIPOS>BOND
     1    1    6 ar
     2    1    2 ar
     3    1   38 1
     4    2    3 ar
     5    2   39 1
     6    3    4 ar
     7    3   37 1
     8    4    5 ar
     9    4   36 1
    10    5    6 ar
    11    5   40 1
    12    6    7 1
    13    7   16 2
    14    7    8 1
    15    8    9 2
    16    8   19 1
    17    9   10 1
    18    9   41 1
    19   10   15 ar
    20   10   11 ar
    21   11   12 ar
    22   11   18 1
    23   12   13 ar
    24   12   42 1
    25   13   14 ar
    26   13   17 1
    27   14   15 ar
    28   14   43 1
    29   15   16 1
    30   17   44 1
    31   18   45 1
    32   19   20 1
    33   20   21 1
    34   20   30 1
    35   20   22 1
    36   22   23 1
    37   22   24 1
    38   22   35 1
    39   24   25 1
    40   24   26 1
    41   24   34 1
    42   26   27 1
    43   26   28 1
    44   26   33 1
    45   28   29 1
    46   28   30 1
    47   28   31 1
    48   31   32 1
    49   31   46 1
    50   31   47 1
    51   32   48 1
    52   33   49 1
    53   34   50 1
    54   35   51 1
    55   36   52 1
    56   37   53 1
