@<TRIPOS>MOLECULE
ZINC49054534
   68    71     0     0     0
SMALL
USER_CHARGES

@<TRIPOS>ATOM
      1 C1         -0.0408    1.4963   -0.0860 C.3       1 <0>         0.0008
      2 C2          1.4070    1.9844   -0.1715 C.3       1 <0>         0.0582
      3 H1          1.4205    3.0714   -0.2507 H         1 <0>         0.1016
      4 C3          2.1603    1.5543    1.0905 C.3       1 <0>         0.0279
      5 H2          3.2062    1.8503    1.0094 H         1 <0>         0.0893
      6 C4          2.0685    0.0324    1.2342 C.3       1 <0>         0.1078
      7 H3          2.5548   -0.2758    2.1597 H         1 <0>         0.1029
      8 C5          0.5962   -0.3834    1.2676 C.3       1 <0>         0.0466
      9 H4          0.1038    0.0930    2.1154 H         1 <0>         0.1587
     10 N1         -0.0618    0.0327    0.0233 N.4       1 <0>        -0.3707
     11 C6         -1.4538   -0.4366    0.0267 C.3       1 <0>        -0.0181
     12 C7         -2.1057   -0.1092   -1.3183 C.3       1 <0>        -0.1445
     13 C8         -3.5555   -0.5980   -1.3148 C.3       1 <0>        -0.1138
     14 C9         -4.2073   -0.2705   -2.6597 C.3       1 <0>        -0.1189
     15 C10        -5.6571   -0.7594   -2.6562 C.3       1 <0>         0.0607
     16 O1         -6.2659   -0.4535   -3.9123 O.3       1 <0>        -0.3814
     17 C11        -7.6290   -0.8703   -4.0144 C.3       1 <0>         0.0731
     18 C12        -8.1756   -0.4938   -5.3929 C.3       1 <0>        -0.0495
     19 C13        -7.3477   -1.1873   -6.4766 C.3       1 <0>        -0.0959
     20 C14        -7.8943   -0.8108   -7.8552 C.3       1 <0>        -0.0876
     21 C15        -9.3537   -1.2571   -7.9645 C.3       1 <0>        -0.1103
     22 C16       -10.1816   -0.5635   -6.8807 C.3       1 <0>        -0.0845
     23 C17        -9.6350   -0.9400   -5.5022 C.3       1 <0>        -0.1029
     24 C18       -10.0966    0.9529   -7.0663 C.3       1 <0>        -0.1103
     25 C19        -8.6372    1.3991   -6.9570 C.3       1 <0>        -0.0876
     26 C20        -7.8094    0.7055   -8.0407 C.3       1 <0>        -0.1078
     27 C21        -8.0906    1.0226   -5.5785 C.3       1 <0>        -0.0957
     28 C22         0.4994   -1.9036    1.4106 C.3       1 <0>         0.0519
     29 O2          1.2049   -2.5289    0.3367 O.3       1 <0>        -0.5514
     30 O3          2.7164   -0.5916    0.1239 O.3       1 <0>        -0.5208
     31 O4          1.5739    2.1800    2.2337 O.3       1 <0>        -0.5536
     32 O5          2.0356    1.4143   -1.3211 O.3       1 <0>        -0.5473
     33 H5         -0.5196    1.9326    0.7907 H         1 <0>         0.1424
     34 H6         -0.5800    1.8010   -0.9829 H         1 <0>         0.1395
     35 H7         -1.4734   -1.5146    0.1870 H         1 <0>         0.1331
     36 H8         -2.0027    0.0598    0.8269 H         1 <0>         0.1286
     37 H9         -2.0861    0.9688   -1.4786 H         1 <0>         0.0867
     38 H10        -1.5568   -0.6056   -2.1185 H         1 <0>         0.0901
     39 H11        -3.5751   -1.6760   -1.1544 H         1 <0>         0.0757
     40 H12        -4.1044   -0.1016   -0.5145 H         1 <0>         0.0754
     41 H13        -4.1877    0.8074   -2.8200 H         1 <0>         0.0744
     42 H14        -3.6584   -0.7670   -3.4599 H         1 <0>         0.0754
     43 H15        -5.6767   -1.8373   -2.4958 H         1 <0>         0.0480
     44 H16        -6.2060   -0.2630   -1.8560 H         1 <0>         0.0477
     45 H17        -7.6895   -1.9506   -3.8822 H         1 <0>         0.0491
     46 H18        -8.2188   -0.3762   -3.2423 H         1 <0>         0.0489
     47 H19        -6.3080   -0.8694   -6.3988 H         1 <0>         0.0682
     48 H20        -7.4082   -2.2676   -6.3445 H         1 <0>         0.0578
     49 H21        -7.3045   -1.3049   -8.6273 H         1 <0>         0.0694
     50 H22        -9.7431   -0.9888   -8.9466 H         1 <0>         0.0633
     51 H23        -9.4142   -2.3373   -7.8323 H         1 <0>         0.0615
     52 H24       -11.2213   -0.8814   -6.9586 H         1 <0>         0.0722
     53 H25        -9.6955   -2.0203   -5.3700 H         1 <0>         0.0634
     54 H26       -10.2248   -0.4459   -4.7301 H         1 <0>         0.0633
     55 H27       -10.4860    1.2211   -8.0484 H         1 <0>         0.0633
     56 H28       -10.6864    1.4470   -6.2942 H         1 <0>         0.0614
     57 H29        -8.5767    2.4793   -7.0892 H         1 <0>         0.0692
     58 H30        -6.7696    1.0234   -7.9629 H         1 <0>         0.0605
     59 H31        -8.1987    0.9738   -9.0228 H         1 <0>         0.0619
     60 H32        -8.6805    1.5167   -4.8064 H         1 <0>         0.0576
     61 H33        -7.0509    1.3405   -5.5006 H         1 <0>         0.0681
     62 H34         0.9394   -2.2080    2.3603 H         1 <0>         0.0898
     63 H35        -0.5476   -2.2053    1.3820 H         1 <0>         0.0714
     64 H36         1.1855   -3.4954    0.3634 H         1 <0>         0.3986
     65 H37         3.6537   -0.3694    0.0397 H         1 <0>         0.3930
     66 H38         1.5929    3.1464    2.2061 H         1 <0>         0.3988
     67 H39         2.9577    1.6812   -1.4382 H         1 <0>         0.4017
     68 H40         0.4247   -0.3694   -0.7639 H         1 <0>         0.4434
@<TRIPOS>BOND
     1    1   10 1
     2    1    2 1
     3    1   33 1
     4    1   34 1
     5    2    3 1
     6    2    4 1
     7    2   32 1
     8    4    5 1
     9    4    6 1
    10    4   31 1
    11    6    7 1
    12    6    8 1
    13    6   30 1
    14    8    9 1
    15    8   10 1
    16    8   28 1
    17   10   11 1
    18   10   68 1
    19   11   12 1
    20   11   35 1
    21   11   36 1
    22   12   13 1
    23   12   37 1
    24   12   38 1
    25   13   14 1
    26   13   39 1
    27   13   40 1
    28   14   15 1
    29   14   41 1
    30   14   42 1
    31   15   16 1
    32   15   43 1
    33   15   44 1
    34   16   17 1
    35   17   18 1
    36   17   45 1
    37   17   46 1
    38   18   23 1
    39   18   27 1
    40   18   19 1
    41   19   20 1
    42   19   47 1
    43   19   48 1
    44   20   26 1
    45   20   21 1
    46   20   49 1
    47   21   22 1
    48   21   50 1
    49   21   51 1
    50   22   23 1
    51   22   24 1
    52   22   52 1
    53   23   53 1
    54   23   54 1
    55   24   25 1
    56   24   55 1
    57   24   56 1
    58   25   26 1
    59   25   27 1
    60   25   57 1
    61   26   58 1
    62   26   59 1
    63   27   60 1
    64   27   61 1
    65   28   29 1
    66   28   62 1
    67   28   63 1
    68   29   64 1
    69   30   65 1
    70   31   66 1
    71   32   67 1
@<TRIPOS>MOLECULE
ZINC66156319
   52    52     0     0     0
SMALL
USER_CHARGES

@<TRIPOS>ATOM
      1 C1          0.8596    0.7506   -1.4202 C.3       1 <0>        -0.1557
      2 C2          0.7349   -0.7717   -1.3323 C.3       1 <0>        -0.1263
      3 C3         -0.7299   -1.1513   -1.1061 C.3       1 <0>        -0.1217
      4 C4         -0.8545   -2.6737   -1.0182 C.3       1 <0>        -0.1218
      5 C5         -2.3193   -3.0533   -0.7921 C.3       1 <0>        -0.1213
      6 C6         -2.4439   -4.5757   -0.7041 C.3       1 <0>        -0.1212
      7 C7         -3.9087   -4.9553   -0.4780 C.3       1 <0>        -0.1168
      8 C8         -4.0333   -6.4777   -0.3901 C.3       1 <0>        -0.1459
      9 C9         -5.4981   -6.8573   -0.1639 C.3       1 <0>        -0.0180
     10 N1         -5.6177   -8.3190   -0.0795 N.4       1 <0>        -0.3707
     11 C10        -4.8916   -8.8004    1.1018 C.3       1 <0>         0.0009
     12 C11        -4.9447  -10.3289    1.1499 C.3       1 <0>         0.0581
     13 H1         -4.4066  -10.6843    2.0287 H         1 <0>         0.1015
     14 C12        -6.4057  -10.7813    1.2274 C.3       1 <0>         0.0281
     15 H2         -6.4518  -11.8701    1.2048 H         1 <0>         0.0893
     16 C13        -7.1704  -10.2115    0.0292 C.3       1 <0>         0.1077
     17 H3         -8.2232  -10.4829    0.1068 H         1 <0>         0.1029
     18 C14        -7.0349   -8.6873    0.0226 C.3       1 <0>         0.0465
     19 H4         -7.4496   -8.2821    0.9456 H         1 <0>         0.1585
     20 C15        -7.7978   -8.1133   -1.1730 C.3       1 <0>         0.0520
     21 O1         -7.2993   -8.6943   -2.3796 O.3       1 <0>        -0.5516
     22 O2         -6.6281  -10.7449   -1.1805 O.3       1 <0>        -0.5209
     23 O3         -6.9903  -10.3033    2.4405 O.3       1 <0>        -0.5535
     24 O4         -4.3402  -10.8648   -0.0288 O.3       1 <0>        -0.5475
     25 H5          1.9031    1.0211   -1.5813 H         1 <0>         0.0558
     26 H6          0.2568    1.1171   -2.2511 H         1 <0>         0.0541
     27 H7          0.5075    1.1983   -0.4908 H         1 <0>         0.0540
     28 H8          1.0870   -1.2194   -2.2617 H         1 <0>         0.0609
     29 H9          1.3377   -1.1382   -0.5014 H         1 <0>         0.0606
     30 H10        -1.0819   -0.7037   -0.1767 H         1 <0>         0.0613
     31 H11        -1.3326   -0.7848   -1.9371 H         1 <0>         0.0615
     32 H12        -0.5024   -3.1214   -1.9476 H         1 <0>         0.0620
     33 H13        -0.2517   -3.0402   -0.1873 H         1 <0>         0.0616
     34 H14        -2.6713   -2.6057    0.1374 H         1 <0>         0.0632
     35 H15        -2.9220   -2.6868   -1.6230 H         1 <0>         0.0635
     36 H16        -2.0919   -5.0233   -1.6336 H         1 <0>         0.0663
     37 H17        -1.8411   -4.9422    0.1268 H         1 <0>         0.0653
     38 H18        -4.2607   -4.5077    0.4514 H         1 <0>         0.0730
     39 H19        -4.5114   -4.5888   -1.3089 H         1 <0>         0.0733
     40 H20        -3.6813   -6.9253   -1.3195 H         1 <0>         0.0880
     41 H21        -3.4305   -6.8442    0.4409 H         1 <0>         0.0848
     42 H22        -5.8501   -6.4097    0.7655 H         1 <0>         0.1280
     43 H23        -6.1008   -6.4908   -0.9948 H         1 <0>         0.1326
     44 H24        -3.8528   -8.4750    1.0468 H         1 <0>         0.1392
     45 H25        -5.3520   -8.3928    2.0018 H         1 <0>         0.1423
     46 H26        -8.8586   -8.3420   -1.0708 H         1 <0>         0.0898
     47 H27        -7.6607   -7.0325   -1.2065 H         1 <0>         0.0715
     48 H28        -7.7382   -8.3756   -3.1802 H         1 <0>         0.3986
     49 H29        -6.6781  -11.7086   -1.2426 H         1 <0>         0.3929
     50 H30        -6.5509  -10.6215    3.2410 H         1 <0>         0.3987
     51 H31        -4.3387  -11.8311   -0.0656 H         1 <0>         0.4016
     52 H32        -5.2216   -8.7363   -0.9084 H         1 <0>         0.4431
@<TRIPOS>BOND
     1    1    2 1
     2    1   25 1
     3    1   26 1
     4    1   27 1
     5    2    3 1
     6    2   28 1
     7    2   29 1
     8    3    4 1
     9    3   30 1
    10    3   31 1
    11    4    5 1
    12    4   32 1
    13    4   33 1
    14    5    6 1
    15    5   34 1
    16    5   35 1
    17    6    7 1
    18    6   36 1
    19    6   37 1
    20    7    8 1
    21    7   38 1
    22    7   39 1
    23    8    9 1
    24    8   40 1
    25    8   41 1
    26    9   10 1
    27    9   42 1
    28    9   43 1
    29   10   18 1
    30   10   11 1
    31   10   52 1
    32   11   12 1
    33   11   44 1
    34   11   45 1
    35   12   13 1
    36   12   14 1
    37   12   24 1
    38   14   15 1
    39   14   16 1
    40   14   23 1
    41   16   17 1
    42   16   18 1
    43   16   22 1
    44   18   19 1
    45   18   20 1
    46   20   21 1
    47   20   46 1
    48   20   47 1
    49   21   48 1
    50   22   49 1
    51   23   50 1
    52   24   51 1
@<TRIPOS>MOLECULE
ZINC14253608
   52    52     0     0     0
SMALL
USER_CHARGES
(2R,3R,4R,5S)-2-(hydroxymethyl)-1-nonyl-piperidine-3,4,5-triol
@<TRIPOS>ATOM
      1 C1          0.7154   -2.0470   -3.5299 C.3       1 <0>        -0.1559
      2 C2          0.0108   -1.6297   -2.2375 C.3       1 <0>        -0.1262
      3 C3          0.1604   -0.1200   -2.0396 C.3       1 <0>        -0.1219
      4 C4         -0.5442    0.2973   -0.7472 C.3       1 <0>        -0.1216
      5 C5         -0.3946    1.8071   -0.5493 C.3       1 <0>        -0.1218
      6 C6         -1.0992    2.2243    0.7431 C.3       1 <0>        -0.1209
      7 C7         -0.9496    3.7341    0.9409 C.3       1 <0>        -0.1175
      8 C8         -1.6542    4.1513    2.2334 C.3       1 <0>        -0.1485
      9 C9         -1.5046    5.6611    2.4312 C.3       1 <0>        -0.0103
     10 C10        -3.6231    5.7956    3.5949 C.3       1 <0>        -0.0457
     11 C11        -4.2704    6.0877    4.9505 C.3       1 <0>         0.0575
     12 H1         -3.8342    5.4390    5.7101 H         1 <0>         0.0901
     13 C12        -4.0219    7.5516    5.3245 C.3       1 <0>         0.0687
     14 H2         -4.4921    8.2011    4.5861 H         1 <0>         0.0870
     15 C13        -2.5137    7.8145    5.3507 C.3       1 <0>         0.1111
     16 H3         -2.0492    7.1930    6.1162 H         1 <0>         0.0964
     17 C14        -1.9173    7.4724    3.9835 C.3       1 <0>         0.0415
     18 H4         -2.3723    8.1039    3.2204 H         1 <0>         0.1581
     19 C15        -0.4069    7.7145    4.0114 C.3       1 <0>         0.0557
     20 O1          0.1793    6.9463    5.0641 O.3       1 <0>        -0.5785
     21 O2         -2.2747    9.1925    5.6441 O.3       1 <0>        -0.5400
     22 O3         -4.5751    7.8153    6.6154 O.3       1 <0>        -0.5484
     23 O4         -5.6769    5.8483    4.8692 O.3       1 <0>        -0.5369
     24 H5          0.6088   -3.1226   -3.6709 H         1 <0>         0.0560
     25 H6          0.2660   -1.5237   -4.3739 H         1 <0>         0.0541
     26 H7          1.7732   -1.7920   -3.4657 H         1 <0>         0.0542
     27 H8          0.4601   -2.1530   -1.3935 H         1 <0>         0.0608
     28 H9         -1.0470   -1.8847   -2.3017 H         1 <0>         0.0607
     29 H10        -0.2889    0.4034   -2.8836 H         1 <0>         0.0615
     30 H11         1.2182    0.1350   -1.9754 H         1 <0>         0.0616
     31 H12        -0.0949   -0.2260    0.0968 H         1 <0>         0.0619
     32 H13        -1.6020    0.0423   -0.8114 H         1 <0>         0.0617
     33 H14         0.6632    2.0621   -0.4851 H         1 <0>         0.0639
     34 H15        -0.8439    2.3304   -1.3934 H         1 <0>         0.0636
     35 H16        -2.1570    1.9693    0.6789 H         1 <0>         0.0654
     36 H17        -0.6498    1.7010    1.5871 H         1 <0>         0.0663
     37 H18         0.1082    3.9891    1.0051 H         1 <0>         0.0746
     38 H19        -1.3989    4.2574    0.0969 H         1 <0>         0.0743
     39 H20        -2.7120    3.8963    2.1692 H         1 <0>         0.0857
     40 H21        -1.2048    3.6280    3.0774 H         1 <0>         0.0885
     41 H22        -0.4468    5.9161    2.4954 H         1 <0>         0.1357
     42 H23        -1.9539    6.1844    1.5872 H         1 <0>         0.1344
     43 H24        -4.0702    6.4350    2.8337 H         1 <0>         0.1423
     44 H25        -3.7860    4.7503    3.3324 H         1 <0>         0.1402
     45 H26         0.0269    7.4143    3.0575 H         1 <0>         0.0773
     46 H27        -0.2117    8.7732    4.1821 H         1 <0>         0.1048
     47 H28         1.1376    7.0510    5.1408 H         1 <0>         0.4108
     48 H29        -2.6264    9.4796    6.4979 H         1 <0>         0.4120
     49 H30        -5.5294    7.6691    6.6717 H         1 <0>         0.4050
     50 H31        -5.9081    4.9388    4.6357 H         1 <0>         0.3994
     51 N1         -2.1691    6.0447    3.6938 N.4       1 <0>        -0.3828
     52 H32        -1.7853    5.4771    4.4584 H         1 <0>         0.4345
@<TRIPOS>BOND
     1    1    2 1
     2    1   24 1
     3    1   25 1
     4    1   26 1
     5    2    3 1
     6    2   27 1
     7    2   28 1
     8    3    4 1
     9    3   29 1
    10    3   30 1
    11    4    5 1
    12    4   31 1
    13    4   32 1
    14    5    6 1
    15    5   33 1
    16    5   34 1
    17    6    7 1
    18    6   35 1
    19    6   36 1
    20    7    8 1
    21    7   37 1
    22    7   38 1
    23    8    9 1
    24    8   39 1
    25    8   40 1
    26    9   41 1
    27    9   42 1
    28    9   51 1
    29   10   11 1
    30   10   43 1
    31   10   44 1
    32   10   51 1
    33   11   12 1
    34   11   13 1
    35   11   23 1
    36   13   14 1
    37   13   15 1
    38   13   22 1
    39   15   16 1
    40   15   17 1
    41   15   21 1
    42   17   18 1
    43   17   19 1
    44   17   51 1
    45   19   20 1
    46   19   45 1
    47   19   46 1
    48   20   47 1
    49   21   48 1
    50   22   49 1
    51   23   50 1
    52   51   52 1
