@<TRIPOS>MOLECULE
ZINC19537554
   46    49     0     0     0
SMALL
USER_CHARGES
2-methyl-3-[[4-(2-pyridyl)piperazin-1-yl]methyl]-1H-indole
@<TRIPOS>ATOM
      1 C1          2.3415    9.8146   -3.6127 C.3       1 <0>        -0.0987
      2 C2          0.8575   10.0083   -3.4355 C.2       1 <0>         0.1066
      3 C3          0.1760    9.7505   -2.3081 C.2       1 <0>        -0.1881
      4 C4         -1.2264   10.0831   -2.5700 C.ar      1 <0>        -0.0999
      5 C5         -2.3939   10.0365   -1.8056 C.ar      1 <0>        -0.0828
      6 C6         -3.5814   10.4276   -2.3565 C.ar      1 <0>        -0.1403
      7 C7         -3.6369   10.8708   -3.6710 C.ar      1 <0>        -0.0997
      8 C8         -2.4974   10.9246   -4.4430 C.ar      1 <0>        -0.1255
      9 C9         -1.2773   10.5314   -3.9024 C.ar      1 <0>         0.1085
     10 N1          0.0048   10.4705   -4.4007 N.pl3     1 <0>        -0.6038
     11 H1          0.3907   10.7278   -5.3981 H         1 <0>         0.4430
     12 C10         0.7464    9.2249   -1.0161 C.3       1 <0>         0.1344
     13 N2          0.7038    7.7565   -1.0235 N.3       1 <0>        -0.5347
     14 C11         1.4618    7.2019    0.1067 C.3       1 <0>         0.0529
     15 C12         1.4596    5.6739    0.0182 C.3       1 <0>         0.0197
     16 N3          0.0730    5.1872    0.0283 N.pl3     1 <0>        -0.4715
     17 C13        -0.6850    5.7418   -1.1020 C.3       1 <0>         0.0557
     18 C14        -0.6828    7.2698   -1.0135 C.3       1 <0>         0.0482
     19 C15         0.0327    3.7978    0.0212 C.ar      1 <0>         0.3625
     20 C16        -1.1952    3.1436    0.0294 C.ar      1 <0>        -0.1502
     21 C17        -1.2206    1.7609    0.0173 C.ar      1 <0>         0.0211
     22 C18        -0.0126    1.0758    0.0080 C.ar      1 <0>        -0.1511
     23 C19         1.1691    1.7890    0.0005 C.ar      1 <0>         0.1404
     24 N4          1.1632    3.1087    0.0072 N.ar      1 <0>        -0.5078
     25 H2          2.7758    9.4331   -2.6768 H         1 <0>         0.0857
     26 H3          2.8089   10.7770   -3.8683 H         1 <0>         0.0749
     27 H4          2.5229    9.0924   -4.4223 H         1 <0>         0.0745
     28 H5         -2.3584    9.6926   -0.7824 H         1 <0>         0.1148
     29 H6         -4.4842   10.3913   -1.7648 H         1 <0>         0.1227
     30 H7         -4.5832   11.1762   -4.0926 H         1 <0>         0.1269
     31 H8         -2.5510   11.2705   -5.4647 H         1 <0>         0.1210
     32 H9          1.7886    9.5610   -0.9119 H         1 <0>         0.0870
     33 H10         0.1525    9.6047   -0.1717 H         1 <0>         0.0482
     34 H11         2.4974    7.5708    0.0699 H         1 <0>         0.1023
     35 H12         0.9940    7.5161    1.0514 H         1 <0>         0.0570
     36 H13         1.9527    5.3599   -0.9136 H         1 <0>         0.0780
     37 H14         2.0022    5.2560    0.8790 H         1 <0>         0.0992
     38 H15        -0.2171    5.4276   -2.0466 H         1 <0>         0.0760
     39 H16        -1.7206    5.3729   -1.0653 H         1 <0>         0.1065
     40 H17        -1.1752    7.5848   -0.0817 H         1 <0>         0.0537
     41 H18        -1.2247    7.6887   -1.8743 H         1 <0>         0.1103
     42 H19        -2.1160    3.7079    0.0405 H         1 <0>         0.1814
     43 H20        -2.1588    1.2259    0.0192 H         1 <0>         0.1765
     44 H21         0.0021   -0.0041    0.0020 H         1 <0>         0.1821
     45 H22         2.1107    1.2603   -0.0113 H         1 <0>         0.2059
     46 H23         2.1286    3.6359    0.0009 H         1 <0>         0.4768
@<TRIPOS>BOND
     1    1    2 1
     2    1   25 1
     3    1   26 1
     4    1   27 1
     5    2   10 1
     6    2    3 2
     7    3    4 1
     8    3   12 1
     9    4    9 ar
    10    4    5 ar
    11    5    6 ar
    12    5   28 1
    13    6    7 ar
    14    6   29 1
    15    7    8 ar
    16    7   30 1
    17    8    9 ar
    18    8   31 1
    19    9   10 1
    20   10   11 1
    21   12   13 1
    22   12   32 1
    23   12   33 1
    24   13   18 1
    25   13   14 1
    26   14   15 1
    27   14   34 1
    28   14   35 1
    29   15   16 1
    30   15   36 1
    31   15   37 1
    32   16   17 1
    33   16   19 1
    34   17   18 1
    35   17   38 1
    36   17   39 1
    37   18   40 1
    38   18   41 1
    39   19   24 ar
    40   19   20 ar
    41   20   21 ar
    42   20   42 1
    43   21   22 ar
    44   21   43 1
    45   22   23 ar
    46   22   44 1
    47   23   24 ar
    48   23   45 1
    49   24   46 1
@<TRIPOS>MOLECULE
ZINC19537554
   46    49     0     0     0
SMALL
USER_CHARGES
2-methyl-3-[[4-(2-pyridyl)piperazin-1-yl]methyl]-1H-indole
@<TRIPOS>ATOM
      1 C1          2.3415    9.8146   -3.6127 C.3       1 <0>        -0.1202
      2 C2          0.8575   10.0083   -3.4355 C.2       1 <0>         0.1433
      3 C3          0.1760    9.7505   -2.3081 C.2       1 <0>        -0.2663
      4 C4         -1.2264   10.0831   -2.5700 C.ar      1 <0>        -0.0932
      5 C5         -2.3939   10.0365   -1.8056 C.ar      1 <0>        -0.0936
      6 C6         -3.5814   10.4276   -2.3565 C.ar      1 <0>        -0.1225
      7 C7         -3.6369   10.8708   -3.6710 C.ar      1 <0>        -0.0920
      8 C8         -2.4974   10.9246   -4.4430 C.ar      1 <0>        -0.1166
      9 C9         -1.2773   10.5314   -3.9024 C.ar      1 <0>         0.1074
     10 N1          0.0048   10.4705   -4.4007 N.pl3     1 <0>        -0.5905
     11 H1          0.3907   10.7278   -5.3981 H         1 <0>         0.4541
     12 C10         0.7464    9.2249   -1.0161 C.3       1 <0>         0.0858
     13 N2          0.7038    7.7565   -1.0235 N.4       1 <0>        -0.4005
     14 C11         1.4618    7.2019    0.1067 C.3       1 <0>        -0.0047
     15 C12         1.4596    5.6739    0.0182 C.3       1 <0>         0.0391
     16 N3          0.0730    5.1872    0.0283 N.pl3     1 <0>        -0.4765
     17 C13        -0.6850    5.7418   -1.1020 C.3       1 <0>         0.0304
     18 C14        -0.6828    7.2698   -1.0135 C.3       1 <0>         0.0011
     19 C15         0.0327    3.7978    0.0212 C.ar      1 <0>         0.2909
     20 C16        -1.1952    3.1436    0.0294 C.ar      1 <0>        -0.1768
     21 C17        -1.2206    1.7609    0.0173 C.ar      1 <0>        -0.0498
     22 C18        -0.0126    1.0758    0.0080 C.ar      1 <0>        -0.1806
     23 C19         1.1691    1.7890    0.0005 C.ar      1 <0>         0.1279
     24 N4          1.1632    3.1087    0.0072 N.ar      1 <0>        -0.5179
     25 H2          2.7758    9.4331   -2.6768 H         1 <0>         0.0845
     26 H3          2.8089   10.7770   -3.8683 H         1 <0>         0.0935
     27 H4          2.5229    9.0924   -4.4223 H         1 <0>         0.0895
     28 H5         -2.3584    9.6926   -0.7824 H         1 <0>         0.1208
     29 H6         -4.4842   10.3913   -1.7648 H         1 <0>         0.1305
     30 H7         -4.5832   11.1762   -4.0926 H         1 <0>         0.1341
     31 H8         -2.5510   11.2705   -5.4647 H         1 <0>         0.1277
     32 H9          1.7886    9.5610   -0.9119 H         1 <0>         0.1332
     33 H10         0.1525    9.6047   -0.1717 H         1 <0>         0.1309
     34 H11         2.4974    7.5708    0.0699 H         1 <0>         0.1396
     35 H12         0.9940    7.5161    1.0514 H         1 <0>         0.1358
     36 H13         1.9527    5.3599   -0.9136 H         1 <0>         0.0741
     37 H14         2.0022    5.2560    0.8790 H         1 <0>         0.1315
     38 H15        -0.2171    5.4276   -2.0466 H         1 <0>         0.0686
     39 H16        -1.7206    5.3729   -1.0653 H         1 <0>         0.1277
     40 H17        -1.1752    7.5848   -0.0817 H         1 <0>         0.1352
     41 H18        -1.2247    7.6887   -1.8743 H         1 <0>         0.1424
     42 H19        -2.1160    3.7079    0.0405 H         1 <0>         0.1383
     43 H20        -2.1588    1.2259    0.0192 H         1 <0>         0.1435
     44 H21         0.0021   -0.0041    0.0020 H         1 <0>         0.1430
     45 H22         2.1107    1.2603   -0.0113 H         1 <0>         0.1639
     46 H23         1.1786    7.4104   -1.9534 H         1 <0>         0.4335
@<TRIPOS>BOND
     1    1    2 1
     2    1   25 1
     3    1   26 1
     4    1   27 1
     5    2   10 1
     6    2    3 2
     7    3    4 1
     8    3   12 1
     9    4    9 ar
    10    4    5 ar
    11    5    6 ar
    12    5   28 1
    13    6    7 ar
    14    6   29 1
    15    7    8 ar
    16    7   30 1
    17    8    9 ar
    18    8   31 1
    19    9   10 1
    20   10   11 1
    21   12   13 1
    22   12   32 1
    23   12   33 1
    24   13   18 1
    25   13   14 1
    26   13   46 1
    27   14   15 1
    28   14   34 1
    29   14   35 1
    30   15   16 1
    31   15   36 1
    32   15   37 1
    33   16   17 1
    34   16   19 1
    35   17   18 1
    36   17   38 1
    37   17   39 1
    38   18   40 1
    39   18   41 1
    40   19   24 ar
    41   19   20 ar
    42   20   21 ar
    43   20   42 1
    44   21   22 ar
    45   21   43 1
    46   22   23 ar
    47   22   44 1
    48   23   24 ar
    49   23   45 1
@<TRIPOS>MOLECULE
ZINC19537554
   45    48     0     0     0
SMALL
USER_CHARGES
2-methyl-3-[[4-(2-pyridyl)piperazin-1-yl]methyl]-1H-indole
@<TRIPOS>ATOM
      1 C1          2.3415    9.8146   -3.6127 C.3       1 <0>        -0.0966
      2 C2          0.8575   10.0083   -3.4355 C.2       1 <0>         0.0984
      3 C3          0.1760    9.7505   -2.3081 C.2       1 <0>        -0.1741
      4 C4         -1.2264   10.0831   -2.5700 C.ar      1 <0>        -0.0983
      5 C5         -2.3939   10.0365   -1.8056 C.ar      1 <0>        -0.0758
      6 C6         -3.5814   10.4276   -2.3565 C.ar      1 <0>        -0.1456
      7 C7         -3.6369   10.8708   -3.6710 C.ar      1 <0>        -0.1021
      8 C8         -2.4974   10.9246   -4.4430 C.ar      1 <0>        -0.1296
      9 C9         -1.2773   10.5314   -3.9024 C.ar      1 <0>         0.1082
     10 N1          0.0048   10.4705   -4.4007 N.pl3     1 <0>        -0.6055
     11 H1          0.3907   10.7278   -5.3981 H         1 <0>         0.4393
     12 C10         0.7464    9.2249   -1.0161 C.3       1 <0>         0.1311
     13 N2          0.7038    7.7565   -1.0235 N.3       1 <0>        -0.5333
     14 C11         1.4618    7.2019    0.1067 C.3       1 <0>         0.0502
     15 C12         1.4596    5.6739    0.0182 C.3       1 <0>         0.0708
     16 N3          0.0730    5.1872    0.0283 N.pl3     1 <0>        -0.4787
     17 C13        -0.6850    5.7418   -1.1020 C.3       1 <0>         0.0625
     18 C14        -0.6828    7.2698   -1.0135 C.3       1 <0>         0.0574
     19 C15         0.0327    3.7978    0.0212 C.ar      1 <0>         0.3133
     20 C16        -1.1952    3.1436    0.0294 C.ar      1 <0>        -0.1878
     21 C17        -1.2206    1.7609    0.0173 C.ar      1 <0>        -0.0534
     22 C18        -0.0126    1.0758    0.0080 C.ar      1 <0>        -0.2031
     23 C19         1.1691    1.7890    0.0005 C.ar      1 <0>         0.1257
     24 N4          1.1632    3.1087    0.0072 N.ar      1 <0>        -0.5206
     25 H2          2.7758    9.4331   -2.6768 H         1 <0>         0.0881
     26 H3          2.8089   10.7770   -3.8683 H         1 <0>         0.0706
     27 H4          2.5229    9.0924   -4.4223 H         1 <0>         0.0737
     28 H5         -2.3584    9.6926   -0.7824 H         1 <0>         0.1166
     29 H6         -4.4842   10.3913   -1.7648 H         1 <0>         0.1207
     30 H7         -4.5832   11.1762   -4.0926 H         1 <0>         0.1236
     31 H8         -2.5510   11.2705   -5.4647 H         1 <0>         0.1179
     32 H9          1.7886    9.5610   -0.9119 H         1 <0>         0.0818
     33 H10         0.1525    9.6047   -0.1717 H         1 <0>         0.0416
     34 H11         2.4974    7.5708    0.0699 H         1 <0>         0.0854
     35 H12         0.9940    7.5161    1.0514 H         1 <0>         0.0427
     36 H13         1.9527    5.3599   -0.9136 H         1 <0>         0.0592
     37 H14         2.0022    5.2560    0.8790 H         1 <0>         0.0899
     38 H15        -0.2171    5.4276   -2.0466 H         1 <0>         0.0536
     39 H16        -1.7206    5.3729   -1.0653 H         1 <0>         0.0865
     40 H17        -1.1752    7.5848   -0.0817 H         1 <0>         0.0426
     41 H18        -1.2247    7.6887   -1.8743 H         1 <0>         0.0929
     42 H19        -2.1160    3.7079    0.0405 H         1 <0>         0.1348
     43 H20        -2.1588    1.2259    0.0192 H         1 <0>         0.1355
     44 H21         0.0021   -0.0041    0.0020 H         1 <0>         0.1340
     45 H22         2.1107    1.2603   -0.0113 H         1 <0>         0.1560
@<TRIPOS>BOND
     1    1    2 1
     2    1   25 1
     3    1   26 1
     4    1   27 1
     5    2   10 1
     6    2    3 2
     7    3    4 1
     8    3   12 1
     9    4    9 ar
    10    4    5 ar
    11    5    6 ar
    12    5   28 1
    13    6    7 ar
    14    6   29 1
    15    7    8 ar
    16    7   30 1
    17    8    9 ar
    18    8   31 1
    19    9   10 1
    20   10   11 1
    21   12   13 1
    22   12   32 1
    23   12   33 1
    24   13   18 1
    25   13   14 1
    26   14   15 1
    27   14   34 1
    28   14   35 1
    29   15   16 1
    30   15   36 1
    31   15   37 1
    32   16   17 1
    33   16   19 1
    34   17   18 1
    35   17   38 1
    36   17   39 1
    37   18   40 1
    38   18   41 1
    39   19   24 ar
    40   19   20 ar
    41   20   21 ar
    42   20   42 1
    43   21   22 ar
    44   21   43 1
    45   22   23 ar
    46   22   44 1
    47   23   24 ar
    48   23   45 1
