@<TRIPOS>MOLECULE
ZINC58660958
   57    60     0     0     0
SMALL
USER_CHARGES

@<TRIPOS>ATOM
      1 C1          0.3721    1.3777   -0.3055 C.3       1 <0>        -0.1988
      2 C2          0.1634   -0.1084   -0.0071 C.3       1 <0>        -0.0200
      3 N1          0.9255   -0.4786    1.1929 N.4       1 <0>        -0.3758
      4 C3          0.1113   -0.2220    2.3885 C.3       1 <0>         0.0685
      5 C4         -0.1137    1.2609    2.5342 C.2       1 <0>         0.0656
      6 C5         -1.2571    1.8625    2.0543 C.2       1 <0>        -0.2833
      7 C6         -1.3356    3.2123    2.2516 C.2       1 <0>         0.0494
      8 S1          0.0999    3.5603    3.0483 S.3       1 <0>         0.4981
      9 N2          0.7669    2.0280    3.1266 N.2       1 <0>        -0.5011
     10 N3         -2.3559    4.0847    1.8824 N.pl3     1 <0>        -0.5737
     11 C7         -2.2517    5.4363    2.1737 C.2       1 <0>         0.4571
     12 C8         -3.2900    6.3273    1.8053 C.2       1 <0>         0.1343
     13 N4         -4.4479    6.1600    1.1891 N.2       1 <0>        -0.4484
     14 C9         -5.0665    7.3337    1.0833 C.2       1 <0>         0.0363
     15 C10        -4.2758    8.2924    1.6534 C.2       1 <0>         0.0797
     16 N5         -3.1536    7.6597    2.1100 N.pl3     1 <0>        -0.3300
     17 C11        -2.0229    8.0863    2.7582 C.2       1 <0>        -0.0245
     18 C12        -1.0629    7.1998    3.0878 C.2       1 <0>         0.1199
     19 N6         -1.1882    5.8999    2.8001 N.2       1 <0>        -0.5252
     20 C13         0.1747    7.6823    3.7995 C.3       1 <0>        -0.0983
     21 C14        -4.5771    9.7385    1.7559 C.2       1 <0>        -0.1867
     22 C15        -5.7040   10.3628    1.3017 C.2       1 <0>         0.1025
     23 N7         -5.5866   11.6761    1.5904 N.pl3     1 <0>        -0.4612
     24 H1         -6.2389   12.3640    1.3850 H         1 <0>         0.4502
     25 N8         -4.3612   11.8742    2.2379 N.2       1 <0>        -0.2752
     26 C16        -3.7561   10.7211    2.3456 C.2       1 <0>         0.0592
     27 C17         1.2712   -1.9051    1.1328 C.3       1 <0>         0.0542
     28 C18         2.0649   -2.2906    2.3827 C.3       1 <0>        -0.1727
     29 C19        -0.0105   -2.7380    1.0654 C.3       1 <0>        -0.1711
     30 C20         2.1191   -2.1723   -0.1124 C.3       1 <0>         0.0671
     31 O1          2.4554   -3.5599   -0.1709 O.3       1 <0>        -0.5516
     32 H2          1.4092    1.5481   -0.5946 H         1 <0>         0.0782
     33 H3         -0.2865    1.6808   -1.1195 H         1 <0>         0.1048
     34 H4          0.1423    1.9628    0.5849 H         1 <0>         0.0876
     35 H5         -0.8962   -0.2997    0.1620 H         1 <0>         0.1316
     36 H6          0.5090   -0.7011   -0.8542 H         1 <0>         0.1322
     37 H7         -0.8494   -0.7273    2.2891 H         1 <0>         0.1474
     38 H8          0.6307   -0.5990    3.2695 H         1 <0>         0.1497
     39 H9         -2.0370    1.3055    1.5563 H         1 <0>         0.1608
     40 H10        -3.1397    3.7469    1.4214 H         1 <0>         0.4425
     41 H11        -6.0298    7.5005    0.6244 H         1 <0>         0.1933
     42 H12        -1.9019    9.1310    3.0039 H         1 <0>         0.1754
     43 H13         0.0146    7.6388    4.8768 H         1 <0>         0.0884
     44 H14         1.0189    7.0469    3.5317 H         1 <0>         0.0868
     45 H15         0.3858    8.7103    3.5047 H         1 <0>         0.0852
     46 H16        -6.5373    9.8913    0.8020 H         1 <0>         0.1909
     47 H17        -2.7932   10.5508    2.8043 H         1 <0>         0.1818
     48 H18         1.4608   -2.1003    3.2698 H         1 <0>         0.0831
     49 H19         2.3214   -3.3491    2.3381 H         1 <0>         0.1139
     50 H20         2.9779   -1.6972    2.4307 H         1 <0>         0.0806
     51 H21        -0.5759   -2.4633    0.1749 H         1 <0>         0.0798
     52 H22         0.2460   -3.7964    1.0208 H         1 <0>         0.1124
     53 H23        -0.6146   -2.5476    1.9525 H         1 <0>         0.0819
     54 H24         1.5537   -1.8976   -1.0029 H         1 <0>         0.0698
     55 H25         3.0322   -1.5789   -0.0644 H         1 <0>         0.0683
     56 H26         2.9938   -3.8022   -0.9368 H         1 <0>         0.4046
     57 H27         1.7707    0.0707    1.2374 H         1 <0>         0.4245
@<TRIPOS>BOND
     1    1    2 1
     2    1   32 1
     3    1   33 1
     4    1   34 1
     5    2    3 1
     6    2   35 1
     7    2   36 1
     8    3    4 1
     9    3   27 1
    10    3   57 1
    11    4    5 1
    12    4   37 1
    13    4   38 1
    14    5    9 2
    15    5    6 1
    16    6    7 2
    17    6   39 1
    18    7    8 1
    19    7   10 1
    20    8    9 1
    21   10   11 1
    22   10   40 1
    23   11   19 2
    24   11   12 1
    25   12   16 1
    26   12   13 2
    27   13   14 1
    28   14   15 2
    29   14   41 1
    30   15   16 1
    31   15   21 1
    32   16   17 1
    33   17   18 2
    34   17   42 1
    35   18   19 1
    36   18   20 1
    37   20   43 1
    38   20   44 1
    39   20   45 1
    40   21   26 1
    41   21   22 2
    42   22   23 1
    43   22   46 1
    44   23   24 1
    45   23   25 1
    46   25   26 2
    47   26   47 1
    48   27   28 1
    49   27   29 1
    50   27   30 1
    51   28   48 1
    52   28   49 1
    53   28   50 1
    54   29   51 1
    55   29   52 1
    56   29   53 1
    57   30   31 1
    58   30   54 1
    59   30   55 1
    60   31   56 1
@<TRIPOS>MOLECULE
ZINC58638704
   60    63     0     0     0
SMALL
USER_CHARGES

@<TRIPOS>ATOM
      1 C1         -0.0187    1.5258    0.0104 C.3       1 <0>        -0.1896
      2 C2          0.0021   -0.0041    0.0020 C.3       1 <0>         0.1427
      3 C3          0.7421   -0.5109    1.2415 C.3       1 <0>        -0.1596
      4 C4         -1.4333   -0.5336    0.0129 C.3       1 <0>        -0.1496
      5 H1         -1.9501   -0.2436   -0.9019 H         1 <0>         0.1155
      6 C5         -2.1914   -0.0027    1.2484 C.3       1 <0>        -0.0040
      7 N1         -3.0526   -1.1356    1.6747 N.4       1 <0>        -0.5181
      8 C6         -2.1971   -2.3354    1.4862 C.3       1 <0>        -0.0232
      9 C7         -1.4369   -2.0686    0.1666 C.3       1 <0>         0.1407
     10 H2         -0.4161   -2.4447    0.2343 H         1 <0>         0.1526
     11 N2         -2.1361   -2.6911   -0.9603 N.pl3     1 <0>        -0.7073
     12 C8         -1.8416   -3.9896   -1.3225 C.ar      1 <0>         0.4664
     13 C9         -2.5028   -4.6064   -2.4128 C.ar      1 <0>        -0.1831
     14 C10        -3.4737   -3.9333   -3.1638 C.ar      1 <0>        -0.1585
     15 C11        -4.0842   -4.5697   -4.2071 C.ar      1 <0>         0.1203
     16 C12        -3.7498   -5.8912   -4.5350 C.ar      1 <0>         0.1661
     17 C13        -2.7983   -6.5756   -3.8124 C.ar      1 <0>        -0.1784
     18 C14        -2.1590   -5.9421   -2.7384 C.ar      1 <0>         0.2027
     19 N3         -1.2259   -6.5662   -2.0052 N.ar      1 <0>        -0.4961
     20 C15        -0.6401   -5.9441   -0.9986 C.ar      1 <0>         0.4044
     21 N4         -0.9299   -4.6878   -0.6627 N.ar      1 <0>        -0.5784
     22 C16         0.3854   -6.6706   -0.2146 C.ar      1 <0>        -0.0544
     23 C17         1.0195   -6.0454    0.8584 C.ar      1 <0>        -0.0930
     24 C18         1.9751   -6.7276    1.5859 C.ar      1 <0>         0.0785
     25 C19         2.3057   -8.0320    1.2527 C.ar      1 <0>        -0.1110
     26 C20         1.6832   -8.6594    0.1911 C.ar      1 <0>        -0.1252
     27 C21         0.7180   -7.9887   -0.5436 C.ar      1 <0>         0.1538
     28 O1          0.1014   -8.6074   -1.5837 O.3       1 <0>        -0.4676
     29 F1          2.5897   -6.1216    2.6253 F         1 <0>        -0.1350
     30 O2         -4.3716   -6.5031   -5.5765 O.3       1 <0>        -0.2947
     31 C22        -3.9874   -7.8498   -5.8609 C.3       1 <0>         0.0186
     32 O3         -5.0271   -3.9142   -4.9354 O.3       1 <0>        -0.2960
     33 C23        -5.3245   -2.5701   -4.5521 C.3       1 <0>         0.0238
     34 O4          0.6709   -0.4649   -1.1737 O.3       1 <0>        -0.5401
     35 H3          1.0039    1.9031    0.0027 H         1 <0>         0.0820
     36 H4         -0.5459    1.8868   -0.8726 H         1 <0>         0.0669
     37 H5         -0.5289    1.8773    0.9072 H         1 <0>         0.0683
     38 H6          0.2319   -0.1594    2.1383 H         1 <0>         0.0715
     39 H7          0.7568   -1.6008    1.2356 H         1 <0>         0.0729
     40 H8          1.7647   -0.1336    1.2338 H         1 <0>         0.0842
     41 H9         -1.4903    0.2608    2.0404 H         1 <0>         0.1456
     42 H10        -2.8024    0.8587    0.9784 H         1 <0>         0.1442
     43 H11        -3.3122   -1.0361    2.6446 H         1 <0>         0.4372
     44 H12        -1.4969   -2.4370    2.3154 H         1 <0>         0.1487
     45 H13        -2.8123   -3.2306    1.3952 H         1 <0>         0.1409
     46 H14        -2.8059   -2.1906   -1.4518 H         1 <0>         0.4111
     47 H15        -3.7393   -2.9154   -2.9192 H         1 <0>         0.1350
     48 H16        -2.5467   -7.5935   -4.0713 H         1 <0>         0.1603
     49 H17         0.7641   -5.0291    1.1200 H         1 <0>         0.1457
     50 H18         3.0537   -8.5600    1.8255 H         1 <0>         0.1463
     51 H19         1.9454   -9.6756   -0.0637 H         1 <0>         0.1486
     52 H20         0.5503   -8.4916   -2.4323 H         1 <0>         0.3948
     53 H21        -2.9233   -7.8823   -6.0949 H         1 <0>         0.0644
     54 H22        -4.1875   -8.4760   -4.9915 H         1 <0>         0.0646
     55 H23        -4.5583   -8.2182   -6.7132 H         1 <0>         0.1113
     56 H24        -6.0909   -2.1649   -5.2129 H         1 <0>         0.1095
     57 H25        -5.6871   -2.5571   -3.5243 H         1 <0>         0.0537
     58 H26        -4.4223   -1.9629   -4.6268 H         1 <0>         0.0561
     59 H27         0.2557   -0.1806   -1.9994 H         1 <0>         0.3828
     60 H28        -3.8743   -1.1931    1.0919 H         1 <0>         0.4304
@<TRIPOS>BOND
     1    1    2 1
     2    1   35 1
     3    1   36 1
     4    1   37 1
     5    2    3 1
     6    2    4 1
     7    2   34 1
     8    3   38 1
     9    3   39 1
    10    3   40 1
    11    4    5 1
    12    4    9 1
    13    4    6 1
    14    6    7 1
    15    6   41 1
    16    6   42 1
    17    7    8 1
    18    7   43 1
    19    7   60 1
    20    8    9 1
    21    8   44 1
    22    8   45 1
    23    9   10 1
    24    9   11 1
    25   11   12 1
    26   11   46 1
    27   12   21 ar
    28   12   13 ar
    29   13   18 ar
    30   13   14 ar
    31   14   15 ar
    32   14   47 1
    33   15   16 ar
    34   15   32 1
    35   16   17 ar
    36   16   30 1
    37   17   18 ar
    38   17   48 1
    39   18   19 ar
    40   19   20 ar
    41   20   21 ar
    42   20   22 1
    43   22   27 ar
    44   22   23 ar
    45   23   24 ar
    46   23   49 1
    47   24   25 ar
    48   24   29 1
    49   25   26 ar
    50   25   50 1
    51   26   27 ar
    52   26   51 1
    53   27   28 1
    54   28   52 1
    55   30   31 1
    56   31   53 1
    57   31   54 1
    58   31   55 1
    59   32   33 1
    60   33   56 1
    61   33   57 1
    62   33   58 1
    63   34   59 1
@<TRIPOS>MOLECULE
ZINC43132588
   50    53     0     0     0
SMALL
USER_CHARGES

@<TRIPOS>ATOM
      1 C1         -0.0173    1.4248    0.0099 C.3       1 <0>         0.0246
      2 O1          0.0021   -0.0041    0.0020 O.3       1 <0>        -0.3132
      3 C2         -1.2003   -0.6375    0.0101 C.ar      1 <0>         0.1388
      4 C3         -2.3749    0.1032    0.0196 C.ar      1 <0>        -0.1963
      5 C4         -3.6007   -0.5357    0.0278 C.ar      1 <0>        -0.0741
      6 C5         -3.6651   -1.9143    0.0267 C.ar      1 <0>        -0.1358
      7 C6         -2.4899   -2.6671    0.0172 C.ar      1 <0>         0.0208
      8 C7         -1.2536   -2.0209    0.0032 C.ar      1 <0>        -0.1360
      9 C8         -2.5550   -4.1442    0.0160 C.2       1 <0>        -0.1018
     10 C9         -3.6543   -4.9364    0.0176 C.2       1 <0>        -0.1277
     11 C10        -3.4840   -6.3770    0.0159 C.ar      1 <0>        -0.1857
     12 C11        -2.1417   -6.8138    0.0126 C.ar      1 <0>        -0.0246
     13 S1         -1.2056   -5.3100    0.0041 S.3       1 <0>         0.1786
     14 C12        -1.8308   -8.1762    0.0103 C.ar      1 <0>        -0.1914
     15 C13        -2.8808   -9.0979    0.0113 C.ar      1 <0>         0.2017
     16 N1         -4.1310   -8.6771    0.0139 N.ar      1 <0>        -0.5568
     17 C14        -4.4699   -7.4026    0.0166 C.ar      1 <0>         0.4719
     18 N2         -5.8077   -7.0570    0.0203 N.pl3     1 <0>        -0.7084
     19 C15        -6.8343   -8.1021    0.0211 C.3       1 <0>         0.1398
     20 H1         -6.4903   -8.9506   -0.5703 H         1 <0>         0.1151
     21 C16        -7.1011   -8.5557    1.4592 C.3       1 <0>        -0.1515
     22 C17        -8.2297   -9.5908    1.4565 C.3       1 <0>        -0.1435
     23 C18        -9.4710   -8.9822    0.8006 C.3       1 <0>        -0.0110
     24 N3         -9.1586   -8.5932   -0.5798 N.4       1 <0>        -0.4984
     25 C19        -8.1270   -7.5490   -0.5826 C.3       1 <0>        -0.0216
     26 C20        -0.4306   -8.6294    0.0064 C.2       1 <0>         0.5683
     27 O2          0.4724   -7.8144    0.0051 O.2       1 <0>        -0.5264
     28 N4         -0.1489   -9.9474    0.0042 N.am      1 <0>        -0.8476
     29 H2          1.0053    1.8021    0.0021 H         1 <0>         0.1058
     30 H3         -0.5445    1.7859   -0.8732 H         1 <0>         0.0587
     31 H4         -0.5275    1.7763    0.9067 H         1 <0>         0.0588
     32 H5         -2.3305    1.1823    0.0208 H         1 <0>         0.1351
     33 H6         -4.5108    0.0457    0.0355 H         1 <0>         0.1329
     34 H7         -4.6244   -2.4104    0.0335 H         1 <0>         0.1249
     35 H8         -0.3409   -2.5981   -0.0086 H         1 <0>         0.1351
     36 H9         -4.6429   -4.5016    0.0205 H         1 <0>         0.1357
     37 H10        -2.6685  -10.1569    0.0095 H         1 <0>         0.1733
     38 H11        -6.0671   -6.1223    0.0223 H         1 <0>         0.4164
     39 H12        -6.1976   -9.0026    1.8740 H         1 <0>         0.1013
     40 H13        -7.3952   -7.6975    2.0635 H         1 <0>         0.0821
     41 H14        -7.9154  -10.4705    0.8946 H         1 <0>         0.0928
     42 H15        -8.4633   -9.8774    2.4818 H         1 <0>         0.1163
     43 H16       -10.2766   -9.7166    0.7971 H         1 <0>         0.1377
     44 H17        -9.7846   -8.1029    1.3633 H         1 <0>         0.1317
     45 H18        -8.8217   -9.3979   -1.0869 H         1 <0>         0.4310
     46 H19        -8.4695   -6.6999    0.0089 H         1 <0>         0.1354
     47 H20        -7.9400   -7.2255   -1.6066 H         1 <0>         0.1397
     48 H21        -0.8690  -10.5973    0.0052 H         1 <0>         0.3991
     49 H22         0.7739  -10.2461    0.0016 H         1 <0>         0.4120
     50 H23        -9.9925   -8.2419   -1.0262 H         1 <0>         0.4365
@<TRIPOS>BOND
     1    1    2 1
     2    1   29 1
     3    1   30 1
     4    1   31 1
     5    2    3 1
     6    3    8 ar
     7    3    4 ar
     8    4    5 ar
     9    4   32 1
    10    5    6 ar
    11    5   33 1
    12    6    7 ar
    13    6   34 1
    14    7    8 ar
    15    7    9 1
    16    8   35 1
    17    9   13 1
    18    9   10 2
    19   10   11 1
    20   10   36 1
    21   11   17 ar
    22   11   12 ar
    23   12   13 1
    24   12   14 ar
    25   14   15 ar
    26   14   26 1
    27   15   16 ar
    28   15   37 1
    29   16   17 ar
    30   17   18 1
    31   18   19 1
    32   18   38 1
    33   19   20 1
    34   19   25 1
    35   19   21 1
    36   21   22 1
    37   21   39 1
    38   21   40 1
    39   22   23 1
    40   22   41 1
    41   22   42 1
    42   23   24 1
    43   23   43 1
    44   23   44 1
    45   24   25 1
    46   24   45 1
    47   24   50 1
    48   25   46 1
    49   25   47 1
    50   26   27 2
    51   26   28 am
    52   28   48 1
    53   28   49 1
@<TRIPOS>MOLECULE
ZINC03814434
   62    69     0     0     0
SMALL
USER_CHARGES

@<TRIPOS>ATOM
      1 C1         -0.1295    1.5952   -0.2973 C.3       1 <0>        -0.1687
      2 C2         -0.0862    0.0696   -0.1900 C.3       1 <0>         0.3342
      3 C3          0.5692   -0.4501   -1.4637 C.3       1 <0>         0.0405
      4 H1          1.4796    0.1159   -1.6612 H         1 <0>         0.1372
      5 C4          0.9167   -1.9328   -1.2889 C.3       1 <0>        -0.0061
      6 H2          1.3963   -2.3075   -2.1932 H         1 <0>         0.1555
      7 C5          1.8785   -2.0596   -0.1021 C.3       1 <0>        -0.1827
      8 C6          1.2061   -1.5198    1.1541 C.3       1 <0>         0.2999
      9 H3          1.9797   -1.4243    1.9161 H         1 <0>         0.1550
     10 O1          0.6555   -0.2442    0.9666 O.3       1 <0>        -0.3234
     11 N1          0.2189   -2.4746    1.6600 N.pl3     1 <0>        -0.5366
     12 C7          0.4705   -3.5508    2.4739 C.ar      1 <0>         0.1469
     13 C8          1.6649   -4.0152    3.0240 C.ar      1 <0>        -0.1522
     14 C9          1.5948   -5.1456    3.8201 C.ar      1 <0>        -0.0582
     15 C10         0.4006   -5.7997    4.0696 C.ar      1 <0>        -0.1457
     16 C11        -0.7984   -5.3597    3.5358 C.ar      1 <0>        -0.0280
     17 C12        -0.7487   -4.2198    2.7307 C.ar      1 <0>        -0.1131
     18 C13        -1.7893   -3.4830    2.0197 C.ar      1 <0>         0.0276
     19 C14        -1.1442   -2.4197    1.3841 C.ar      1 <0>         0.0376
     20 C15        -1.8806   -1.5095    0.6175 C.ar      1 <0>         0.0894
     21 N2         -1.4718   -0.3951   -0.1095 N.pl3     1 <0>        -0.5183
     22 C16        -2.5611    0.1913   -0.7090 C.ar      1 <0>         0.1618
     23 C17        -2.6521    1.3277   -1.5118 C.ar      1 <0>        -0.1305
     24 C18        -3.9109    1.6745   -1.9733 C.ar      1 <0>        -0.0737
     25 C19        -5.0393    0.9368   -1.6616 C.ar      1 <0>        -0.1358
     26 C20        -4.9745   -0.1955   -0.8662 C.ar      1 <0>        -0.0503
     27 C21        -3.7147   -0.5596   -0.3919 C.ar      1 <0>        -0.1042
     28 C22        -3.2693   -1.6660    0.4845 C.ar      1 <0>        -0.0360
     29 C23        -3.9084   -2.7313    1.1102 C.ar      1 <0>        -0.0288
     30 C24        -3.1873   -3.6421    1.8754 C.ar      1 <0>        -0.1255
     31 C25        -4.1221   -4.6480    2.4030 C.2       1 <0>         0.5632
     32 O2         -3.8062   -5.5851    3.1110 O.2       1 <0>        -0.5106
     33 N3         -5.3744   -4.3851    1.9926 N.am      1 <0>        -0.7162
     34 C26        -5.3495   -3.1771    1.1601 C.3       1 <0>         0.1358
     35 N4         -0.3067   -2.7008   -1.0216 N.4       1 <0>        -0.5252
     36 C27         0.0145   -4.1336   -0.9773 C.3       1 <0>        -0.0497
     37 O3         -0.3340   -0.2979   -2.5607 O.3       1 <0>        -0.3614
     38 C28         0.3101   -0.0933   -3.8198 C.3       1 <0>         0.0162
     39 H4          0.8261    2.0094    0.0240 H         1 <0>         0.0984
     40 H5         -0.3202    1.8814   -1.3317 H         1 <0>         0.1036
     41 H6         -0.9255    1.9818    0.3392 H         1 <0>         0.0921
     42 H7          2.1370   -3.1081    0.0458 H         1 <0>         0.1233
     43 H8          2.7835   -1.4869   -0.3048 H         1 <0>         0.1455
     44 H9          2.6036   -3.5149    2.8368 H         1 <0>         0.1365
     45 H10         2.5026   -5.5304    4.2610 H         1 <0>         0.1359
     46 H11         0.4045   -6.6780    4.6980 H         1 <0>         0.1352
     47 H12        -1.7278   -5.8736    3.7323 H         1 <0>         0.1600
     48 H13        -1.7792    1.9122   -1.7624 H         1 <0>         0.1440
     49 H14        -4.0153    2.5500   -2.5970 H         1 <0>         0.1336
     50 H15        -5.9967    1.2527   -2.0488 H         1 <0>         0.1332
     51 H16        -5.8575   -0.7687   -0.6249 H         1 <0>         0.1415
     52 H17        -6.1628   -4.9065    2.2103 H         1 <0>         0.4348
     53 H18        -5.9671   -2.3994    1.6094 H         1 <0>         0.1115
     54 H19        -5.7060   -3.4063    0.1559 H         1 <0>         0.1103
     55 H20        -0.6958   -2.4158   -0.1353 H         1 <0>         0.4186
     56 H21         0.4349   -4.4415   -1.9347 H         1 <0>         0.1256
     57 H22         0.7403   -4.3189   -0.1854 H         1 <0>         0.1191
     58 H23        -0.8932   -4.7035   -0.7789 H         1 <0>         0.1256
     59 H24         0.9168    0.8112   -3.7748 H         1 <0>         0.0633
     60 H25         0.9482   -0.9479   -4.0446 H         1 <0>         0.0514
     61 H26        -0.4433    0.0130   -4.6003 H         1 <0>         0.1100
     62 H27        -0.9785   -2.5293   -1.7546 H         1 <0>         0.4274
@<TRIPOS>BOND
     1    1    2 1
     2    1   39 1
     3    1   40 1
     4    1   41 1
     5    2   10 1
     6    2   21 1
     7    2    3 1
     8    3    4 1
     9    3    5 1
    10    3   37 1
    11    5    6 1
    12    5    7 1
    13    5   35 1
    14    7    8 1
    15    7   42 1
    16    7   43 1
    17    8    9 1
    18    8   10 1
    19    8   11 1
    20   11   19 1
    21   11   12 1
    22   12   17 ar
    23   12   13 ar
    24   13   14 ar
    25   13   44 1
    26   14   15 ar
    27   14   45 1
    28   15   16 ar
    29   15   46 1
    30   16   17 ar
    31   16   47 1
    32   17   18 1
    33   18   30 ar
    34   18   19 ar
    35   19   20 ar
    36   20   28 ar
    37   20   21 1
    38   21   22 1
    39   22   27 ar
    40   22   23 ar
    41   23   24 ar
    42   23   48 1
    43   24   25 ar
    44   24   49 1
    45   25   26 ar
    46   25   50 1
    47   26   27 ar
    48   26   51 1
    49   27   28 1
    50   28   29 ar
    51   29   34 1
    52   29   30 ar
    53   30   31 1
    54   31   32 2
    55   31   33 am
    56   33   34 1
    57   33   52 1
    58   34   53 1
    59   34   54 1
    60   35   36 1
    61   35   55 1
    62   35   62 1
    63   36   56 1
    64   36   57 1
    65   36   58 1
    66   37   38 1
    67   38   59 1
    68   38   60 1
    69   38   61 1
@<TRIPOS>MOLECULE
ZINC60328032
   42    45     0     0     0
SMALL
USER_CHARGES

@<TRIPOS>ATOM
      1 C1         -0.0178    1.4608    0.0101 C.3       1 <0>         0.0979
      2 N1          0.0021   -0.0041    0.0020 N.pl3     1 <0>        -0.3700
      3 C2          0.0078   -0.7910   -1.0967 C.2       1 <0>         0.0710
      4 C3          0.0278   -2.0877   -0.6746 C.2       1 <0>        -0.1589
      5 C4          0.0343   -2.0768    0.7335 C.2       1 <0>         0.0682
      6 N2          0.0245   -0.8316    1.1313 N.2       1 <0>        -0.2952
      7 C5          0.0400   -3.2927   -1.5426 C.2       1 <0>        -0.1298
      8 C6         -0.8204   -3.5512   -2.6135 C.2       1 <0>         0.1187
      9 N3         -0.5065   -4.7112   -3.1394 N.2       1 <0>        -0.3005
     10 N4          0.5710   -5.2585   -2.4348 N.pl3     1 <0>        -0.3482
     11 C7          0.9182   -4.3763   -1.4441 C.2       1 <0>         0.2938
     12 N5          1.9322   -4.6467   -0.6138 N.2       1 <0>        -0.4885
     13 C8          2.6231   -5.7607   -0.7273 C.2       1 <0>         0.2625
     14 C9          2.3093   -6.6869   -1.7228 C.2       1 <0>        -0.3210
     15 C10         1.2687   -6.4296   -2.5748 C.2       1 <0>         0.5405
     16 N6          0.9389   -7.3270   -3.5686 N.pl3     1 <0>        -0.8128
     17 Br1         3.3032   -8.2873   -1.8855 Br        1 <0>         0.0052
     18 C11         3.7598   -6.0377    0.2226 C.3       1 <0>        -0.0555
     19 H1          4.6693   -6.2335   -0.3454 H         1 <0>         0.1216
     20 C12         3.4213   -7.2587    1.0828 C.3       1 <0>        -0.1448
     21 C13         4.5467   -7.4842    2.0967 C.3       1 <0>        -0.1417
     22 C14         4.7319   -6.2176    2.9350 C.3       1 <0>        -0.0109
     23 N7          5.0794   -5.0928    2.0584 N.4       1 <0>        -0.5052
     24 C15         3.9749   -4.8243    1.1296 C.3       1 <0>         0.0058
     25 H2          1.0048    1.8381    0.0023 H         1 <0>         0.0775
     26 H3         -0.5450    1.8219   -0.8730 H         1 <0>         0.0915
     27 H4         -0.5280    1.8123    0.9069 H         1 <0>         0.0929
     28 H5         -0.0022   -0.4541   -2.1228 H         1 <0>         0.1772
     29 H6          0.0489   -2.9465    1.3737 H         1 <0>         0.1780
     30 H7         -1.6140   -2.9019   -2.9525 H         1 <0>         0.2067
     31 H8          0.2079   -7.1315   -4.1755 H         1 <0>         0.4258
     32 H9          1.4379   -8.1537   -3.6607 H         1 <0>         0.4290
     33 H10         2.4842   -7.0838    1.6113 H         1 <0>         0.0883
     34 H11         3.3232   -8.1376    0.4456 H         1 <0>         0.1099
     35 H12         4.2870   -8.3178    2.7492 H         1 <0>         0.1174
     36 H13         5.4729   -7.7097    1.5682 H         1 <0>         0.0918
     37 H14         3.8052   -5.9932    3.4632 H         1 <0>         0.1321
     38 H15         5.5323   -6.3748    3.6581 H         1 <0>         0.1350
     39 H16         5.2531   -4.2720    2.6189 H         1 <0>         0.4350
     40 H17         4.2162   -3.9536    0.5198 H         1 <0>         0.1403
     41 H18         3.0645   -4.6288    1.6963 H         1 <0>         0.1426
     42 H19         5.9102   -5.3210    1.5333 H         1 <0>         0.4266
@<TRIPOS>BOND
     1    1    2 1
     2    1   25 1
     3    1   26 1
     4    1   27 1
     5    2    6 1
     6    2    3 1
     7    3    4 2
     8    3   28 1
     9    4    5 1
    10    4    7 1
    11    5    6 2
    12    5   29 1
    13    7   11 2
    14    7    8 1
    15    8    9 2
    16    8   30 1
    17    9   10 1
    18   10   15 1
    19   10   11 1
    20   11   12 1
    21   12   13 2
    22   13   14 1
    23   13   18 1
    24   14   15 2
    25   14   17 1
    26   15   16 1
    27   16   31 1
    28   16   32 1
    29   18   19 1
    30   18   24 1
    31   18   20 1
    32   20   21 1
    33   20   33 1
    34   20   34 1
    35   21   22 1
    36   21   35 1
    37   21   36 1
    38   22   23 1
    39   22   37 1
    40   22   38 1
    41   23   24 1
    42   23   39 1
    43   23   42 1
    44   24   40 1
    45   24   41 1
@<TRIPOS>MOLECULE
ZINC60328033
   42    45     0     0     0
SMALL
USER_CHARGES

@<TRIPOS>ATOM
      1 C1         -0.0178    1.4608    0.0101 C.3       1 <0>         0.0979
      2 N1          0.0021   -0.0041    0.0020 N.pl3     1 <0>        -0.3700
      3 C2          0.0078   -0.7910   -1.0967 C.2       1 <0>         0.0710
      4 C3          0.0278   -2.0877   -0.6746 C.2       1 <0>        -0.1589
      5 C4          0.0343   -2.0768    0.7335 C.2       1 <0>         0.0681
      6 N2          0.0245   -0.8316    1.1313 N.2       1 <0>        -0.2952
      7 C5          0.0400   -3.2927   -1.5426 C.2       1 <0>        -0.1297
      8 C6         -0.8204   -3.5512   -2.6135 C.2       1 <0>         0.1187
      9 N3         -0.5065   -4.7112   -3.1394 N.2       1 <0>        -0.3005
     10 N4          0.5710   -5.2585   -2.4348 N.pl3     1 <0>        -0.3482
     11 C7          0.9182   -4.3763   -1.4441 C.2       1 <0>         0.2938
     12 N5          1.9322   -4.6467   -0.6138 N.2       1 <0>        -0.4885
     13 C8          2.6231   -5.7607   -0.7273 C.2       1 <0>         0.2624
     14 C9          2.3093   -6.6869   -1.7228 C.2       1 <0>        -0.3210
     15 C10         1.2687   -6.4296   -2.5748 C.2       1 <0>         0.5405
     16 N6          0.9389   -7.3270   -3.5686 N.pl3     1 <0>        -0.8128
     17 Br1         3.3032   -8.2873   -1.8855 Br        1 <0>         0.0052
     18 C11         3.7598   -6.0377    0.2226 C.3       1 <0>        -0.0555
     19 H1          3.6031   -7.0018    0.7064 H         1 <0>         0.1221
     20 C12         5.0798   -6.0634   -0.5532 C.3       1 <0>        -0.1449
     21 C13         6.2352   -6.2673    0.4310 C.3       1 <0>        -0.1416
     22 C14         6.2028   -5.1575    1.4840 C.3       1 <0>        -0.0109
     23 N7          4.9271   -5.2025    2.2086 N.4       1 <0>        -0.5051
     24 C15         3.8185   -4.9370    1.2839 C.3       1 <0>         0.0056
     25 H2          1.0048    1.8381    0.0023 H         1 <0>         0.0775
     26 H3         -0.5450    1.8219   -0.8730 H         1 <0>         0.0915
     27 H4         -0.5280    1.8123    0.9069 H         1 <0>         0.0930
     28 H5         -0.0022   -0.4541   -2.1228 H         1 <0>         0.1771
     29 H6          0.0489   -2.9465    1.3737 H         1 <0>         0.1782
     30 H7         -1.6140   -2.9019   -2.9525 H         1 <0>         0.2067
     31 H8          0.2079   -7.1315   -4.1755 H         1 <0>         0.4258
     32 H9          1.4379   -8.1537   -3.6607 H         1 <0>         0.4290
     33 H10         5.0644   -6.8828   -1.2719 H         1 <0>         0.1101
     34 H11         5.2118   -5.1180   -1.0794 H         1 <0>         0.0875
     35 H12         6.1303   -7.2359    0.9198 H         1 <0>         0.0922
     36 H13         7.1824   -6.2311   -0.1070 H         1 <0>         0.1171
     37 H14         7.0242   -5.2996    2.1863 H         1 <0>         0.1351
     38 H15         6.3081   -4.1894    0.9943 H         1 <0>         0.1313
     39 H16         4.8077   -6.1156    2.6209 H         1 <0>         0.4269
     40 H17         3.9741   -3.9733    0.7990 H         1 <0>         0.1419
     41 H18         2.8800   -4.9166    1.8379 H         1 <0>         0.1413
     42 H19         4.9305   -4.5045    2.9372 H         1 <0>         0.4351
@<TRIPOS>BOND
     1    1    2 1
     2    1   25 1
     3    1   26 1
     4    1   27 1
     5    2    6 1
     6    2    3 1
     7    3    4 2
     8    3   28 1
     9    4    5 1
    10    4    7 1
    11    5    6 2
    12    5   29 1
    13    7   11 2
    14    7    8 1
    15    8    9 2
    16    8   30 1
    17    9   10 1
    18   10   15 1
    19   10   11 1
    20   11   12 1
    21   12   13 2
    22   13   14 1
    23   13   18 1
    24   14   15 2
    25   14   17 1
    26   15   16 1
    27   16   31 1
    28   16   32 1
    29   18   19 1
    30   18   24 1
    31   18   20 1
    32   20   21 1
    33   20   33 1
    34   20   34 1
    35   21   22 1
    36   21   35 1
    37   21   36 1
    38   22   23 1
    39   22   37 1
    40   22   38 1
    41   23   24 1
    42   23   39 1
    43   23   42 1
    44   24   40 1
    45   24   41 1
@<TRIPOS>MOLECULE
ZINC02501415
   50    53     0     0     0
SMALL
USER_CHARGES
2-[[5,6-bis(4-methoxyphenyl)furo[3,2-e]pyrimidin-4-yl]amino]ethanol
@<TRIPOS>ATOM
      1 C1          3.7655   -6.3128    0.2082 C.3       1 <0>         0.0258
      2 O1          3.0420   -5.7169   -0.8705 O.3       1 <0>        -0.3146
      3 C2          2.6180   -4.4375   -0.6967 C.ar      1 <0>         0.1373
      4 C3          1.9095   -3.7997   -1.7060 C.ar      1 <0>        -0.1440
      5 C4          1.4780   -2.5014   -1.5336 C.ar      1 <0>        -0.0518
      6 C5          1.7543   -1.8286   -0.3427 C.ar      1 <0>        -0.0624
      7 C6          2.4716   -2.4711    0.6672 C.ar      1 <0>        -0.0719
      8 C7          2.8948   -3.7714    0.4896 C.ar      1 <0>        -0.2052
      9 C8          1.2928   -0.4349   -0.1536 C.2       1 <0>        -0.0815
     10 C9          2.1271    0.7691   -0.0485 C.ar      1 <0>        -0.2787
     11 C10         3.5029    1.0326   -0.0832 C.ar      1 <0>         0.4958
     12 N1          3.9072    2.2934    0.0487 N.ar      1 <0>        -0.5885
     13 C11         3.0348    3.2715    0.2082 C.ar      1 <0>         0.3740
     14 N2          1.7353    3.0670    0.2463 N.ar      1 <0>        -0.5477
     15 C12         1.2346    1.8400    0.1231 C.ar      1 <0>         0.3289
     16 O2         -0.0124    1.3382    0.1223 O.3       1 <0>        -0.1667
     17 C13         0.0002   -0.0006   -0.0395 C.2       1 <0>         0.0837
     18 C14        -1.1949   -0.8634   -0.0867 C.ar      1 <0>        -0.0675
     19 C15        -2.2865   -0.5060   -0.8830 C.ar      1 <0>        -0.0462
     20 C16        -3.3987   -1.3185   -0.9284 C.ar      1 <0>        -0.2090
     21 C17        -3.4406   -2.4849   -0.1756 C.ar      1 <0>         0.1467
     22 C18        -2.3605   -2.8413    0.6216 C.ar      1 <0>        -0.1504
     23 C19        -1.2416   -2.0382    0.6690 C.ar      1 <0>        -0.0386
     24 O3         -4.5418   -3.2797   -0.2188 O.3       1 <0>        -0.3135
     25 C20        -5.6164   -2.8541   -1.0591 C.3       1 <0>         0.0242
     26 N3          4.4174    0.0082   -0.2498 N.pl3     1 <0>        -0.6920
     27 C21         5.8516    0.3049   -0.2833 C.3       1 <0>         0.1248
     28 C22         6.6367   -0.9941   -0.4766 C.3       1 <0>         0.0604
     29 O4          6.3349   -1.5467   -1.7593 O.3       1 <0>        -0.5690
     30 H1          4.0442   -7.3318   -0.0603 H         1 <0>         0.1021
     31 H2          4.6651   -5.7307    0.4077 H         1 <0>         0.0557
     32 H3          3.1389   -6.3305    1.1000 H         1 <0>         0.0573
     33 H4          1.6957   -4.3211   -2.6273 H         1 <0>         0.1352
     34 H5          0.9272   -2.0058   -2.3193 H         1 <0>         0.1308
     35 H6          2.6915   -1.9519    1.5884 H         1 <0>         0.1257
     36 H7          3.4465   -4.2707    1.2724 H         1 <0>         0.1318
     37 H8          3.4029    4.2816    0.3113 H         1 <0>         0.2110
     38 H9         -2.2568    0.4033   -1.4650 H         1 <0>         0.1324
     39 H10        -4.2410   -1.0454   -1.5468 H         1 <0>         0.1358
     40 H11        -2.3974   -3.7494    1.2050 H         1 <0>         0.1385
     41 H12        -0.4024   -2.3159    1.2895 H         1 <0>         0.1343
     42 H13        -5.9721   -1.8785   -0.7279 H         1 <0>         0.0586
     43 H14        -5.2661   -2.7828   -2.0888 H         1 <0>         0.0585
     44 H15        -6.4306   -3.5765   -1.0015 H         1 <0>         0.1033
     45 H16         4.1090   -0.9066   -0.3444 H         1 <0>         0.4165
     46 H17         6.0630    0.9835   -1.1096 H         1 <0>         0.0803
     47 H18         6.1480    0.7723    0.6557 H         1 <0>         0.0868
     48 H19         7.7048   -0.7860   -0.4128 H         1 <0>         0.0681
     49 H20         6.3582   -1.7060    0.3004 H         1 <0>         0.0514
     50 H21         6.7986   -2.3735   -1.9504 H         1 <0>         0.3833
@<TRIPOS>BOND
     1    1    2 1
     2    1   30 1
     3    1   31 1
     4    1   32 1
     5    2    3 1
     6    3    8 ar
     7    3    4 ar
     8    4    5 ar
     9    4   33 1
    10    5    6 ar
    11    5   34 1
    12    6    7 ar
    13    6    9 1
    14    7    8 ar
    15    7   35 1
    16    8   36 1
    17    9   17 2
    18    9   10 1
    19   10   15 ar
    20   10   11 ar
    21   11   12 ar
    22   11   26 1
    23   12   13 ar
    24   13   14 ar
    25   13   37 1
    26   14   15 ar
    27   15   16 1
    28   16   17 1
    29   17   18 1
    30   18   23 ar
    31   18   19 ar
    32   19   20 ar
    33   19   38 1
    34   20   21 ar
    35   20   39 1
    36   21   22 ar
    37   21   24 1
    38   22   23 ar
    39   22   40 1
    40   23   41 1
    41   24   25 1
    42   25   42 1
    43   25   43 1
    44   25   44 1
    45   26   27 1
    46   26   45 1
    47   27   28 1
    48   27   46 1
    49   27   47 1
    50   28   29 1
    51   28   48 1
    52   28   49 1
    53   29   50 1
@<TRIPOS>MOLECULE
ZINC06475935
   37    41     0     0     0
SMALL
USER_CHARGES

@<TRIPOS>ATOM
      1 C1         -0.0167    1.3792    0.0096 C.ar      1 <0>        -0.1062
      2 C2          1.1685    2.0927    0.0021 C.ar      1 <0>        -0.1241
      3 C3          2.3774    1.4276   -0.0135 C.ar      1 <0>        -0.0971
      4 C4          2.4028    0.0333   -0.0212 C.ar      1 <0>        -0.0698
      5 C5          1.2047   -0.6805   -0.0131 C.ar      1 <0>        -0.0699
      6 C6          0.0021   -0.0041    0.0020 C.ar      1 <0>        -0.1189
      7 C7          3.6973   -0.6869   -0.0384 C.ar      1 <0>         0.0669
      8 C8          4.6754   -0.3384   -0.9678 C.ar      1 <0>        -0.1132
      9 C9          5.8922   -1.0065   -0.9938 C.ar      1 <0>         0.1759
     10 C10         6.1423   -2.0459   -0.0730 C.ar      1 <0>        -0.0351
     11 C11         7.4991   -2.5393   -0.3607 C.ar      1 <0>        -0.0961
     12 C12         8.2934   -3.5392    0.1999 C.ar      1 <0>        -0.0753
     13 C13         9.5594   -3.7717   -0.3037 C.ar      1 <0>         0.0785
     14 C14        10.0393   -3.0111   -1.3648 C.ar      1 <0>        -0.0961
     15 C15         9.2614   -2.0209   -1.9249 C.ar      1 <0>        -0.1252
     16 C16         7.9844   -1.7730   -1.4314 C.ar      1 <0>         0.1387
     17 N1          7.0072   -0.8611   -1.7955 N.pl3     1 <0>        -0.6077
     18 H1          7.0938   -0.2127   -2.5117 H         1 <0>         0.4258
     19 O1         10.3376   -4.7456    0.2396 O.3       1 <0>        -0.4931
     20 C17         5.1676   -2.4003    0.8608 C.ar      1 <0>        -0.0787
     21 C18         3.9391   -1.7132    0.8827 C.ar      1 <0>        -0.1638
     22 C19         3.1555   -2.3189    1.9736 C.2       1 <0>         0.5798
     23 O2          2.0310   -1.9966    2.3024 O.2       1 <0>        -0.4523
     24 N2          3.8925   -3.2886    2.5445 N.am      1 <0>        -0.6803
     25 C20         5.0881   -3.4048    1.9386 C.2       1 <0>         0.5787
     26 O3          5.9616   -4.1941    2.2386 O.2       1 <0>        -0.4558
     27 H2         -0.9604    1.9042    0.0260 H         1 <0>         0.1242
     28 H3          1.1476    3.1725    0.0082 H         1 <0>         0.1259
     29 H4          3.3020    1.9857   -0.0200 H         1 <0>         0.1250
     30 H5          1.2181   -1.7604   -0.0194 H         1 <0>         0.1216
     31 H6         -0.9264   -0.5557    0.0079 H         1 <0>         0.1258
     32 H7          4.4855    0.4570   -1.6732 H         1 <0>         0.1471
     33 H8          7.9210   -4.1292    1.0243 H         1 <0>         0.1476
     34 H9         11.0297   -3.1978   -1.7528 H         1 <0>         0.1402
     35 H10         9.6439   -1.4363   -2.7485 H         1 <0>         0.1347
     36 H11        10.2282   -5.6129   -0.1739 H         1 <0>         0.3907
     37 H12         3.5977   -3.8372    3.2881 H         1 <0>         0.4317
@<TRIPOS>BOND
     1    1    6 ar
     2    1    2 ar
     3    1   27 1
     4    2    3 ar
     5    2   28 1
     6    3    4 ar
     7    3   29 1
     8    4    5 ar
     9    4    7 1
    10    5    6 ar
    11    5   30 1
    12    6   31 1
    13    7   21 ar
    14    7    8 ar
    15    8    9 ar
    16    8   32 1
    17    9   17 1
    18    9   10 ar
    19   10   11 1
    20   10   20 ar
    21   11   16 ar
    22   11   12 ar
    23   12   13 ar
    24   12   33 1
    25   13   14 ar
    26   13   19 1
    27   14   15 ar
    28   14   34 1
    29   15   16 ar
    30   15   35 1
    31   16   17 1
    32   17   18 1
    33   19   36 1
    34   20   25 1
    35   20   21 ar
    36   21   22 1
    37   22   23 2
    38   22   24 am
    39   24   25 am
    40   24   37 1
    41   25   26 2
@<TRIPOS>MOLECULE
ZINC00155293
   29    32     0     0     0
SMALL
USER_CHARGES
10,10-dioxo-3-(1H-tetrazol-5-yl)thioxanthen-9-one
@<TRIPOS>ATOM
      1 C1         -0.0126    1.0758    0.0080 C.ar      1 <0>        -0.0800
      2 C2         -1.2217    1.7495    0.0174 C.ar      1 <0>        -0.1042
      3 C3         -1.2452    3.1324    0.0292 C.ar      1 <0>        -0.0299
      4 C4         -0.0651    3.8485    0.0211 C.ar      1 <0>        -0.6058
      5 C5          1.1580    3.1800    0.0078 C.ar      1 <0>        -0.0700
      6 C6          1.1719    1.7787    0.0004 C.ar      1 <0>        -0.0769
      7 C7          2.4348    3.9082    0.0040 C.2       1 <0>         0.4212
      8 O1          3.4312    3.3212    0.3791 O.2       1 <0>        -0.4234
      9 C8          2.5745    5.3057   -0.4280 C.ar      1 <0>        -0.1099
     10 C9          3.8379    5.7730   -0.8201 C.ar      1 <0>        -0.0619
     11 C10         4.0001    7.0756   -1.2262 C.ar      1 <0>        -0.0700
     12 C11         2.9050    7.9421   -1.2506 C.ar      1 <0>         0.0834
     13 C12         1.6463    7.4807   -0.8623 C.ar      1 <0>        -0.0157
     14 C13         1.4827    6.1747   -0.4558 C.ar      1 <0>        -0.6006
     15 S1         -0.1148    5.6094    0.0266 S.o2      1 <0>         2.5808
     16 O2         -0.2953    6.0070    1.3789 O.2       1 <0>        -0.9211
     17 O3         -1.0111    5.9939   -1.0069 O.2       1 <0>        -0.9195
     18 C14         3.0785    9.3448   -1.6872 C.2       1 <0>         0.0585
     19 N1          3.9473   11.1568   -2.3833 N.2       1 <0>        -0.1689
     20 N2          2.6918   11.3570   -2.1847 N.2       1 <0>        -0.1920
     21 N3          2.1405   10.2703   -1.7667 N.2       1 <0>        -0.3499
     22 H1          0.0021   -0.0041    0.0020 H         1 <0>         0.1405
     23 H2         -2.1481    1.1944    0.0198 H         1 <0>         0.1423
     24 H3         -2.1908    3.6541    0.0410 H         1 <0>         0.1451
     25 H4          2.1130    1.2489   -0.0108 H         1 <0>         0.1452
     26 H5          4.6870    5.1058   -0.8022 H         1 <0>         0.1440
     27 H6          4.9751    7.4295   -1.5272 H         1 <0>         0.1496
     28 H7          0.7983    8.1492   -0.8810 H         1 <0>         0.1513
     29 N4          4.2165    9.9392   -2.0895 N.2       1 <0>        -0.3623
@<TRIPOS>BOND
     1    1    6 ar
     2    1    2 ar
     3    1   22 1
     4    2    3 ar
     5    2   23 1
     6    3    4 ar
     7    3   24 1
     8    4   15 1
     9    4    5 ar
    10    5    6 ar
    11    5    7 1
    12    6   25 1
    13    7    8 2
    14    7    9 1
    15    9   14 ar
    16    9   10 ar
    17   10   11 ar
    18   10   26 1
    19   11   12 ar
    20   11   27 1
    21   12   13 ar
    22   12   18 1
    23   13   14 ar
    24   13   28 1
    25   14   15 1
    26   15   16 2
    27   15   17 2
    28   18   21 2
    29   18   29 1
    30   19   20 2
    31   19   29 1
    32   20   21 1
@<TRIPOS>MOLECULE
ZINC06718826
   56    60     0     0     0
SMALL
USER_CHARGES
4-[4-[5-[4-(cyclopropylaminomethyl)phenyl]amino-2H-pyrazol-3-yl]phenyl]benzene-1,3-diol
@<TRIPOS>ATOM
      1 C1         15.5014    7.4011   -1.0485 C.ar      1 <0>        -0.0595
      2 C2         14.5725    6.4187   -1.3299 C.ar      1 <0>        -0.1633
      3 C3         13.3258    6.4480   -0.7176 C.ar      1 <0>         0.2208
      4 C4         13.0160    7.4695    0.1718 C.ar      1 <0>        -0.1449
      5 C5         13.9515    8.4457    0.4525 C.ar      1 <0>        -0.0602
      6 C6         15.1918    8.4132   -0.1584 C.ar      1 <0>        -0.2082
      7 C7         16.2080    9.4835    0.1461 C.3       1 <0>         0.0610
      8 C8         17.0204   11.6618   -0.5305 C.3       1 <0>        -0.0788
      9 C9         16.5165   13.1061   -0.5604 C.3       1 <0>        -0.1566
     10 C10        17.3999   12.5805   -1.6937 C.3       1 <0>        -0.1570
     11 N1         12.3837    5.4558   -0.9998 N.pl3     1 <0>        -0.6455
     12 C11        11.0177    5.7630   -0.9856 C.2       1 <0>         0.3196
     13 C12         9.9792    4.8940   -1.3433 C.2       1 <0>        -0.2781
     14 C13         8.8007    5.5698   -1.1982 C.2       1 <0>         0.1699
     15 N2          9.1009    6.8230   -0.7527 N.pl3     1 <0>        -0.4700
     16 H1          8.4437    7.5489   -0.5497 H         1 <0>         0.4494
     17 N3         10.4932    6.9130   -0.6299 N.2       1 <0>        -0.3248
     18 C14         7.4477    5.0378   -1.4686 C.ar      1 <0>        -0.0449
     19 C15         6.3268    5.8460   -1.2690 C.ar      1 <0>        -0.1046
     20 C16         5.0672    5.3500   -1.5205 C.ar      1 <0>        -0.1026
     21 C17         4.9108    4.0399   -1.9743 C.ar      1 <0>        -0.0251
     22 C18         6.0303    3.2300   -2.1684 C.ar      1 <0>        -0.0844
     23 C19         7.2907    3.7269   -1.9231 C.ar      1 <0>        -0.0849
     24 C20         3.5549    3.5065   -2.2443 C.ar      1 <0>        -0.0946
     25 C21         2.5484    3.6390   -1.2889 C.ar      1 <0>        -0.0714
     26 C22         1.2860    3.1476   -1.5454 C.ar      1 <0>        -0.1516
     27 C23         1.0162    2.5094   -2.7496 C.ar      1 <0>         0.1321
     28 C24         2.0119    2.3730   -3.7053 C.ar      1 <0>        -0.1723
     29 C25         3.2809    2.8687   -3.4591 C.ar      1 <0>         0.1400
     30 O1          4.2570    2.7367   -4.3944 O.3       1 <0>        -0.4905
     31 O2         -0.2284    2.0224   -2.9939 O.3       1 <0>        -0.4966
     32 H2         16.4709    7.3788   -1.5239 H         1 <0>         0.1326
     33 H3         14.8151    5.6284   -2.0248 H         1 <0>         0.1365
     34 H4         12.0461    7.4977    0.6461 H         1 <0>         0.1514
     35 H5         13.7130    9.2375    1.1471 H         1 <0>         0.1306
     36 H6         16.0610    9.8452    1.1638 H         1 <0>         0.1341
     37 H7         17.2117    9.0697    0.0490 H         1 <0>         0.1342
     38 H8         17.7995   11.4150    0.1907 H         1 <0>         0.1768
     39 H9         15.4606   13.2664   -0.7783 H         1 <0>         0.1202
     40 H10        16.9640   13.8099    0.1415 H         1 <0>         0.1325
     41 H11        18.4285   12.9385   -1.7374 H         1 <0>         0.1326
     42 H12        16.9254   12.3948   -2.6572 H         1 <0>         0.1202
     43 H13        12.6759    4.5541   -1.2056 H         1 <0>         0.4278
     44 H14        10.0903    3.8728   -1.6767 H         1 <0>         0.1554
     45 H15         6.4476    6.8599   -0.9171 H         1 <0>         0.1214
     46 H16         4.2001    5.9751   -1.3662 H         1 <0>         0.1313
     47 H17         5.9084    2.2146   -2.5154 H         1 <0>         0.1360
     48 H18         8.1574    3.1014   -2.0777 H         1 <0>         0.1329
     49 H19         2.7561    4.1310   -0.3502 H         1 <0>         0.1348
     50 H20         0.5059    3.2551   -0.8063 H         1 <0>         0.1367
     51 H21         1.7972    1.8802   -4.6421 H         1 <0>         0.1395
     52 H22         4.3055    3.4734   -5.0189 H         1 <0>         0.3940
     53 H23        -0.3551    1.1066   -2.7106 H         1 <0>         0.3975
     54 N4         16.0368   10.5975   -0.8056 N.4       1 <0>        -0.4896
     55 H24        15.0886   10.9802   -0.7120 H         1 <0>         0.4288
     56 H25        16.1726   10.2498   -1.7621 H         1 <0>         0.4295
@<TRIPOS>BOND
     1    1    6 ar
     2    1    2 ar
     3    1   32 1
     4    2    3 ar
     5    2   33 1
     6    3    4 ar
     7    3   11 1
     8    4    5 ar
     9    4   34 1
    10    5    6 ar
    11    5   35 1
    12    6    7 1
    13    7   36 1
    14    7   37 1
    15    7   54 1
    16    8   10 1
    17    8    9 1
    18    8   38 1
    19    8   54 1
    20    9   10 1
    21    9   39 1
    22    9   40 1
    23   10   41 1
    24   10   42 1
    25   11   12 1
    26   11   43 1
    27   12   17 2
    28   12   13 1
    29   13   14 2
    30   13   44 1
    31   14   15 1
    32   14   18 1
    33   15   16 1
    34   15   17 1
    35   18   23 ar
    36   18   19 ar
    37   19   20 ar
    38   19   45 1
    39   20   21 ar
    40   20   46 1
    41   21   22 ar
    42   21   24 1
    43   22   23 ar
    44   22   47 1
    45   23   48 1
    46   24   29 ar
    47   24   25 ar
    48   25   26 ar
    49   25   49 1
    50   26   27 ar
    51   26   50 1
    52   27   28 ar
    53   27   31 1
    54   28   29 ar
    55   28   51 1
    56   29   30 1
    57   30   52 1
    58   31   53 1
    59   54   55 1
    60   54   56 1
@<TRIPOS>MOLECULE
ZINC28956968
   24    26     0     0     0
SMALL
USER_CHARGES
8-chloro-3-methyl-2,5-dihydropyrazolo[4,3-c]quinolin-4-one
@<TRIPOS>ATOM
      1 C1          7.4385   -0.3634   -0.0734 C.3       1 <0>        -0.1119
      2 C2          5.9773   -0.7319   -0.0610 C.2       1 <0>         0.1795
      3 C3          4.9210    0.1464   -0.0453 C.2       1 <0>        -0.3160
      4 C4          3.6989   -0.6714   -0.0375 C.2       1 <0>         0.1404
      5 C5          2.4012    0.0342   -0.0208 C.ar      1 <0>        -0.0560
      6 C6          1.2055   -0.6795   -0.0132 C.ar      1 <0>        -0.0407
      7 C7          0.0021   -0.0041    0.0020 C.ar      1 <0>        -0.0693
      8 C8         -0.0167    1.3821    0.0096 C.ar      1 <0>        -0.0565
      9 C9          1.1612    2.0987    0.0022 C.ar      1 <0>        -0.1511
     10 C10         2.3849    1.4356   -0.0131 C.ar      1 <0>         0.2108
     11 N1          3.5614    2.1712   -0.0219 N.am      1 <0>        -0.6595
     12 H1          3.5228    3.2705   -0.0171 H         1 <0>         0.4446
     13 C11         4.7810    1.6061   -0.0364 C.2       1 <0>         0.5999
     14 O1          5.7740    2.3096   -0.0425 O.2       1 <0>        -0.5304
     15 Cl1        -1.4900   -0.8914    0.0121 Cl        1 <0>        -0.0604
     16 N2          4.0762   -1.9233   -0.0484 N.2       1 <0>        -0.2558
     17 N3          5.4753   -1.9773   -0.0629 N.pl3     1 <0>        -0.4671
     18 H2          6.1532   -2.8435   -0.0746 H         1 <0>         0.4793
     19 H3          7.5405    0.7319   -0.0684 H         1 <0>         0.1071
     20 H4          7.9119   -0.7716   -0.9785 H         1 <0>         0.0880
     21 H5          7.9296   -0.7815    0.8177 H         1 <0>         0.0880
     22 H6          1.2199   -1.7594   -0.0187 H         1 <0>         0.1462
     23 H7         -0.9617    1.9050    0.0170 H         1 <0>         0.1444
     24 H8          1.1342    3.1783    0.0083 H         1 <0>         0.1463
@<TRIPOS>BOND
     1    1    2 1
     2    1   19 1
     3    1   20 1
     4    1   21 1
     5    2   17 1
     6    2    3 2
     7    3   13 1
     8    3    4 1
     9    4    5 1
    10    4   16 2
    11    5   10 ar
    12    5    6 ar
    13    6    7 ar
    14    6   22 1
    15    7    8 ar
    16    7   15 1
    17    8    9 ar
    18    8   23 1
    19    9   10 ar
    20    9   24 1
    21   10   11 1
    22   11   12 1
    23   11   13 am
    24   13   14 2
    25   16   17 1
    26   17   18 1
@<TRIPOS>MOLECULE
ZINC28956968
   23    25     0     0     0
SMALL
USER_CHARGES
8-chloro-3-methyl-2,5-dihydropyrazolo[4,3-c]quinolin-4-one
@<TRIPOS>ATOM
      1 C1          7.4385   -0.3634   -0.0723 C.3       1 <0>        -0.0615
      2 C2          5.9773   -0.7319   -0.0602 C.2       1 <0>         0.1199
      3 C3          4.9210    0.1464   -0.0457 C.ar      1 <0>        -0.3211
      4 C4          3.6989   -0.6714   -0.0382 C.ar      1 <0>         0.1510
      5 C5          2.4012    0.0342   -0.0220 C.ar      1 <0>        -0.1680
      6 C6          1.2055   -0.6795   -0.0147 C.ar      1 <0>        -0.0479
      7 C7          0.0021   -0.0041    0.0001 C.ar      1 <0>        -0.1238
      8 C8         -0.0167    1.3821    0.0075 C.ar      1 <0>        -0.0694
      9 C9          1.1612    2.0987    0.0004 C.ar      1 <0>        -0.1493
     10 C10         2.3849    1.4356   -0.0145 C.ar      1 <0>         0.2509
     11 N1          3.5614    2.1712   -0.0230 N.ar      1 <0>        -0.6870
     12 C11         4.7810    1.6061   -0.0371 C.ar      1 <0>         0.5488
     13 O1          5.7740    2.3096   -0.0429 O.3       1 <0>        -0.5887
     14 Cl1        -1.4900   -0.8914    0.0098 Cl        1 <0>        -0.1078
     15 N2          4.0762   -1.9233   -0.0477 N.pl3     1 <0>        -0.4378
     16 N3          5.4753   -1.9773   -0.0617 N.2       1 <0>        -0.3399
     17 H1          3.3229   -2.7248   -0.0439 H         1 <0>         0.4574
     18 H2          8.0476   -1.2794   -0.0827 H         1 <0>         0.0613
     19 H3          7.6758    0.2245    0.8266 H         1 <0>         0.0786
     20 H4          7.6587    0.2335   -0.9696 H         1 <0>         0.0786
     21 H5          1.2199   -1.7594   -0.0200 H         1 <0>         0.1088
     22 H6         -0.9617    1.9050    0.0145 H         1 <0>         0.1197
     23 H7          1.1342    3.1783    0.0063 H         1 <0>         0.1274
@<TRIPOS>BOND
     1    1    2 1
     2    1   18 1
     3    1   19 1
     4    1   20 1
     5    2    3 1
     6    2   16 2
     7    3   12 ar
     8    3    4 ar
     9    4    5 ar
    10    4   15 1
    11    5   10 ar
    12    5    6 ar
    13    6    7 ar
    14    6   21 1
    15    7    8 ar
    16    7   14 1
    17    8    9 ar
    18    8   22 1
    19    9   10 ar
    20    9   23 1
    21   10   11 ar
    22   11   12 ar
    23   12   13 1
    24   15   17 1
    25   15   16 1
@<TRIPOS>MOLECULE
ZINC17836932
   28    30     0     0     0
SMALL
USER_CHARGES

@<TRIPOS>ATOM
      1 C1         -0.0169    1.3979    0.0097 C.2       1 <0>        -0.1853
      2 C2          1.2697    1.8211   -0.0003 C.2       1 <0>         0.0002
      3 N1          2.1027    0.7421   -0.0039 N.pl3     1 <0>        -0.5131
      4 H1          3.0718    0.7768   -0.0265 H         1 <0>         0.4179
      5 C3          1.3532   -0.3880    0.0293 C.2       1 <0>        -0.0595
      6 C4          0.0021   -0.0041    0.0020 C.2       1 <0>        -0.0520
      7 C5         -1.0943   -0.9739   -0.0791 C.2       1 <0>        -0.1071
      8 C6         -1.9967   -1.1126    0.9290 C.2       1 <0>         0.0917
      9 C7         -3.1333   -2.0409    0.9857 C.2       1 <0>         0.4671
     10 O1         -3.4883   -2.9333    0.0339 O.3       1 <0>        -0.6411
     11 N2         -3.7419   -1.8425    2.1354 N.2       1 <0>        -0.6216
     12 C8         -3.1225   -0.8813    2.8371 C.2       1 <0>         0.5790
     13 N3         -2.0365   -0.4063    2.1342 N.pl3     1 <0>        -0.7300
     14 N4         -3.4935   -0.4588    4.0222 N.2       1 <0>        -0.7933
     15 C9         -1.1768   -1.8152   -1.3382 C.3       1 <0>        -0.0886
     16 C10         0.2355   -2.2351   -1.7564 C.3       1 <0>         0.1190
     17 N5          1.0531   -2.6907   -0.6424 N.am      1 <0>        -0.7102
     18 C11         1.7353   -1.8032    0.1271 C.2       1 <0>         0.6046
     19 O2          2.6289   -2.1665    0.8693 O.2       1 <0>        -0.5478
     20 H2         -0.8960    2.0251    0.0255 H         1 <0>         0.1414
     21 H3          1.5865    2.8536   -0.0047 H         1 <0>         0.1693
     22 H4         -1.4202    0.2861    2.4198 H         1 <0>         0.4015
     23 H5         -2.9917    0.2428    4.4660 H         1 <0>         0.3149
     24 H6         -1.7784   -2.7032   -1.1441 H         1 <0>         0.1113
     25 H7         -1.6347   -1.2315   -2.1368 H         1 <0>         0.0784
     26 H8          0.1592   -3.0406   -2.4868 H         1 <0>         0.0824
     27 H9          0.7284   -1.3847   -2.2274 H         1 <0>         0.0658
     28 H10         1.1115   -3.6389   -0.4469 H         1 <0>         0.4052
@<TRIPOS>BOND
     1    1    6 1
     2    1    2 2
     3    1   20 1
     4    2    3 1
     5    2   21 1
     6    3    4 1
     7    3    5 1
     8    5   18 1
     9    5    6 2
    10    6    7 1
    11    7    8 2
    12    7   15 1
    13    8   13 1
    14    8    9 1
    15    9   10 1
    16    9   11 2
    17   11   12 1
    18   12   13 1
    19   12   14 2
    20   13   22 1
    21   14   23 1
    22   15   16 1
    23   15   24 1
    24   15   25 1
    25   16   17 1
    26   16   26 1
    27   16   27 1
    28   17   18 am
    29   17   28 1
    30   18   19 2
@<TRIPOS>MOLECULE
ZINC17836932
   29    31     0     0     0
SMALL
USER_CHARGES

@<TRIPOS>ATOM
      1 C1         -0.0169    1.3974    0.0097 C.2       1 <0>        -0.1750
      2 C2          1.2702    1.8202   -0.0003 C.2       1 <0>         0.0117
      3 N1          2.1021    0.7407   -0.0039 N.pl3     1 <0>        -0.5030
      4 H1          3.0712    0.7746   -0.0262 H         1 <0>         0.4262
      5 C3          1.3523   -0.3881    0.0294 C.2       1 <0>        -0.0307
      6 C4          0.0021   -0.0041    0.0020 C.2       1 <0>        -0.1099
      7 C5         -1.0954   -0.9746   -0.0792 C.2       1 <0>         0.0238
      8 C6         -1.9958   -1.1127    0.9263 C.2       1 <0>        -0.0099
      9 C7         -3.1409   -2.0437    0.9898 C.2       1 <0>         0.5395
     10 O1         -3.4737   -2.8538    0.1403 O.2       1 <0>        -0.4718
     11 N2         -3.7411   -1.8205    2.1670 N.2       1 <0>        -0.6438
     12 C8         -3.1131   -0.8750    2.8320 C.2       1 <0>         0.6555
     13 N3         -2.0413   -0.4096    2.1336 N.pl3     1 <0>        -0.6639
     14 N4         -3.4857   -0.4219    4.0677 N.pl3     1 <0>        -0.8053
     15 C9         -1.1779   -1.8161   -1.3382 C.3       1 <0>        -0.1059
     16 C10         0.2344   -2.2364   -1.7561 C.3       1 <0>         0.1151
     17 N5          1.0518   -2.6919   -0.6420 N.am      1 <0>        -0.7155
     18 C11         1.7342   -1.8045    0.1274 C.2       1 <0>         0.5968
     19 O2          2.6276   -2.1680    0.8695 O.2       1 <0>        -0.5284
     20 H2         -0.8959    2.0248    0.0255 H         1 <0>         0.1476
     21 H3          1.5877    2.8525   -0.0051 H         1 <0>         0.1779
     22 H4         -1.4251    0.2828    2.4195 H         1 <0>         0.4256
     23 H5         -4.2600   -0.8028    4.5107 H         1 <0>         0.4329
     24 H6         -1.7797   -2.7039   -1.1440 H         1 <0>         0.1072
     25 H7         -1.6356   -1.2324   -2.1370 H         1 <0>         0.1042
     26 H8          0.1580   -3.0419   -2.4864 H         1 <0>         0.0956
     27 H9          0.7275   -1.3860   -2.2271 H         1 <0>         0.0765
     28 H10         1.1098   -3.6401   -0.4462 H         1 <0>         0.4103
     29 H11        -2.9756    0.2802    4.5009 H         1 <0>         0.4166
@<TRIPOS>BOND
     1    1    6 1
     2    1    2 2
     3    1   20 1
     4    2    3 1
     5    2   21 1
     6    3    4 1
     7    3    5 1
     8    5   18 1
     9    5    6 2
    10    6    7 1
    11    7    8 2
    12    7   15 1
    13    8   13 1
    14    8    9 1
    15    9   10 2
    16    9   11 1
    17   11   12 2
    18   12   13 1
    19   12   14 1
    20   13   22 1
    21   14   23 1
    22   14   29 1
    23   15   16 1
    24   15   24 1
    25   15   25 1
    26   16   17 1
    27   16   26 1
    28   16   27 1
    29   17   18 am
    30   17   28 1
    31   18   19 2
@<TRIPOS>MOLECULE
ZINC17836932
   28    30     0     0     0
SMALL
USER_CHARGES

@<TRIPOS>ATOM
      1 C1         -0.0169    1.3974    0.0097 C.2       1 <0>        -0.1837
      2 C2          1.2702    1.8202   -0.0003 C.2       1 <0>         0.0004
      3 N1          2.1021    0.7407   -0.0039 N.pl3     1 <0>        -0.5128
      4 H1          3.0712    0.7746   -0.0262 H         1 <0>         0.4175
      5 C3          1.3523   -0.3881    0.0294 C.2       1 <0>        -0.0610
      6 C4          0.0021   -0.0041    0.0020 C.2       1 <0>        -0.0505
      7 C5         -1.0954   -0.9746   -0.0792 C.2       1 <0>        -0.1179
      8 C6         -1.9958   -1.1127    0.9263 C.2       1 <0>         0.0730
      9 C7         -3.1409   -2.0437    0.9898 C.2       1 <0>         0.5128
     10 O1         -3.4737   -2.8538    0.1403 O.2       1 <0>        -0.5599
     11 N2         -3.7411   -1.8205    2.1670 N.2       1 <0>        -0.7181
     12 C8         -3.1131   -0.8750    2.8320 C.2       1 <0>         0.5699
     13 N3         -2.0413   -0.4096    2.1336 N.pl3     1 <0>        -0.6706
     14 N4         -3.4857   -0.4219    4.0677 N.2       1 <0>        -0.8565
     15 C9         -1.1779   -1.8161   -1.3382 C.3       1 <0>        -0.0822
     16 C10         0.2344   -2.2364   -1.7561 C.3       1 <0>         0.1194
     17 N5          1.0518   -2.6919   -0.6420 N.am      1 <0>        -0.7119
     18 C11         1.7342   -1.8045    0.1274 C.2       1 <0>         0.6056
     19 O2          2.6276   -2.1680    0.8695 O.2       1 <0>        -0.5464
     20 H2         -0.8959    2.0248    0.0255 H         1 <0>         0.1421
     21 H3          1.5877    2.8525   -0.0051 H         1 <0>         0.1694
     22 H4         -1.4251    0.2828    2.4195 H         1 <0>         0.4081
     23 H5         -1.7797   -2.7039   -1.1440 H         1 <0>         0.0999
     24 H6         -1.6356   -1.2324   -2.1370 H         1 <0>         0.0788
     25 H7          0.1580   -3.0419   -2.4864 H         1 <0>         0.0818
     26 H8          0.7275   -1.3860   -2.2271 H         1 <0>         0.0677
     27 H9          1.1098   -3.6401   -0.4462 H         1 <0>         0.4045
     28 H10        -4.2600   -0.8028    4.5107 H         1 <0>         0.3206
@<TRIPOS>BOND
     1    1    6 1
     2    1    2 2
     3    1   20 1
     4    2    3 1
     5    2   21 1
     6    3    4 1
     7    3    5 1
     8    5   18 1
     9    5    6 2
    10    6    7 1
    11    7    8 2
    12    7   15 1
    13    8   13 1
    14    8    9 1
    15    9   10 2
    16    9   11 1
    17   11   12 2
    18   12   13 1
    19   12   14 1
    20   13   22 1
    21   14   28 1
    22   15   16 1
    23   15   23 1
    24   15   24 1
    25   16   17 1
    26   16   25 1
    27   16   26 1
    28   17   18 am
    29   17   27 1
    30   18   19 2
@<TRIPOS>MOLECULE
ZINC17836932
   29    31     0     0     0
SMALL
USER_CHARGES

@<TRIPOS>ATOM
      1 C1         -0.0169    1.3974    0.0097 C.2       1 <0>        -0.1473
      2 C2          1.2702    1.8202   -0.0003 C.2       1 <0>         0.0092
      3 N1          2.1021    0.7407   -0.0039 N.pl3     1 <0>        -0.5042
      4 H1          3.0712    0.7746   -0.0262 H         1 <0>         0.4240
      5 C3          1.3523   -0.3881    0.0294 C.2       1 <0>        -0.0387
      6 C4          0.0021   -0.0041    0.0020 C.2       1 <0>        -0.0851
      7 C5         -1.0954   -0.9746   -0.0792 C.2       1 <0>         0.0169
      8 C6         -1.9958   -1.1127    0.9263 C.2       1 <0>        -0.0073
      9 C7         -2.0476   -0.3653    2.1993 C.2       1 <0>         0.5339
     10 O1         -1.2818    0.5113    2.5652 O.2       1 <0>        -0.4536
     11 N2         -3.1040   -0.8424    2.8719 N.2       1 <0>        -0.6434
     12 C8         -3.7052   -1.7839    2.1771 C.2       1 <0>         0.6538
     13 N3         -3.0830   -1.9895    0.9838 N.pl3     1 <0>        -0.6697
     14 N4         -4.8150   -2.4643    2.5968 N.pl3     1 <0>        -0.8063
     15 C9         -1.1779   -1.8161   -1.3382 C.3       1 <0>        -0.1035
     16 C10         0.2344   -2.2364   -1.7561 C.3       1 <0>         0.1166
     17 N5          1.0518   -2.6919   -0.6420 N.am      1 <0>        -0.7221
     18 C11         1.7342   -1.8045    0.1274 C.2       1 <0>         0.6004
     19 O2          2.6276   -2.1680    0.8695 O.2       1 <0>        -0.5251
     20 H2         -0.8959    2.0248    0.0255 H         1 <0>         0.1450
     21 H3          1.5877    2.8525   -0.0051 H         1 <0>         0.1764
     22 H4         -3.3442   -2.6274    0.3014 H         1 <0>         0.4230
     23 H5         -5.2100   -2.2627    3.4595 H         1 <0>         0.4328
     24 H6         -1.7797   -2.7039   -1.1440 H         1 <0>         0.0732
     25 H7         -1.6356   -1.2324   -2.1370 H         1 <0>         0.1044
     26 H8          0.1580   -3.0419   -2.4864 H         1 <0>         0.0919
     27 H9          0.7275   -1.3860   -2.2271 H         1 <0>         0.0817
     28 H10         1.1098   -3.6401   -0.4462 H         1 <0>         0.4070
     29 H11        -5.2071   -3.1483    2.0318 H         1 <0>         0.4159
@<TRIPOS>BOND
     1    1    6 1
     2    1    2 2
     3    1   20 1
     4    2    3 1
     5    2   21 1
     6    3    4 1
     7    3    5 1
     8    5   18 1
     9    5    6 2
    10    6    7 1
    11    7    8 2
    12    7   15 1
    13    8   13 1
    14    8    9 1
    15    9   10 2
    16    9   11 1
    17   11   12 2
    18   12   13 1
    19   12   14 1
    20   13   22 1
    21   14   23 1
    22   14   29 1
    23   15   16 1
    24   15   24 1
    25   15   25 1
    26   16   17 1
    27   16   26 1
    28   16   27 1
    29   17   18 am
    30   17   28 1
    31   18   19 2
@<TRIPOS>MOLECULE
ZINC17836932
   28    30     0     0     0
SMALL
USER_CHARGES

@<TRIPOS>ATOM
      1 C1         -0.0169    1.3974    0.0097 C.2       1 <0>        -0.1537
      2 C2          1.2702    1.8202   -0.0003 C.2       1 <0>        -0.0035
      3 N1          2.1021    0.7407   -0.0039 N.pl3     1 <0>        -0.5151
      4 H1          3.0712    0.7746   -0.0262 H         1 <0>         0.4151
      5 C3          1.3523   -0.3881    0.0294 C.2       1 <0>        -0.0685
      6 C4          0.0021   -0.0041    0.0020 C.2       1 <0>        -0.0220
      7 C5         -1.0954   -0.9746   -0.0792 C.2       1 <0>        -0.1234
      8 C6         -1.9958   -1.1127    0.9263 C.2       1 <0>         0.0745
      9 C7         -2.0476   -0.3653    2.1993 C.2       1 <0>         0.5098
     10 O1         -1.2818    0.5113    2.5652 O.2       1 <0>        -0.5436
     11 N2         -3.1040   -0.8424    2.8719 N.2       1 <0>        -0.7219
     12 C8         -3.7052   -1.7839    2.1771 C.2       1 <0>         0.5705
     13 N3         -3.0830   -1.9895    0.9838 N.pl3     1 <0>        -0.6745
     14 N4         -4.8150   -2.4643    2.5968 N.2       1 <0>        -0.8610
     15 C9         -1.1779   -1.8161   -1.3382 C.3       1 <0>        -0.0821
     16 C10         0.2344   -2.2364   -1.7561 C.3       1 <0>         0.1213
     17 N5          1.0518   -2.6919   -0.6420 N.am      1 <0>        -0.7182
     18 C11         1.7342   -1.8045    0.1274 C.2       1 <0>         0.6089
     19 O2          2.6276   -2.1680    0.8695 O.2       1 <0>        -0.5443
     20 H2         -0.8959    2.0248    0.0255 H         1 <0>         0.1386
     21 H3          1.5877    2.8525   -0.0051 H         1 <0>         0.1669
     22 H4         -3.3442   -2.6274    0.3014 H         1 <0>         0.4055
     23 H5         -1.7797   -2.7039   -1.1440 H         1 <0>         0.0640
     24 H6         -1.6356   -1.2324   -2.1370 H         1 <0>         0.0817
     25 H7          0.1580   -3.0419   -2.4864 H         1 <0>         0.0793
     26 H8          0.7275   -1.3860   -2.2271 H         1 <0>         0.0735
     27 H9          1.1098   -3.6401   -0.4462 H         1 <0>         0.4020
     28 H10        -5.2100   -2.2627    3.4595 H         1 <0>         0.3204
@<TRIPOS>BOND
     1    1    6 1
     2    1    2 2
     3    1   20 1
     4    2    3 1
     5    2   21 1
     6    3    4 1
     7    3    5 1
     8    5   18 1
     9    5    6 2
    10    6    7 1
    11    7    8 2
    12    7   15 1
    13    8   13 1
    14    8    9 1
    15    9   10 2
    16    9   11 1
    17   11   12 2
    18   12   13 1
    19   12   14 1
    20   13   22 1
    21   14   28 1
    22   15   16 1
    23   15   23 1
    24   15   24 1
    25   16   17 1
    26   16   25 1
    27   16   26 1
    28   17   18 am
    29   17   27 1
    30   18   19 2
@<TRIPOS>MOLECULE
ZINC19597285
   31    33     0     0     0
SMALL
USER_CHARGES
6-methyl-4-(2-thienyl)-2-thioxo-1,5,7,8-tetrahydro-1,6-naphthyridine-3-carbonitrile
@<TRIPOS>ATOM
      1 C1         -2.8315    1.4039    2.4477 C.3       1 <0>         0.0228
      2 N1         -2.1519    1.2585    1.1535 N.3       1 <0>        -0.5344
      3 C2         -0.7222    1.5758    1.2696 C.3       1 <0>         0.0518
      4 C3         -0.0127    1.0858    0.0080 C.3       1 <0>        -0.0615
      5 C4         -0.7372    1.5831   -1.2193 C.ar      1 <0>         0.1717
      6 C5         -2.0006    2.0457   -1.1563 C.ar      1 <0>        -0.1814
      7 C6         -2.6468    2.4920   -2.3373 C.ar      1 <0>         0.0871
      8 C7         -1.9489    2.4493   -3.5592 C.ar      1 <0>        -0.0923
      9 C8         -0.6217    1.9599   -3.5580 C.ar      1 <0>         0.3412
     10 S1          0.2702    1.8928   -5.0178 S.3       1 <0>        -0.7870
     11 N2         -0.0639    1.5482   -2.4087 N.ar      1 <0>        -0.5064
     12 C9         -2.5674    2.8900   -4.7733 C.1       1 <0>         0.2993
     13 N3         -3.0580    3.2396   -5.7364 N.1       1 <0>        -0.4453
     14 C10        -4.0263    2.9927   -2.2862 C.2       1 <0>        -0.1209
     15 C11        -4.5022    4.2692   -2.5400 C.2       1 <0>        -0.1368
     16 C12        -5.8568    4.4668   -2.4207 C.2       1 <0>        -0.1552
     17 C13        -6.6490    3.4254   -2.0570 C.2       1 <0>        -0.2240
     18 S2         -5.5255    2.1181   -1.8734 S.3       1 <0>         0.1236
     19 C14        -2.7719    2.1121    0.1358 C.3       1 <0>         0.1101
     20 H1         -2.3471    0.7539    3.1913 H         1 <0>         0.0698
     21 H2         -3.8878    1.1158    2.3416 H         1 <0>         0.0689
     22 H3         -2.7685    2.4508    2.7793 H         1 <0>         0.0244
     23 H4         -0.5953    2.6635    1.3732 H         1 <0>         0.0390
     24 H5         -0.3055    1.0721    2.1543 H         1 <0>         0.0818
     25 H6          1.0196    1.4655   -0.0030 H         1 <0>         0.0889
     26 H7          0.0011   -0.0141   -0.0012 H         1 <0>         0.0913
     27 H8         -3.8379    5.0728   -2.8218 H         1 <0>         0.1363
     28 H9         -6.2859    5.4396   -2.6101 H         1 <0>         0.1308
     29 H10        -7.7197    3.4145   -1.9161 H         1 <0>         0.1824
     30 H11        -3.8026    1.7744   -0.0476 H         1 <0>         0.0840
     31 H12        -2.7847    3.1537    0.4891 H         1 <0>         0.0400
@<TRIPOS>BOND
     1    1    2 1
     2    1   20 1
     3    1   21 1
     4    1   22 1
     5    2   19 1
     6    2    3 1
     7    3    4 1
     8    3   23 1
     9    3   24 1
    10    4    5 1
    11    4   25 1
    12    4   26 1
    13    5   11 ar
    14    5    6 ar
    15    6    7 ar
    16    6   19 1
    17    7    8 ar
    18    7   14 1
    19    8    9 ar
    20    8   12 1
    21    9   10 1
    22    9   11 ar
    23   12   13 3
    24   14   18 1
    25   14   15 2
    26   15   16 1
    27   15   27 1
    28   16   17 2
    29   16   28 1
    30   17   18 1
    31   17   29 1
    32   19   30 1
    33   19   31 1
@<TRIPOS>MOLECULE
ZINC18183490
   45    52     0     0     0
SMALL
USER_CHARGES

@<TRIPOS>ATOM
      1 C1         -0.0167    1.3803    0.0096 C.ar      1 <0>        -0.1530
      2 C2          1.1495    2.1255    0.0025 C.ar      1 <0>        -0.0724
      3 C3          2.4024    1.5359   -0.0204 C.ar      1 <0>        -0.1468
      4 C4          2.4503    0.1427   -0.0320 C.ar      1 <0>         0.1515
      5 C5          1.2560   -0.6177   -0.0125 C.ar      1 <0>        -0.1069
      6 C6          0.0021   -0.0041    0.0020 C.ar      1 <0>        -0.0384
      7 C7          1.6509   -2.0237    0.0086 C.ar      1 <0>        -0.0076
      8 C8          0.9722   -3.2504    0.0426 C.ar      1 <0>        -0.1079
      9 C9          1.6918   -4.4571    0.1251 C.ar      1 <0>        -0.1087
     10 C10         3.0932   -4.4422    0.1719 C.ar      1 <0>        -0.0070
     11 C11         4.1381   -5.4475    0.3487 C.ar      1 <0>        -0.1067
     12 C12         4.0766   -6.8311    0.5249 C.ar      1 <0>        -0.0381
     13 C13         5.2816   -7.4969    0.6727 C.ar      1 <0>        -0.1529
     14 C14         6.4926   -6.8273    0.6485 C.ar      1 <0>        -0.0722
     15 C15         6.5748   -5.4564    0.4717 C.ar      1 <0>        -0.1470
     16 C16         5.3763   -4.7616    0.3148 C.ar      1 <0>         0.1518
     17 N1          5.1372   -3.4269    0.1009 N.pl3     1 <0>        -0.5088
     18 C17         3.7681   -3.2179    0.0614 C.ar      1 <0>         0.1402
     19 C18         3.0531   -2.0186   -0.0123 C.ar      1 <0>         0.1411
     20 N2          3.5203   -0.7161   -0.0799 N.pl3     1 <0>        -0.5095
     21 C19         4.9330   -0.3594   -0.2487 C.3       1 <0>         0.3009
     22 H1          5.0233    0.6109   -0.7369 H         1 <0>         0.1460
     23 C20         5.6121   -0.3298    1.1353 C.3       1 <0>        -0.1631
     24 C21         6.3995   -1.6530    1.2253 C.3       1 <0>        -0.1633
     25 C22         6.1330   -2.3718   -0.1119 C.3       1 <0>         0.3009
     26 H2          7.0567   -2.7963   -0.5052 H         1 <0>         0.1469
     27 O1          5.6099   -1.3632   -1.0073 O.3       1 <0>        -0.3460
     28 C23         0.6810   -5.5298    0.1434 C.2       1 <0>         0.5845
     29 O2          0.9125   -6.7210    0.2072 O.2       1 <0>        -0.4593
     30 N3         -0.5403   -4.9703    0.0777 N.am      1 <0>        -0.6809
     31 C24        -0.4518   -3.6300    0.0158 C.2       1 <0>         0.5844
     32 O3         -1.3895   -2.8600   -0.0503 O.2       1 <0>        -0.4594
     33 H3         -0.9673    1.8927    0.0260 H         1 <0>         0.1280
     34 H4          1.0802    3.2032    0.0148 H         1 <0>         0.1287
     35 H5          3.3041    2.1302   -0.0292 H         1 <0>         0.1326
     36 H6         -0.9103   -0.5820    0.0074 H         1 <0>         0.1488
     37 H7          3.1336   -7.3571    0.5453 H         1 <0>         0.1487
     38 H8          5.2763   -8.5680    0.8109 H         1 <0>         0.1281
     39 H9          7.4042   -7.3931    0.7721 H         1 <0>         0.1288
     40 H10         7.5270   -4.9470    0.4554 H         1 <0>         0.1327
     41 H11         6.2910    0.5200    1.2056 H         1 <0>         0.1044
     42 H12         4.8615   -0.2817    1.9242 H         1 <0>         0.0950
     43 H13         7.4646   -1.4524    1.3414 H         1 <0>         0.1048
     44 H14         6.0342   -2.2548    2.0575 H         1 <0>         0.0953
     45 H15        -1.3733   -5.4672    0.0749 H         1 <0>         0.4317
@<TRIPOS>BOND
     1    1    6 ar
     2    1    2 ar
     3    1   33 1
     4    2    3 ar
     5    2   34 1
     6    3    4 ar
     7    3   35 1
     8    4   20 1
     9    4    5 ar
    10    5    6 ar
    11    5    7 1
    12    6   36 1
    13    7   19 ar
    14    7    8 ar
    15    8   31 1
    16    8    9 ar
    17    9   10 ar
    18    9   28 1
    19   10   18 ar
    20   10   11 1
    21   11   16 ar
    22   11   12 ar
    23   12   13 ar
    24   12   37 1
    25   13   14 ar
    26   13   38 1
    27   14   15 ar
    28   14   39 1
    29   15   16 ar
    30   15   40 1
    31   16   17 1
    32   17   25 1
    33   17   18 1
    34   18   19 ar
    35   19   20 1
    36   20   21 1
    37   21   22 1
    38   21   27 1
    39   21   23 1
    40   23   24 1
    41   23   41 1
    42   23   42 1
    43   24   25 1
    44   24   43 1
    45   24   44 1
    46   25   26 1
    47   25   27 1
    48   28   29 2
    49   28   30 am
    50   30   31 am
    51   30   45 1
    52   31   32 2
@<TRIPOS>MOLECULE
ZINC03873287
   50    53     0     0     0
SMALL
USER_CHARGES

@<TRIPOS>ATOM
      1 C1          1.0640   -0.4441   -0.7878 C.ar      1 <0>        -0.1410
      2 C2          2.2473    0.2676   -0.8051 C.ar      1 <0>        -0.0006
      3 C3          2.3751    1.4182   -0.0486 C.ar      1 <0>        -0.6984
      4 C4          1.3192    1.8600    0.7275 C.ar      1 <0>         0.0094
      5 C5          0.1332    1.1527    0.7497 C.ar      1 <0>        -0.1704
      6 C6          0.0014   -0.0032   -0.0094 C.ar      1 <0>         0.2324
      7 N1         -1.1980   -0.7210    0.0101 N.pl3     1 <0>        -0.6339
      8 C7         -1.1808   -2.1027   -0.1021 C.ar      1 <0>         0.6156
      9 N2         -2.3307   -2.7504   -0.1982 N.ar      1 <0>        -0.5803
     10 C8         -2.3525   -4.0741   -0.3076 C.ar      1 <0>         0.3394
     11 C9         -1.1370   -4.7803   -0.3202 C.ar      1 <0>        -0.1015
     12 C10         0.0574   -4.0511   -0.2158 C.ar      1 <0>         0.4739
     13 N3         -0.0115   -2.7302   -0.1151 N.ar      1 <0>        -0.6058
     14 O1          1.2559   -4.6825   -0.2224 O.3       1 <0>        -0.2730
     15 C11         2.4214   -3.8631   -0.1117 C.3       1 <0>         0.0667
     16 C12         3.6703   -4.7467   -0.1370 C.3       1 <0>        -0.0863
     17 C13         3.6862   -5.6428    1.1030 C.3       1 <0>        -0.1150
     18 C14         4.9350   -6.5264    1.0776 C.3       1 <0>        -0.1192
     19 C15         6.1845   -5.6434    1.0704 C.3       1 <0>        -0.1224
     20 C16         6.1685   -4.7473   -0.1696 C.3       1 <0>        -0.1175
     21 C17         4.9197   -3.8637   -0.1443 C.3       1 <0>        -0.1128
     22 N4         -1.4413   -6.0963   -0.4395 N.2       1 <0>        -0.4434
     23 C18        -2.7329   -6.2385   -0.4993 C.2       1 <0>         0.2546
     24 N5         -3.3404   -5.0194   -0.4220 N.pl3     1 <0>        -0.5790
     25 H1         -4.2955   -4.8516   -0.4439 H         1 <0>         0.4341
     26 S1          3.8869    2.3230   -0.0731 S.o2      1 <0>         2.7018
     27 O2          3.9389    3.0598    1.1409 O.2       1 <0>        -0.9640
     28 O3          4.9035    1.4050   -0.4512 O.2       1 <0>        -0.9607
     29 N6          3.7731    3.4335   -1.2963 N.pl3     1 <0>        -1.2490
     30 H2          0.9633   -1.3401   -1.3823 H         1 <0>         0.1431
     31 H3          3.0740   -0.0749   -1.4098 H         1 <0>         0.1446
     32 H4          1.4223    2.7589    1.3171 H         1 <0>         0.1468
     33 H5         -0.6908    1.4978    1.3565 H         1 <0>         0.1381
     34 H6         -2.0423   -0.2524    0.1021 H         1 <0>         0.4303
     35 H7          2.4544   -3.1635   -0.9469 H         1 <0>         0.0726
     36 H8          2.3879   -3.3083    0.8259 H         1 <0>         0.0738
     37 H9          3.6584   -5.3669   -1.0334 H         1 <0>         0.0830
     38 H10         3.6980   -5.0227    1.9993 H         1 <0>         0.0614
     39 H11         2.7961   -6.2719    1.1081 H         1 <0>         0.0692
     40 H12         4.9464   -7.1648    1.9610 H         1 <0>         0.0623
     41 H13         4.9232   -7.1466    0.1813 H         1 <0>         0.0626
     42 H14         6.1963   -5.0233    1.9667 H         1 <0>         0.0620
     43 H15         7.0741   -6.2729    1.0524 H         1 <0>         0.0618
     44 H16         7.0587   -4.1182   -0.1747 H         1 <0>         0.0663
     45 H17         6.1567   -5.3675   -1.0659 H         1 <0>         0.0630
     46 H18         4.9084   -3.2253   -1.0277 H         1 <0>         0.0678
     47 H19         4.9315   -3.2436    0.7521 H         1 <0>         0.0678
     48 H20        -3.2485   -7.1825   -0.5967 H         1 <0>         0.2311
     49 H21         4.2460    4.2778   -1.2303 H         1 <0>         0.4215
     50 H22         3.2336    3.2396   -2.0787 H         1 <0>         0.4170
@<TRIPOS>BOND
     1    1    6 ar
     2    1    2 ar
     3    1   30 1
     4    2    3 ar
     5    2   31 1
     6    3    4 ar
     7    3   26 1
     8    4    5 ar
     9    4   32 1
    10    5    6 ar
    11    5   33 1
    12    6    7 1
    13    7    8 1
    14    7   34 1
    15    8   13 ar
    16    8    9 ar
    17    9   10 ar
    18   10   24 1
    19   10   11 ar
    20   11   12 ar
    21   11   22 1
    22   12   13 ar
    23   12   14 1
    24   14   15 1
    25   15   16 1
    26   15   35 1
    27   15   36 1
    28   16   21 1
    29   16   17 1
    30   16   37 1
    31   17   18 1
    32   17   38 1
    33   17   39 1
    34   18   19 1
    35   18   40 1
    36   18   41 1
    37   19   20 1
    38   19   42 1
    39   19   43 1
    40   20   21 1
    41   20   44 1
    42   20   45 1
    43   21   46 1
    44   21   47 1
    45   22   23 2
    46   23   24 1
    47   23   48 1
    48   24   25 1
    49   26   27 2
    50   26   28 2
    51   26   29 1
    52   29   49 1
    53   29   50 1
@<TRIPOS>MOLECULE
ZINC13580862
   34    37     0     0     0
SMALL
USER_CHARGES

@<TRIPOS>ATOM
      1 C1         -0.0164    1.3616    0.0095 C.ar      1 <0>        -0.1568
      2 C2          1.1701    2.0826    0.0021 C.ar      1 <0>        -0.0943
      3 C3          2.3839    1.4335   -0.0114 C.ar      1 <0>        -0.1397
      4 C4          2.4279    0.0416   -0.0160 C.ar      1 <0>         0.1068
      5 C5          1.2201   -0.6857   -0.0118 C.ar      1 <0>        -0.0636
      6 C6          0.0021   -0.0041    0.0020 C.ar      1 <0>        -0.0311
      7 C7          1.5998   -2.0957   -0.0246 C.2       1 <0>        -0.0103
      8 C8          2.9976   -2.1314    0.0009 C.2       1 <0>        -0.0027
      9 N1          3.4750   -0.8572   -0.0263 N.pl3     1 <0>        -0.5583
     10 H1          4.4143   -0.6161   -0.0496 H         1 <0>         0.4147
     11 C9          3.7166   -3.4155    0.1011 C.2       1 <0>         0.6050
     12 O1          4.6730   -3.5468    0.8418 O.2       1 <0>        -0.5339
     13 N2          3.2717   -4.4452   -0.6632 N.am      1 <0>        -0.7165
     14 C10         2.3631   -4.2092   -1.7752 C.3       1 <0>         0.1179
     15 C11         0.8937   -4.1436   -1.3483 C.3       1 <0>        -0.0809
     16 C12         0.7762   -3.3011   -0.0939 C.2       1 <0>        -0.1249
     17 C13        -0.0591   -3.6520    0.9234 C.2       1 <0>         0.1038
     18 C14        -0.2770   -2.9332    2.1846 C.2       1 <0>         0.4611
     19 O2          0.3200   -1.7809    2.5644 O.3       1 <0>        -0.6166
     20 N3         -1.1620   -3.6190    2.8767 N.2       1 <0>        -0.6256
     21 C15        -1.5457   -4.7115    2.1993 C.2       1 <0>         0.5794
     22 N4         -0.8952   -4.7692    0.9859 N.pl3     1 <0>        -0.7326
     23 N5         -2.4175   -5.5935    2.6273 N.2       1 <0>        -0.7934
     24 H2         -0.9612    1.8845    0.0259 H         1 <0>         0.1183
     25 H3          1.1404    3.1622    0.0065 H         1 <0>         0.1205
     26 H4          3.3013    2.0033   -0.0188 H         1 <0>         0.1156
     27 H5         -0.9258   -0.5566    0.0071 H         1 <0>         0.1160
     28 H6          3.5626   -5.3493   -0.4656 H         1 <0>         0.4040
     29 H7          2.6315   -3.2670   -2.2531 H         1 <0>         0.0751
     30 H8          2.4814   -5.0136   -2.5012 H         1 <0>         0.0826
     31 H9          0.3026   -3.6934   -2.1458 H         1 <0>         0.0832
     32 H10         0.5278   -5.1503   -1.1465 H         1 <0>         0.0637
     33 H11        -0.9968   -5.4546    0.3070 H         1 <0>         0.3993
     34 H12        -2.6425   -6.3597    2.0767 H         1 <0>         0.3141
@<TRIPOS>BOND
     1    1    6 ar
     2    1    2 ar
     3    1   24 1
     4    2    3 ar
     5    2   25 1
     6    3    4 ar
     7    3   26 1
     8    4    9 1
     9    4    5 ar
    10    5    6 ar
    11    5    7 1
    12    6   27 1
    13    7   16 1
    14    7    8 2
    15    8    9 1
    16    8   11 1
    17    9   10 1
    18   11   12 2
    19   11   13 am
    20   13   14 1
    21   13   28 1
    22   14   15 1
    23   14   29 1
    24   14   30 1
    25   15   16 1
    26   15   31 1
    27   15   32 1
    28   16   17 2
    29   17   22 1
    30   17   18 1
    31   18   19 1
    32   18   20 2
    33   20   21 1
    34   21   22 1
    35   21   23 2
    36   22   33 1
    37   23   34 1
@<TRIPOS>MOLECULE
ZINC13580862
   35    38     0     0     0
SMALL
USER_CHARGES

@<TRIPOS>ATOM
      1 C1         -0.0164    1.3616    0.0095 C.ar      1 <0>        -0.1343
      2 C2          1.1701    2.0828    0.0021 C.ar      1 <0>        -0.0896
      3 C3          2.3839    1.4337   -0.0123 C.ar      1 <0>        -0.1230
      4 C4          2.4280    0.0419   -0.0181 C.ar      1 <0>         0.1037
      5 C5          1.2200   -0.6856   -0.0124 C.ar      1 <0>        -0.0867
      6 C6          0.0021   -0.0041    0.0020 C.ar      1 <0>        -0.0711
      7 C7          1.6004   -2.0952   -0.0247 C.2       1 <0>        -0.1173
      8 C8          2.9975   -2.1301   -0.0021 C.2       1 <0>         0.0496
      9 N1          3.4746   -0.8574   -0.0312 N.pl3     1 <0>        -0.5456
     10 H1          4.4138   -0.6165   -0.0576 H         1 <0>         0.4254
     11 C9          3.7172   -3.4156    0.0981 C.2       1 <0>         0.5915
     12 O1          4.6750   -3.5459    0.8367 O.2       1 <0>        -0.5186
     13 N2          3.2708   -4.4465   -0.6635 N.am      1 <0>        -0.7114
     14 C10         2.3605   -4.2128   -1.7747 C.3       1 <0>         0.1119
     15 C11         0.8920   -4.1471   -1.3455 C.3       1 <0>        -0.1049
     16 C12         0.7767   -3.3024   -0.0905 C.2       1 <0>         0.0208
     17 C13        -0.0540   -3.6515    0.9268 C.2       1 <0>        -0.0037
     18 C14        -0.9343   -4.8342    1.0059 C.2       1 <0>         0.5400
     19 O2         -1.0659   -5.7065    0.1629 O.2       1 <0>        -0.4699
     20 N3         -1.5593   -4.7585    2.1891 N.2       1 <0>        -0.6424
     21 C15        -1.1761   -3.6839    2.8438 C.2       1 <0>         0.6564
     22 N4         -0.2590   -2.9736    2.1312 N.pl3     1 <0>        -0.6643
     23 N5         -1.6360   -3.3285    4.0823 N.pl3     1 <0>        -0.8045
     24 H2         -0.9612    1.8845    0.0259 H         1 <0>         0.1279
     25 H3          1.1404    3.1624    0.0072 H         1 <0>         0.1316
     26 H4          3.3013    2.0035   -0.0195 H         1 <0>         0.1265
     27 H5         -0.9258   -0.5567    0.0073 H         1 <0>         0.1227
     28 H6          3.5624   -5.3500   -0.4649 H         1 <0>         0.4132
     29 H7          2.6277   -3.2713   -2.2546 H         1 <0>         0.0772
     30 H8          2.4781   -5.0184   -2.4994 H         1 <0>         0.0992
     31 H9          0.2993   -3.6983   -2.1426 H         1 <0>         0.1051
     32 H10         0.5268   -5.1537   -1.1417 H         1 <0>         0.1090
     33 H11         0.1708   -2.1491    2.4074 H         1 <0>         0.4254
     34 H12        -2.2886   -3.8851    4.5354 H         1 <0>         0.4332
     35 H13        -1.3094   -2.5201    4.5073 H         1 <0>         0.4168
@<TRIPOS>BOND
     1    1    6 ar
     2    1    2 ar
     3    1   24 1
     4    2    3 ar
     5    2   25 1
     6    3    4 ar
     7    3   26 1
     8    4    9 1
     9    4    5 ar
    10    5    6 ar
    11    5    7 1
    12    6   27 1
    13    7   16 1
    14    7    8 2
    15    8    9 1
    16    8   11 1
    17    9   10 1
    18   11   12 2
    19   11   13 am
    20   13   14 1
    21   13   28 1
    22   14   15 1
    23   14   29 1
    24   14   30 1
    25   15   16 1
    26   15   31 1
    27   15   32 1
    28   16   17 2
    29   17   22 1
    30   17   18 1
    31   18   19 2
    32   18   20 1
    33   20   21 2
    34   21   22 1
    35   21   23 1
    36   22   33 1
    37   23   34 1
    38   23   35 1
@<TRIPOS>MOLECULE
ZINC13580862
   34    37     0     0     0
SMALL
USER_CHARGES

@<TRIPOS>ATOM
      1 C1         -0.0164    1.3616    0.0095 C.ar      1 <0>        -0.1495
      2 C2          1.1701    2.0828    0.0021 C.ar      1 <0>        -0.0925
      3 C3          2.3839    1.4337   -0.0123 C.ar      1 <0>        -0.1344
      4 C4          2.4280    0.0419   -0.0181 C.ar      1 <0>         0.1053
      5 C5          1.2200   -0.6856   -0.0124 C.ar      1 <0>        -0.0962
      6 C6          0.0021   -0.0041    0.0020 C.ar      1 <0>        -0.0532
      7 C7          1.6004   -2.0952   -0.0247 C.2       1 <0>        -0.0481
      8 C8          2.9975   -2.1301   -0.0021 C.2       1 <0>         0.0087
      9 N1          3.4746   -0.8574   -0.0312 N.pl3     1 <0>        -0.5549
     10 H1          4.4138   -0.6165   -0.0576 H         1 <0>         0.4175
     11 C9          3.7172   -3.4156    0.0981 C.2       1 <0>         0.6012
     12 O1          4.6750   -3.5459    0.8367 O.2       1 <0>        -0.5370
     13 N2          3.2708   -4.4465   -0.6635 N.am      1 <0>        -0.7082
     14 C10         2.3605   -4.2128   -1.7747 C.3       1 <0>         0.1160
     15 C11         0.8920   -4.1471   -1.3455 C.3       1 <0>        -0.0808
     16 C12         0.7767   -3.3024   -0.0905 C.2       1 <0>        -0.1251
     17 C13        -0.0540   -3.6515    0.9268 C.2       1 <0>         0.0825
     18 C14        -0.9343   -4.8342    1.0059 C.2       1 <0>         0.5128
     19 O2         -1.0659   -5.7065    0.1629 O.2       1 <0>        -0.5579
     20 N3         -1.5593   -4.7585    2.1891 N.2       1 <0>        -0.7159
     21 C15        -1.1761   -3.6839    2.8438 C.2       1 <0>         0.5690
     22 N4         -0.2590   -2.9736    2.1312 N.pl3     1 <0>        -0.6693
     23 N5         -1.6360   -3.3285    4.0823 N.2       1 <0>        -0.8523
     24 H2         -0.9612    1.8845    0.0259 H         1 <0>         0.1227
     25 H3          1.1404    3.1624    0.0072 H         1 <0>         0.1245
     26 H4          3.3013    2.0035   -0.0195 H         1 <0>         0.1193
     27 H5         -0.9258   -0.5567    0.0073 H         1 <0>         0.1234
     28 H6          3.5624   -5.3500   -0.4649 H         1 <0>         0.4073
     29 H7          2.6277   -3.2713   -2.2546 H         1 <0>         0.0683
     30 H8          2.4781   -5.0184   -2.4994 H         1 <0>         0.0854
     31 H9          0.2993   -3.6983   -2.1426 H         1 <0>         0.0798
     32 H10         0.5268   -5.1537   -1.1417 H         1 <0>         0.1019
     33 H11         0.1708   -2.1491    2.4074 H         1 <0>         0.4080
     34 H12        -2.2886   -3.8851    4.5354 H         1 <0>         0.3215
@<TRIPOS>BOND
     1    1    6 ar
     2    1    2 ar
     3    1   24 1
     4    2    3 ar
     5    2   25 1
     6    3    4 ar
     7    3   26 1
     8    4    9 1
     9    4    5 ar
    10    5    6 ar
    11    5    7 1
    12    6   27 1
    13    7   16 1
    14    7    8 2
    15    8    9 1
    16    8   11 1
    17    9   10 1
    18   11   12 2
    19   11   13 am
    20   13   14 1
    21   13   28 1
    22   14   15 1
    23   14   29 1
    24   14   30 1
    25   15   16 1
    26   15   31 1
    27   15   32 1
    28   16   17 2
    29   17   22 1
    30   17   18 1
    31   18   19 2
    32   18   20 1
    33   20   21 2
    34   21   22 1
    35   21   23 1
    36   22   33 1
    37   23   34 1
@<TRIPOS>MOLECULE
ZINC13580862
   34    37     0     0     0
SMALL
USER_CHARGES

@<TRIPOS>ATOM
      1 C1         -0.0164    1.3616    0.0095 C.ar      1 <0>        -0.1551
      2 C2          1.1701    2.0828    0.0021 C.ar      1 <0>        -0.0941
      3 C3          2.3839    1.4337   -0.0123 C.ar      1 <0>        -0.1381
      4 C4          2.4280    0.0419   -0.0181 C.ar      1 <0>         0.1061
      5 C5          1.2200   -0.6856   -0.0124 C.ar      1 <0>        -0.0710
      6 C6          0.0021   -0.0041    0.0020 C.ar      1 <0>        -0.0369
      7 C7          1.6004   -2.0952   -0.0247 C.2       1 <0>        -0.0149
      8 C8          2.9975   -2.1301   -0.0021 C.2       1 <0>        -0.0003
      9 N1          3.4746   -0.8574   -0.0312 N.pl3     1 <0>        -0.5571
     10 H1          4.4138   -0.6165   -0.0576 H         1 <0>         0.4154
     11 C9          3.7172   -3.4156    0.0981 C.2       1 <0>         0.6044
     12 O1          4.6750   -3.5459    0.8367 O.2       1 <0>        -0.5344
     13 N2          3.2708   -4.4465   -0.6635 N.am      1 <0>        -0.7147
     14 C10         2.3605   -4.2128   -1.7747 C.3       1 <0>         0.1176
     15 C11         0.8920   -4.1471   -1.3455 C.3       1 <0>        -0.0808
     16 C12         0.7767   -3.3024   -0.0905 C.2       1 <0>        -0.1328
     17 C13        -0.0540   -3.6515    0.9268 C.2       1 <0>         0.0841
     18 C14        -0.2754   -2.9318    2.1968 C.2       1 <0>         0.5077
     19 O2          0.2554   -1.8917    2.5509 O.2       1 <0>        -0.5381
     20 N3         -1.1765   -3.6488    2.8826 N.2       1 <0>        -0.7200
     21 C15        -1.5350   -4.7131    2.1976 C.2       1 <0>         0.5694
     22 N4         -0.8916   -4.7675    0.9991 N.pl3     1 <0>        -0.6726
     23 N5         -2.4406   -5.6422    2.6314 N.2       1 <0>        -0.8579
     24 H2         -0.9612    1.8845    0.0259 H         1 <0>         0.1192
     25 H3          1.1404    3.1624    0.0072 H         1 <0>         0.1216
     26 H4          3.3013    2.0035   -0.0195 H         1 <0>         0.1166
     27 H5         -0.9258   -0.5567    0.0073 H         1 <0>         0.1172
     28 H6          3.5624   -5.3500   -0.4649 H         1 <0>         0.4049
     29 H7          2.6277   -3.2713   -2.2546 H         1 <0>         0.0741
     30 H8          2.4781   -5.0184   -2.4994 H         1 <0>         0.0833
     31 H9          0.2993   -3.6983   -2.1426 H         1 <0>         0.0830
     32 H10         0.5268   -5.1537   -1.1417 H         1 <0>         0.0664
     33 H11        -0.9940   -5.4545    0.3220 H         1 <0>         0.4063
     34 H12        -2.8651   -5.5383    3.4973 H         1 <0>         0.3213
@<TRIPOS>BOND
     1    1    6 ar
     2    1    2 ar
     3    1   24 1
     4    2    3 ar
     5    2   25 1
     6    3    4 ar
     7    3   26 1
     8    4    9 1
     9    4    5 ar
    10    5    6 ar
    11    5    7 1
    12    6   27 1
    13    7   16 1
    14    7    8 2
    15    8    9 1
    16    8   11 1
    17    9   10 1
    18   11   12 2
    19   11   13 am
    20   13   14 1
    21   13   28 1
    22   14   15 1
    23   14   29 1
    24   14   30 1
    25   15   16 1
    26   15   31 1
    27   15   32 1
    28   16   17 2
    29   17   22 1
    30   17   18 1
    31   18   19 2
    32   18   20 1
    33   20   21 2
    34   21   22 1
    35   21   23 1
    36   22   33 1
    37   23   34 1
@<TRIPOS>MOLECULE
ZINC13580862
   35    38     0     0     0
SMALL
USER_CHARGES

@<TRIPOS>ATOM
      1 C1         -0.0164    1.3616    0.0095 C.ar      1 <0>        -0.1383
      2 C2          1.1701    2.0828    0.0021 C.ar      1 <0>        -0.0901
      3 C3          2.3839    1.4337   -0.0123 C.ar      1 <0>        -0.1266
      4 C4          2.4280    0.0419   -0.0181 C.ar      1 <0>         0.1046
      5 C5          1.2200   -0.6856   -0.0124 C.ar      1 <0>        -0.0646
      6 C6          0.0021   -0.0041    0.0020 C.ar      1 <0>        -0.0552
      7 C7          1.6004   -2.0952   -0.0247 C.2       1 <0>        -0.0884
      8 C8          2.9975   -2.1301   -0.0021 C.2       1 <0>         0.0410
      9 N1          3.4746   -0.8574   -0.0312 N.pl3     1 <0>        -0.5469
     10 H1          4.4138   -0.6165   -0.0576 H         1 <0>         0.4234
     11 C9          3.7172   -3.4156    0.0981 C.2       1 <0>         0.5951
     12 O1          4.6750   -3.5459    0.8367 O.2       1 <0>        -0.5149
     13 N2          3.2708   -4.4465   -0.6635 N.am      1 <0>        -0.7182
     14 C10         2.3605   -4.2128   -1.7747 C.3       1 <0>         0.1131
     15 C11         0.8920   -4.1471   -1.3455 C.3       1 <0>        -0.1026
     16 C12         0.7767   -3.3024   -0.0905 C.2       1 <0>         0.0118
     17 C13        -0.0540   -3.6515    0.9268 C.2       1 <0>        -0.0010
     18 C14        -0.2754   -2.9318    2.1968 C.2       1 <0>         0.5312
     19 O2          0.2554   -1.8917    2.5509 O.2       1 <0>        -0.4476
     20 N3         -1.1765   -3.6488    2.8826 N.2       1 <0>        -0.6417
     21 C15        -1.5350   -4.7131    2.1976 C.2       1 <0>         0.6536
     22 N4         -0.8916   -4.7675    0.9991 N.pl3     1 <0>        -0.6693
     23 N5         -2.4406   -5.6422    2.6314 N.pl3     1 <0>        -0.8057
     24 H2         -0.9612    1.8845    0.0259 H         1 <0>         0.1253
     25 H3          1.1404    3.1624    0.0072 H         1 <0>         0.1293
     26 H4          3.3013    2.0035   -0.0195 H         1 <0>         0.1242
     27 H5         -0.9258   -0.5567    0.0073 H         1 <0>         0.1167
     28 H6          3.5624   -5.3500   -0.4649 H         1 <0>         0.4100
     29 H7          2.6277   -3.2713   -2.2546 H         1 <0>         0.0824
     30 H8          2.4781   -5.0184   -2.4994 H         1 <0>         0.0958
     31 H9          0.2993   -3.6983   -2.1426 H         1 <0>         0.1056
     32 H10         0.5268   -5.1537   -1.1417 H         1 <0>         0.0754
     33 H11        -0.9940   -5.4545    0.3220 H         1 <0>         0.4235
     34 H12        -2.8651   -5.5383    3.4973 H         1 <0>         0.4331
     35 H13        -2.6582   -6.4049    2.0729 H         1 <0>         0.4161
@<TRIPOS>BOND
     1    1    6 ar
     2    1    2 ar
     3    1   24 1
     4    2    3 ar
     5    2   25 1
     6    3    4 ar
     7    3   26 1
     8    4    9 1
     9    4    5 ar
    10    5    6 ar
    11    5    7 1
    12    6   27 1
    13    7   16 1
    14    7    8 2
    15    8    9 1
    16    8   11 1
    17    9   10 1
    18   11   12 2
    19   11   13 am
    20   13   14 1
    21   13   28 1
    22   14   15 1
    23   14   29 1
    24   14   30 1
    25   15   16 1
    26   15   31 1
    27   15   32 1
    28   16   17 2
    29   17   22 1
    30   17   18 1
    31   18   19 2
    32   18   20 1
    33   20   21 2
    34   21   22 1
    35   21   23 1
    36   22   33 1
    37   23   34 1
    38   23   35 1
@<TRIPOS>MOLECULE
ZINC17175232
   28    30     0     0     0
SMALL
USER_CHARGES

@<TRIPOS>ATOM
      1 C1         -0.0163    1.3518    0.0095 C.2       1 <0>        -0.1320
      2 C2          1.3148    1.7902   -0.0009 C.2       1 <0>        -0.0473
      3 C3          2.1177    0.6382   -0.0541 C.2       1 <0>        -0.0284
      4 N1          1.2938   -0.4402   -0.0184 N.pl3     1 <0>        -0.4947
      5 H1          1.5772   -1.3679   -0.0093 H         1 <0>         0.4228
      6 C4          0.0021   -0.0041    0.0020 C.2       1 <0>         0.0135
      7 Br1        -1.5265   -1.1172    0.0181 Br        1 <0>         0.0029
      8 C5          3.5766    0.7389   -0.1870 C.2       1 <0>         0.6051
      9 O1          4.1929    0.0169   -0.9490 O.2       1 <0>        -0.5408
     10 N2          4.2121    1.6686    0.5723 N.am      1 <0>        -0.7065
     11 C6          3.5429    2.2863    1.7070 C.3       1 <0>         0.1163
     12 C7          2.6757    3.4872    1.3174 C.3       1 <0>        -0.0871
     13 C8          1.8765    3.1423    0.0746 C.2       1 <0>        -0.1143
     14 C9          1.6898    4.0463   -0.9242 C.2       1 <0>         0.1008
     15 C10         2.1957    5.4237   -0.9853 C.2       1 <0>         0.4669
     16 O2          2.9467    6.0446   -0.0478 O.3       1 <0>        -0.6390
     17 N3          1.7827    5.9409   -2.1226 N.2       1 <0>        -0.6194
     18 C11         1.0592    5.0459   -2.8124 C.2       1 <0>         0.5785
     19 N4          0.9806    3.8605   -2.1141 N.pl3     1 <0>        -0.7302
     20 N5          0.5113    5.2654   -3.9838 N.2       1 <0>        -0.7896
     21 H2         -0.8955    1.9789    0.0252 H         1 <0>         0.1528
     22 H3          5.1227    1.9234    0.3559 H         1 <0>         0.4078
     23 H4          2.9112    1.5403    2.1892 H         1 <0>         0.0663
     24 H5          4.2974    2.6164    2.4210 H         1 <0>         0.0851
     25 H6          1.9946    3.7249    2.1345 H         1 <0>         0.0799
     26 H7          3.3144    4.3465    1.1128 H         1 <0>         0.1130
     27 H8          0.5205    3.0537   -2.3935 H         1 <0>         0.4017
     28 H9          0.0011    4.5649   -4.4195 H         1 <0>         0.3159
@<TRIPOS>BOND
     1    1    6 2
     2    1    2 1
     3    1   21 1
     4    2   13 1
     5    2    3 2
     6    3    4 1
     7    3    8 1
     8    4    5 1
     9    4    6 1
    10    6    7 1
    11    8    9 2
    12    8   10 am
    13   10   11 1
    14   10   22 1
    15   11   12 1
    16   11   23 1
    17   11   24 1
    18   12   13 1
    19   12   25 1
    20   12   26 1
    21   13   14 2
    22   14   19 1
    23   14   15 1
    24   15   16 1
    25   15   17 2
    26   17   18 1
    27   18   19 1
    28   18   20 2
    29   19   27 1
    30   20   28 1
@<TRIPOS>MOLECULE
ZINC17175232
   28    30     0     0     0
SMALL
USER_CHARGES

@<TRIPOS>ATOM
      1 C1         -0.0163    1.3518    0.0095 C.2       1 <0>        -0.1303
      2 C2          1.3148    1.7902   -0.0009 C.2       1 <0>        -0.0482
      3 C3          2.1177    0.6382   -0.0541 C.2       1 <0>        -0.0280
      4 N1          1.2938   -0.4402   -0.0184 N.pl3     1 <0>        -0.4947
      5 H1          1.5772   -1.3679   -0.0093 H         1 <0>         0.4228
      6 C4          0.0021   -0.0041    0.0020 C.2       1 <0>         0.0141
      7 Br1        -1.5265   -1.1172    0.0181 Br        1 <0>         0.0028
      8 C5          3.5766    0.7389   -0.1870 C.2       1 <0>         0.6054
      9 O1          4.1929    0.0169   -0.9490 O.2       1 <0>        -0.5403
     10 N2          4.2121    1.6686    0.5723 N.am      1 <0>        -0.7071
     11 C6          3.5429    2.2863    1.7070 C.3       1 <0>         0.1165
     12 C7          2.6757    3.4872    1.3174 C.3       1 <0>        -0.0863
     13 C8          1.8765    3.1423    0.0746 C.2       1 <0>        -0.1135
     14 C9          1.6898    4.0463   -0.9242 C.2       1 <0>         0.1071
     15 C10         2.1957    5.4237   -0.9853 C.2       1 <0>         0.4664
     16 O2          2.9467    6.0446   -0.0478 O.3       1 <0>        -0.6433
     17 N3          1.7827    5.9409   -2.1226 N.2       1 <0>        -0.6748
     18 C11         1.0592    5.0459   -2.8124 C.2       1 <0>         0.5688
     19 N4          0.9806    3.8605   -2.1141 N.pl3     1 <0>        -0.6803
     20 N5          0.5113    5.2654   -3.9838 N.2       1 <0>        -0.8118
     21 H2         -0.8955    1.9789    0.0252 H         1 <0>         0.1537
     22 H3          5.1227    1.9234    0.3559 H         1 <0>         0.4075
     23 H4          2.9112    1.5403    2.1892 H         1 <0>         0.0668
     24 H5          4.2974    2.6164    2.4210 H         1 <0>         0.0848
     25 H6          1.9946    3.7249    2.1345 H         1 <0>         0.0802
     26 H7          3.3144    4.3465    1.1128 H         1 <0>         0.1125
     27 H8          0.6165    6.1282   -4.4144 H         1 <0>         0.3376
     28 H9          0.5205    3.0537   -2.3935 H         1 <0>         0.4116
@<TRIPOS>BOND
     1    1    6 2
     2    1    2 1
     3    1   21 1
     4    2   13 1
     5    2    3 2
     6    3    4 1
     7    3    8 1
     8    4    5 1
     9    4    6 1
    10    6    7 1
    11    8    9 2
    12    8   10 am
    13   10   11 1
    14   10   22 1
    15   11   12 1
    16   11   23 1
    17   11   24 1
    18   12   13 1
    19   12   25 1
    20   12   26 1
    21   13   14 2
    22   14   19 1
    23   14   15 1
    24   15   16 1
    25   15   17 2
    26   17   18 1
    27   18   19 1
    28   18   20 2
    29   19   28 1
    30   20   27 1
@<TRIPOS>MOLECULE
ZINC17175232
   28    30     0     0     0
SMALL
USER_CHARGES

@<TRIPOS>ATOM
      1 C1         -0.0163    1.3522    0.0095 C.2       1 <0>        -0.1304
      2 C2          1.3145    1.7899   -0.0009 C.2       1 <0>        -0.0459
      3 C3          2.1168    0.6384   -0.0541 C.2       1 <0>        -0.0300
      4 N1          1.2937   -0.4395   -0.0184 N.pl3     1 <0>        -0.4944
      5 H1          1.5775   -1.3670   -0.0089 H         1 <0>         0.4225
      6 C4          0.0021   -0.0041    0.0020 C.2       1 <0>         0.0140
      7 Br1        -1.5262   -1.1176    0.0181 Br        1 <0>         0.0029
      8 C5          3.5767    0.7391   -0.1874 C.2       1 <0>         0.6062
      9 O1          4.1928    0.0172   -0.9493 O.2       1 <0>        -0.5393
     10 N2          4.2125    1.6688    0.5718 N.am      1 <0>        -0.7083
     11 C6          3.5436    2.2865    1.7066 C.3       1 <0>         0.1168
     12 C7          2.6766    3.4877    1.3173 C.3       1 <0>        -0.0808
     13 C8          1.8770    3.1431    0.0747 C.2       1 <0>        -0.1250
     14 C9          1.6904    4.0451   -0.9215 C.2       1 <0>         0.0817
     15 C10         2.1965    5.4312   -0.9893 C.2       1 <0>         0.5130
     16 O2          2.8748    6.0047   -0.1528 O.2       1 <0>        -0.5579
     17 N3          1.7619    5.9328   -2.1536 N.2       1 <0>        -0.7162
     18 C11         1.0563    5.0350   -2.8068 C.2       1 <0>         0.5692
     19 N4          0.9819    3.8661   -2.1131 N.pl3     1 <0>        -0.6705
     20 N5          0.4771    5.2468   -4.0277 N.2       1 <0>        -0.8527
     21 H2         -0.8954    1.9794    0.0253 H         1 <0>         0.1535
     22 H3          5.1230    1.9236    0.3550 H         1 <0>         0.4071
     23 H4          2.9118    1.5406    2.1889 H         1 <0>         0.0681
     24 H5          4.2983    2.6165    2.4205 H         1 <0>         0.0845
     25 H6          1.9957    3.7255    2.1345 H         1 <0>         0.0803
     26 H7          3.3154    4.3469    1.1126 H         1 <0>         0.1016
     27 H8          0.5214    3.0596   -2.3928 H         1 <0>         0.4083
     28 H9          0.5746    6.1055   -4.4684 H         1 <0>         0.3216
@<TRIPOS>BOND
     1    1    6 2
     2    1    2 1
     3    1   21 1
     4    2   13 1
     5    2    3 2
     6    3    4 1
     7    3    8 1
     8    4    5 1
     9    4    6 1
    10    6    7 1
    11    8    9 2
    12    8   10 am
    13   10   11 1
    14   10   22 1
    15   11   12 1
    16   11   23 1
    17   11   24 1
    18   12   13 1
    19   12   25 1
    20   12   26 1
    21   13   14 2
    22   14   19 1
    23   14   15 1
    24   15   16 2
    25   15   17 1
    26   17   18 2
    27   18   19 1
    28   18   20 1
    29   19   27 1
    30   20   28 1
@<TRIPOS>MOLECULE
ZINC17175232
   29    31     0     0     0
SMALL
USER_CHARGES

@<TRIPOS>ATOM
      1 C1         -0.0163    1.3522    0.0095 C.2       1 <0>        -0.1233
      2 C2          1.3145    1.7899   -0.0009 C.2       1 <0>        -0.1048
      3 C3          2.1168    0.6384   -0.0541 C.2       1 <0>        -0.0013
      4 N1          1.2937   -0.4395   -0.0184 N.pl3     1 <0>        -0.4850
      5 H1          1.5775   -1.3670   -0.0089 H         1 <0>         0.4308
      6 C4          0.0021   -0.0041    0.0020 C.2       1 <0>         0.0189
      7 Br1        -1.5262   -1.1176    0.0181 Br        1 <0>         0.0227
      8 C5          3.5767    0.7391   -0.1874 C.2       1 <0>         0.5973
      9 O1          4.1928    0.0172   -0.9493 O.2       1 <0>        -0.5214
     10 N2          4.2125    1.6688    0.5718 N.am      1 <0>        -0.7121
     11 C6          3.5436    2.2865    1.7066 C.3       1 <0>         0.1126
     12 C7          2.6766    3.4877    1.3173 C.3       1 <0>        -0.1046
     13 C8          1.8770    3.1431    0.0747 C.2       1 <0>         0.0171
     14 C9          1.6904    4.0451   -0.9215 C.2       1 <0>        -0.0013
     15 C10         2.1965    5.4312   -0.9893 C.2       1 <0>         0.5402
     16 O2          2.8748    6.0047   -0.1528 O.2       1 <0>        -0.4687
     17 N3          1.7619    5.9328   -2.1536 N.2       1 <0>        -0.6424
     18 C11         1.0563    5.0350   -2.8068 C.2       1 <0>         0.6571
     19 N4          0.9819    3.8661   -2.1131 N.pl3     1 <0>        -0.6656
     20 N5          0.4771    5.2468   -4.0277 N.pl3     1 <0>        -0.8040
     21 H2         -0.8954    1.9794    0.0253 H         1 <0>         0.1589
     22 H3          5.1230    1.9236    0.3550 H         1 <0>         0.4127
     23 H4          2.9118    1.5406    2.1889 H         1 <0>         0.0771
     24 H5          4.2983    2.6165    2.4205 H         1 <0>         0.0983
     25 H6          1.9957    3.7255    2.1345 H         1 <0>         0.1057
     26 H7          3.3154    4.3469    1.1126 H         1 <0>         0.1089
     27 H8          0.5214    3.0596   -2.3928 H         1 <0>         0.4258
     28 H9          0.5746    6.1055   -4.4684 H         1 <0>         0.4334
     29 H10        -0.0311    4.5384   -4.4529 H         1 <0>         0.4171
@<TRIPOS>BOND
     1    1    6 2
     2    1    2 1
     3    1   21 1
     4    2   13 1
     5    2    3 2
     6    3    4 1
     7    3    8 1
     8    4    5 1
     9    4    6 1
    10    6    7 1
    11    8    9 2
    12    8   10 am
    13   10   11 1
    14   10   22 1
    15   11   12 1
    16   11   23 1
    17   11   24 1
    18   12   13 1
    19   12   25 1
    20   12   26 1
    21   13   14 2
    22   14   19 1
    23   14   15 1
    24   15   16 2
    25   15   17 1
    26   17   18 2
    27   18   19 1
    28   18   20 1
    29   19   27 1
    30   20   28 1
    31   20   29 1
@<TRIPOS>MOLECULE
ZINC17175232
   29    31     0     0     0
SMALL
USER_CHARGES

@<TRIPOS>ATOM
      1 C1         -0.0163    1.3522    0.0095 C.2       1 <0>        -0.0939
      2 C2          1.3145    1.7899   -0.0009 C.2       1 <0>        -0.0817
      3 C3          2.1168    0.6384   -0.0541 C.2       1 <0>        -0.0085
      4 N1          1.2937   -0.4395   -0.0184 N.pl3     1 <0>        -0.4867
      5 H1          1.5775   -1.3670   -0.0089 H         1 <0>         0.4287
      6 C4          0.0021   -0.0041    0.0020 C.2       1 <0>         0.0190
      7 Br1        -1.5262   -1.1176    0.0181 Br        1 <0>         0.0181
      8 C5          3.5767    0.7391   -0.1874 C.2       1 <0>         0.6011
      9 O1          4.1928    0.0172   -0.9493 O.2       1 <0>        -0.5178
     10 N2          4.2125    1.6688    0.5718 N.am      1 <0>        -0.7188
     11 C6          3.5436    2.2865    1.7066 C.3       1 <0>         0.1140
     12 C7          2.6766    3.4877    1.3173 C.3       1 <0>        -0.1023
     13 C8          1.8770    3.1431    0.0747 C.2       1 <0>         0.0104
     14 C9          1.6904    4.0451   -0.9215 C.2       1 <0>         0.0011
     15 C10         0.9363    3.8581   -2.1778 C.2       1 <0>         0.5331
     16 O2          0.3478    2.8508   -2.5352 O.2       1 <0>        -0.4515
     17 N3          1.0276    5.0160   -2.8462 N.2       1 <0>        -0.6417
     18 C11         1.7387    5.8869   -2.1633 C.2       1 <0>         0.6550
     19 N4          2.1642    5.3588   -0.9829 N.pl3     1 <0>        -0.6695
     20 N5          2.0107    7.1602   -2.5824 N.pl3     1 <0>        -0.8051
     21 H2         -0.8954    1.9794    0.0253 H         1 <0>         0.1559
     22 H3          5.1230    1.9236    0.3550 H         1 <0>         0.4096
     23 H4          2.9118    1.5406    2.1889 H         1 <0>         0.0822
     24 H5          4.2983    2.6165    2.4205 H         1 <0>         0.0947
     25 H6          1.9957    3.7255    2.1345 H         1 <0>         0.1060
     26 H7          3.3154    4.3469    1.1126 H         1 <0>         0.0753
     27 H8          2.6983    5.8097   -0.3104 H         1 <0>         0.4239
     28 H9          1.6708    7.4730   -3.4354 H         1 <0>         0.4333
     29 H10         2.5433    7.7504   -2.0267 H         1 <0>         0.4164
@<TRIPOS>BOND
     1    1    6 2
     2    1    2 1
     3    1   21 1
     4    2   13 1
     5    2    3 2
     6    3    4 1
     7    3    8 1
     8    4    5 1
     9    4    6 1
    10    6    7 1
    11    8    9 2
    12    8   10 am
    13   10   11 1
    14   10   22 1
    15   11   12 1
    16   11   23 1
    17   11   24 1
    18   12   13 1
    19   12   25 1
    20   12   26 1
    21   13   14 2
    22   14   19 1
    23   14   15 1
    24   15   16 2
    25   15   17 1
    26   17   18 2
    27   18   19 1
    28   18   20 1
    29   19   27 1
    30   20   28 1
    31   20   29 1
@<TRIPOS>MOLECULE
ZINC17175232
   28    30     0     0     0
SMALL
USER_CHARGES

@<TRIPOS>ATOM
      1 C1         -0.0163    1.3522    0.0095 C.2       1 <0>        -0.0983
      2 C2          1.3145    1.7899   -0.0009 C.2       1 <0>        -0.0189
      3 C3          2.1168    0.6384   -0.0541 C.2       1 <0>        -0.0368
      4 N1          1.2937   -0.4395   -0.0184 N.pl3     1 <0>        -0.4973
      5 H1          1.5775   -1.3670   -0.0089 H         1 <0>         0.4202
      6 C4          0.0021   -0.0041    0.0020 C.2       1 <0>         0.0129
      7 Br1        -1.5262   -1.1176    0.0181 Br        1 <0>        -0.0030
      8 C5          3.5767    0.7391   -0.1874 C.2       1 <0>         0.6096
      9 O1          4.1928    0.0172   -0.9493 O.2       1 <0>        -0.5369
     10 N2          4.2125    1.6688    0.5718 N.am      1 <0>        -0.7148
     11 C6          3.5436    2.2865    1.7066 C.3       1 <0>         0.1186
     12 C7          2.6766    3.4877    1.3173 C.3       1 <0>        -0.0808
     13 C8          1.8770    3.1431    0.0747 C.2       1 <0>        -0.1306
     14 C9          1.6904    4.0451   -0.9215 C.2       1 <0>         0.0830
     15 C10         0.9363    3.8581   -2.1778 C.2       1 <0>         0.5087
     16 O2          0.3478    2.8508   -2.5352 O.2       1 <0>        -0.5423
     17 N3          1.0276    5.0160   -2.8462 N.2       1 <0>        -0.7196
     18 C11         1.7387    5.8869   -2.1633 C.2       1 <0>         0.5696
     19 N4          2.1642    5.3588   -0.9829 N.pl3     1 <0>        -0.6730
     20 N5          2.0107    7.1602   -2.5824 N.2       1 <0>        -0.8577
     21 H2         -0.8954    1.9794    0.0253 H         1 <0>         0.1497
     22 H3          5.1230    1.9236    0.3550 H         1 <0>         0.4047
     23 H4          2.9118    1.5406    2.1889 H         1 <0>         0.0739
     24 H5          4.2983    2.6165    2.4205 H         1 <0>         0.0821
     25 H6          1.9957    3.7255    2.1345 H         1 <0>         0.0832
     26 H7          3.3154    4.3469    1.1126 H         1 <0>         0.0659
     27 H8          2.6983    5.8097   -0.3104 H         1 <0>         0.4064
     28 H9          1.6708    7.4730   -3.4354 H         1 <0>         0.3214
@<TRIPOS>BOND
     1    1    6 2
     2    1    2 1
     3    1   21 1
     4    2   13 1
     5    2    3 2
     6    3    4 1
     7    3    8 1
     8    4    5 1
     9    4    6 1
    10    6    7 1
    11    8    9 2
    12    8   10 am
    13   10   11 1
    14   10   22 1
    15   11   12 1
    16   11   23 1
    17   11   24 1
    18   12   13 1
    19   12   25 1
    20   12   26 1
    21   13   14 2
    22   14   19 1
    23   14   15 1
    24   15   16 2
    25   15   17 1
    26   17   18 2
    27   18   19 1
    28   18   20 1
    29   19   27 1
    30   20   28 1
@<TRIPOS>MOLECULE
ZINC14949271
   58    63     0     0     0
SMALL
USER_CHARGES

@<TRIPOS>ATOM
      1 C1         -0.0167    1.3837    0.0096 C.ar      1 <0>        -0.0864
      2 C2          1.1589    2.1033    0.0023 C.ar      1 <0>        -0.1134
      3 C3          2.3783    1.4352   -0.0130 C.ar      1 <0>         0.1332
      4 C4          2.3928    0.0270   -0.0207 C.ar      1 <0>        -0.1099
      5 C5          1.1883   -0.6821   -0.0130 C.ar      1 <0>        -0.0281
      6 C6          0.0021   -0.0041    0.0020 C.ar      1 <0>        -0.1875
      7 C7         -1.2962   -0.7693    0.0103 C.3       1 <0>         0.0496
      8 N1         -1.7313   -1.0105   -1.3719 N.4       1 <0>        -0.3817
      9 C8         -2.0309    0.2721   -2.0198 C.3       1 <0>        -0.0119
     10 C9         -2.4066    0.0328   -3.4837 C.3       1 <0>        -0.1450
     11 C10        -3.6396   -0.8732   -3.5471 C.3       1 <0>        -0.1390
     12 C11        -3.3405   -2.1784   -2.8039 C.3       1 <0>        -0.1462
     13 C12        -2.9302   -1.8572   -1.3651 C.3       1 <0>        -0.0074
     14 C13         3.7999   -0.3686   -0.0367 C.2       1 <0>        -0.1486
     15 C14         4.5321    0.7741   -0.0378 C.2       1 <0>         0.1667
     16 N2          3.6887    1.8615   -0.0236 N.pl3     1 <0>        -0.5758
     17 H1          3.9737    2.7886   -0.0217 H         1 <0>         0.4245
     18 C15         6.0075    0.8405   -0.0511 C.2       1 <0>         0.1322
     19 C16         6.8242    1.8551   -0.7279 C.ar      1 <0>        -0.1584
     20 C17         6.5225    2.9777   -1.5043 C.ar      1 <0>        -0.0490
     21 C18         7.5281    3.7467   -2.0090 C.ar      1 <0>        -0.1242
     22 C19         8.8658    3.4211   -1.7565 C.ar      1 <0>         0.0481
     23 C20         9.1844    2.3108   -0.9887 C.ar      1 <0>        -0.1030
     24 C21         8.1657    1.5193   -0.4677 C.ar      1 <0>         0.1331
     25 N3          8.1516    0.3871    0.3077 N.pl3     1 <0>        -0.4911
     26 H2          8.9368   -0.0742    0.6418 H         1 <0>         0.4495
     27 N4          6.8272    0.0061    0.5450 N.2       1 <0>        -0.2036
     28 C22         9.9495    4.2685   -2.3139 C.2       1 <0>         0.0509
     29 C23         9.9550    4.9372   -3.5519 C.2       1 <0>         0.0222
     30 N5         11.1102    5.5565   -3.6181 N.2       1 <0>        -0.2567
     31 N6         11.7755    5.3155   -2.5450 N.pl3     1 <0>        -0.2337
     32 N7         11.1088    4.5575   -1.7486 N.2       1 <0>        -0.2641
     33 H3         12.6618    5.6631   -2.3587 H         1 <0>         0.4760
     34 C24         8.8608    4.9410   -4.5881 C.3       1 <0>         0.1618
     35 O1          7.9667    6.0261   -4.3326 O.3       1 <0>        -0.5649
     36 H4         -0.9624    1.9052    0.0260 H         1 <0>         0.1334
     37 H5          1.1330    3.1830    0.0080 H         1 <0>         0.1346
     38 H6          1.1952   -1.7620   -0.0192 H         1 <0>         0.1327
     39 H7         -1.1524   -1.7232    0.5177 H         1 <0>         0.1345
     40 H8         -2.0561   -0.1898    0.5346 H         1 <0>         0.1334
     41 H9         -2.8631    0.7528   -1.5055 H         1 <0>         0.1263
     42 H10        -1.1535    0.9170   -1.9711 H         1 <0>         0.1326
     43 H11        -2.6304    0.9861   -3.9625 H         1 <0>         0.1097
     44 H12        -1.5749   -0.4477   -3.9991 H         1 <0>         0.0861
     45 H13        -4.4852   -0.3715   -3.0767 H         1 <0>         0.0811
     46 H14        -3.8775   -1.0928   -4.5879 H         1 <0>         0.0924
     47 H15        -4.2319   -2.8057   -2.7968 H         1 <0>         0.1108
     48 H16        -2.5283   -2.7048   -3.3051 H         1 <0>         0.0868
     49 H17        -2.7168   -2.7843   -0.8331 H         1 <0>         0.1294
     50 H18        -3.7432   -1.3311   -0.8648 H         1 <0>         0.1278
     51 H19         4.1837   -1.3781   -0.0457 H         1 <0>         0.1603
     52 H20         5.4929    3.2353   -1.7043 H         1 <0>         0.1268
     53 H21         7.2912    4.6133   -2.6084 H         1 <0>         0.1472
     54 H22        10.2176    2.0620   -0.7964 H         1 <0>         0.1386
     55 H23         9.2993    5.0572   -5.5792 H         1 <0>         0.0720
     56 H24         8.3128    4.0000   -4.5412 H         1 <0>         0.0748
     57 H25         7.2356    6.0900   -4.9624 H         1 <0>         0.3892
     58 H26        -0.9941   -1.4770   -1.8789 H         1 <0>         0.4211
@<TRIPOS>BOND
     1    1    6 ar
     2    1    2 ar
     3    1   36 1
     4    2    3 ar
     5    2   37 1
     6    3   16 1
     7    3    4 ar
     8    4    5 ar
     9    4   14 1
    10    5    6 ar
    11    5   38 1
    12    6    7 1
    13    7    8 1
    14    7   39 1
    15    7   40 1
    16    8   13 1
    17    8    9 1
    18    8   58 1
    19    9   10 1
    20    9   41 1
    21    9   42 1
    22   10   11 1
    23   10   43 1
    24   10   44 1
    25   11   12 1
    26   11   45 1
    27   11   46 1
    28   12   13 1
    29   12   47 1
    30   12   48 1
    31   13   49 1
    32   13   50 1
    33   14   15 2
    34   14   51 1
    35   15   16 1
    36   15   18 1
    37   16   17 1
    38   18   27 2
    39   18   19 1
    40   19   24 ar
    41   19   20 ar
    42   20   21 ar
    43   20   52 1
    44   21   22 ar
    45   21   53 1
    46   22   23 ar
    47   22   28 1
    48   23   24 ar
    49   23   54 1
    50   24   25 1
    51   25   26 1
    52   25   27 1
    53   28   29 1
    54   28   32 2
    55   29   30 2
    56   29   34 1
    57   30   31 1
    58   31   33 1
    59   31   32 1
    60   34   35 1
    61   34   55 1
    62   34   56 1
    63   35   57 1
@<TRIPOS>MOLECULE
ZINC14949271
   59    64     0     0     0
SMALL
USER_CHARGES

@<TRIPOS>ATOM
      1 C1         -0.0168    1.3900    0.0097 C.ar      1 <0>        -0.0608
      2 C2          1.1285    2.1222    0.0027 C.ar      1 <0>        -0.1113
      3 C3          2.3737    1.4670   -0.0127 C.ar      1 <0>         0.1382
      4 N1          3.6383    1.8759   -0.0230 N.pl3     1 <0>        -0.4991
      5 C4          4.4713    0.8250   -0.0368 C.2       1 <0>         0.0288
      6 C5          5.9310    0.9116   -0.0500 C.2       1 <0>         0.3442
      7 C6          6.7269    2.1374   -0.0450 C.ar      1 <0>        -0.1770
      8 C7          6.3957    3.4983   -0.0289 C.ar      1 <0>        -0.0207
      9 C8          7.3825    4.4389   -0.0289 C.ar      1 <0>        -0.1142
     10 C9          8.7280    4.0539   -0.0455 C.ar      1 <0>         0.1259
     11 C10         9.0747    2.7053   -0.0617 C.ar      1 <0>        -0.1136
     12 C11         8.0817    1.7405   -0.0613 C.ar      1 <0>         0.2169
     13 N2          8.1113    0.3570   -0.0754 N.pl3     1 <0>        -0.4485
     14 N3          6.8019   -0.1345   -0.0632 N.pl3     1 <0>        -0.3621
     15 C12         9.7898    5.0874   -0.0463 C.2       1 <0>        -0.0263
     16 C13         9.7481    6.3075   -0.6615 C.2       1 <0>         0.0349
     17 N4         10.9303    6.9023   -0.3911 N.pl3     1 <0>        -0.3586
     18 N5         11.6341    6.1044    0.3320 N.2       1 <0>        -0.0476
     19 H1         11.2029    7.7832   -0.6920 H         1 <0>         0.4653
     20 N6         10.9878    5.0168    0.5635 N.2       1 <0>        -0.2320
     21 C14         8.6139    6.8735   -1.4765 C.3       1 <0>         0.1408
     22 O1          8.9676    8.1766   -1.9444 O.3       1 <0>        -0.5714
     23 C15         3.7386   -0.3654   -0.0359 C.2       1 <0>        -0.0711
     24 C16         2.3907   -0.0024   -0.0207 C.ar      1 <0>        -0.1307
     25 C17         1.1708   -0.6995   -0.0130 C.ar      1 <0>        -0.0095
     26 C18         0.0021   -0.0041    0.0020 C.ar      1 <0>        -0.1729
     27 C19        -1.3028   -0.7579    0.0104 C.3       1 <0>         0.0420
     28 N7         -1.7400   -0.9953   -1.3718 N.4       1 <0>        -0.3819
     29 C20        -2.0284    0.2897   -2.0198 C.3       1 <0>        -0.0124
     30 C21        -2.4061    0.0536   -3.4838 C.3       1 <0>        -0.1448
     31 C22        -3.6470   -0.8416   -3.5470 C.3       1 <0>        -0.1409
     32 C23        -3.3594   -2.1492   -2.8037 C.3       1 <0>        -0.1465
     33 C24        -2.9463   -1.8315   -1.3650 C.3       1 <0>        -0.0080
     34 H2         -0.9675    1.9022    0.0261 H         1 <0>         0.1437
     35 H3          1.0830    3.2013    0.0085 H         1 <0>         0.1465
     36 H4          5.3594    3.8022   -0.0167 H         1 <0>         0.1404
     37 H5          7.1243    5.4875   -0.0164 H         1 <0>         0.1589
     38 H6         10.1144    2.4130   -0.0744 H         1 <0>         0.1655
     39 H7          8.9145   -0.1867   -0.0886 H         1 <0>         0.4775
     40 H8          6.5537   -1.0722   -0.0655 H         1 <0>         0.4776
     41 H9          8.4183    6.2222   -2.3284 H         1 <0>         0.0851
     42 H10         7.7194    6.9402   -0.8572 H         1 <0>         0.0827
     43 H11         8.2824    8.6024   -2.4776 H         1 <0>         0.4055
     44 H12         4.1370   -1.3692   -0.0455 H         1 <0>         0.1711
     45 H13         1.1613   -1.7795   -0.0191 H         1 <0>         0.1441
     46 H14        -1.1674   -1.7130    0.5178 H         1 <0>         0.1395
     47 H15        -2.0577   -0.1717    0.5346 H         1 <0>         0.1396
     48 H16        -2.8563    0.7778   -1.5056 H         1 <0>         0.1297
     49 H17        -1.1454    0.9269   -1.9711 H         1 <0>         0.1281
     50 H18        -2.6216    1.0088   -3.9626 H         1 <0>         0.1117
     51 H19        -1.5787   -0.4342   -3.9991 H         1 <0>         0.0855
     52 H20        -4.4882   -0.3324   -3.0767 H         1 <0>         0.0833
     53 H21        -3.8868   -1.0591   -4.5879 H         1 <0>         0.0952
     54 H22        -4.2563   -2.7687   -2.7966 H         1 <0>         0.1143
     55 H23        -2.5518   -2.6828   -3.3049 H         1 <0>         0.0869
     56 H24        -2.7410   -2.7604   -0.8329 H         1 <0>         0.1314
     57 H25        -3.7547   -1.2983   -0.8647 H         1 <0>         0.1307
     58 H26         3.9194    2.8042   -0.0211 H         1 <0>         0.4300
     59 H27        -1.0070   -1.4684   -1.8788 H         1 <0>         0.4202
@<TRIPOS>BOND
     1    1   26 ar
     2    1    2 ar
     3    1   34 1
     4    2    3 ar
     5    2   35 1
     6    3   24 ar
     7    3    4 2
     8    4    5 1
     9    4   58 1
    10    5    6 2
    11    5   23 1
    12    6   14 1
    13    6    7 1
    14    7   12 ar
    15    7    8 ar
    16    8    9 ar
    17    8   36 1
    18    9   10 ar
    19    9   37 1
    20   10   11 ar
    21   10   15 1
    22   11   12 ar
    23   11   38 1
    24   12   13 1
    25   13   14 1
    26   13   39 1
    27   14   40 1
    28   15   16 2
    29   15   20 1
    30   16   21 1
    31   16   17 1
    32   17   19 1
    33   17   18 1
    34   18   20 2
    35   21   22 1
    36   21   41 1
    37   21   42 1
    38   22   43 1
    39   23   24 2
    40   23   44 1
    41   24   25 ar
    42   25   26 ar
    43   25   45 1
    44   26   27 1
    45   27   28 1
    46   27   46 1
    47   27   47 1
    48   28   33 1
    49   28   29 1
    50   28   59 1
    51   29   30 1
    52   29   48 1
    53   29   49 1
    54   30   31 1
    55   30   50 1
    56   30   51 1
    57   31   32 1
    58   31   52 1
    59   31   53 1
    60   32   33 1
    61   32   54 1
    62   32   55 1
    63   33   56 1
    64   33   57 1
@<TRIPOS>MOLECULE
ZINC33295958
   53    58     0     0     0
SMALL
USER_CHARGES
3-(1H-benzimidazol-2-yl)-6-chloro-4-[[(3S)-quinuclidin-3-yl]amino]-1H-quinolin-2-one
@<TRIPOS>ATOM
      1 C1          3.6113    3.6560    3.7541 C.ar      1 <0>        -0.1000
      2 C2          3.4953    3.5207    2.3781 C.ar      1 <0>        -0.1206
      3 C3          2.3320    3.0439    1.8183 C.ar      1 <0>        -0.0799
      4 C4          1.2578    2.6928    2.6422 C.ar      1 <0>         0.0426
      5 C5          1.3811    2.8320    4.0356 C.ar      1 <0>         0.0421
      6 C6          2.5618    3.3142    4.5812 C.ar      1 <0>        -0.1066
      7 N1          0.1774    2.4138    4.5742 N.pl3     1 <0>        -0.5890
      8 H1          0.0273    2.4297    5.6638 H         1 <0>         0.4653
      9 C7         -0.6263    2.0410    3.5287 C.2       1 <0>         0.3686
     10 N2          0.0175    2.2032    2.3954 N.2       1 <0>        -0.5048
     11 C8         -2.0012    1.5300    3.6568 C.2       1 <0>        -0.1888
     12 C9         -2.6838    1.0609    2.5325 C.2       1 <0>         0.3323
     13 C10        -4.0509    0.5558    2.7134 C.ar      1 <0>        -0.1415
     14 C11        -4.7863    0.0670    1.6298 C.ar      1 <0>        -0.0493
     15 C12        -6.0663   -0.4005    1.8311 C.ar      1 <0>        -0.0671
     16 C13        -6.6263   -0.3874    3.1021 C.ar      1 <0>        -0.0427
     17 C14        -5.9132    0.0920    4.1795 C.ar      1 <0>        -0.1448
     18 C15        -4.6186    0.5682    3.9996 C.ar      1 <0>         0.2150
     19 N3         -3.8914    1.0502    5.0702 N.am      1 <0>        -0.6397
     20 H2         -4.3351    1.0600    6.0767 H         1 <0>         0.4544
     21 C16        -2.6401    1.5147    4.9195 C.2       1 <0>         0.5622
     22 O1         -2.0386    1.9294    5.8949 O.2       1 <0>        -0.5417
     23 Cl1        -6.9844   -1.0088    0.4891 Cl        1 <0>        -0.0494
     24 N4         -2.0911    1.0665    1.2932 N.pl3     1 <0>        -0.7408
     25 C17        -1.9750   -0.2970    0.7590 C.3       1 <0>         0.1287
     26 H3         -2.7941   -0.8836    1.2006 H         1 <0>         0.1159
     27 C18        -0.6140   -0.8843    1.1428 C.3       1 <0>        -0.0279
     28 N5          0.1333   -1.2194   -0.0773 N.4       1 <0>        -0.3892
     29 C19        -0.5720   -2.2393   -0.8649 C.3       1 <0>        -0.0058
     30 C20        -1.9317   -1.6900   -1.3060 C.3       1 <0>        -0.1383
     31 C21        -2.0855   -0.2609   -0.7705 C.3       1 <0>        -0.1116
     32 C22        -0.9504    0.5996   -1.3398 C.3       1 <0>        -0.1316
     33 C23         0.3931   -0.0174   -0.8816 C.3       1 <0>        -0.0040
     34 H4          4.5297    4.0318    4.1805 H         1 <0>         0.1327
     35 H5          4.3243    3.7920    1.7413 H         1 <0>         0.1305
     36 H6          2.2490    2.9409    0.7465 H         1 <0>         0.1225
     37 H7          2.6587    3.4224    5.6514 H         1 <0>         0.1249
     38 H8         -4.3532    0.0556    0.6405 H         1 <0>         0.1458
     39 H9         -7.6309   -0.7562    3.2474 H         1 <0>         0.1503
     40 H10        -6.3590    0.0973    5.1631 H         1 <0>         0.1520
     41 H11        -1.7232    1.9206    0.7056 H         1 <0>         0.4581
     42 H12        -0.0482   -0.1456    1.7294 H         1 <0>         0.1469
     43 H13        -0.7632   -1.7933    1.7440 H         1 <0>         0.1262
     44 H14         0.0260   -2.4960   -1.7518 H         1 <0>         0.1311
     45 H15        -0.7210   -3.1392   -0.2501 H         1 <0>         0.1290
     46 H16        -1.9858   -1.6840   -2.4047 H         1 <0>         0.1051
     47 H17        -2.7328   -2.3270   -0.9030 H         1 <0>         0.1010
     48 H18        -3.0582    0.1594   -1.0657 H         1 <0>         0.1198
     49 H19        -1.0106    0.6060   -2.4381 H         1 <0>         0.1038
     50 H20        -1.0448    1.6282   -0.9614 H         1 <0>         0.0993
     51 H21         0.9453    0.7165   -0.2763 H         1 <0>         0.1335
     52 H22         0.9910   -0.2889   -1.7641 H         1 <0>         0.1288
     53 H23         1.1036   -1.6401    0.2251 H         1 <0>         0.4468
@<TRIPOS>BOND
     1    1    6 ar
     2    1    2 ar
     3    1   34 1
     4    2    3 ar
     5    2   35 1
     6    3    4 ar
     7    3   36 1
     8    4   10 1
     9    4    5 ar
    10    5    6 ar
    11    5    7 1
    12    6   37 1
    13    7    8 1
    14    7    9 1
    15    9   10 2
    16    9   11 1
    17   11   21 1
    18   11   12 2
    19   12   13 1
    20   12   24 1
    21   13   18 ar
    22   13   14 ar
    23   14   15 ar
    24   14   38 1
    25   15   16 ar
    26   15   23 1
    27   16   17 ar
    28   16   39 1
    29   17   18 ar
    30   17   40 1
    31   18   19 1
    32   19   20 1
    33   19   21 am
    34   21   22 2
    35   24   25 1
    36   24   41 1
    37   25   26 1
    38   25   31 1
    39   25   27 1
    40   27   28 1
    41   27   42 1
    42   27   43 1
    43   28   33 1
    44   28   29 1
    45   28   53 1
    46   29   30 1
    47   29   44 1
    48   29   45 1
    49   30   31 1
    50   30   46 1
    51   30   47 1
    52   31   32 1
    53   31   48 1
    54   32   33 1
    55   32   49 1
    56   32   50 1
    57   33   51 1
    58   33   52 1
@<TRIPOS>MOLECULE
ZINC06494041
   31    34     0     0     0
SMALL
USER_CHARGES

@<TRIPOS>ATOM
      1 C1         -0.0166    1.3729    0.0096 C.ar      1 <0>        -0.1772
      2 C2          1.1713    2.0902    0.0021 C.ar      1 <0>        -0.0720
      3 C3          2.3853    1.4387   -0.0129 C.ar      1 <0>        -0.1863
      4 C4          2.4268    0.0478   -0.0208 C.ar      1 <0>         0.2063
      5 C5          1.2241   -0.6774   -0.0132 C.ar      1 <0>        -0.1858
      6 C6          0.0021   -0.0041    0.0020 C.ar      1 <0>        -0.0332
      7 C7          1.2815   -2.1505   -0.0216 C.2       1 <0>         0.4332
      8 C8          2.5613   -2.7653   -0.0372 C.2       1 <0>        -0.4098
      9 C9          3.7021   -1.9733   -0.0438 C.2       1 <0>         0.5137
     10 O1          4.9122   -2.5683   -0.0585 O.3       1 <0>        -0.6869
     11 N1          3.6345   -0.6206   -0.0363 N.pl3     1 <0>        -0.6309
     12 H1          4.4575   -0.1073   -0.0417 H         1 <0>         0.4042
     13 C10         2.6782   -4.2336   -0.0457 C.2       1 <0>         0.4315
     14 N2          3.8577   -4.9308   -0.0552 N.pl3     1 <0>        -0.5959
     15 H2          4.7505   -4.5517   -0.0577 H         1 <0>         0.4291
     16 C11         3.5370   -6.2768   -0.0604 C.ar      1 <0>         0.0211
     17 C12         4.2878   -7.4431   -0.0706 C.ar      1 <0>        -0.1084
     18 C13         3.6537   -8.6681   -0.0741 C.ar      1 <0>        -0.1374
     19 C14         2.2683   -8.7428   -0.0680 C.ar      1 <0>        -0.1381
     20 C15         1.5066   -7.5965   -0.0579 C.ar      1 <0>        -0.0859
     21 C16         2.1332   -6.3464   -0.0538 C.ar      1 <0>         0.0641
     22 N3          1.6678   -5.0724   -0.0397 N.2       1 <0>        -0.5120
     23 O2          0.2619   -2.8199   -0.0151 O.2       1 <0>        -0.5033
     24 H3         -0.9606    1.8973    0.0259 H         1 <0>         0.1207
     25 H4          1.1439    3.1698    0.0078 H         1 <0>         0.1213
     26 H5          3.3037    2.0070   -0.0190 H         1 <0>         0.1238
     27 H6         -0.9240   -0.5597    0.0082 H         1 <0>         0.1332
     28 H7          5.3666   -7.3922   -0.0760 H         1 <0>         0.1100
     29 H8          4.2396   -9.5753   -0.0819 H         1 <0>         0.1160
     30 H9          1.7837   -9.7081   -0.0715 H         1 <0>         0.1161
     31 H10         0.4286   -7.6623   -0.0536 H         1 <0>         0.1187
@<TRIPOS>BOND
     1    1    6 ar
     2    1    2 ar
     3    1   24 1
     4    2    3 ar
     5    2   25 1
     6    3    4 ar
     7    3   26 1
     8    4   11 1
     9    4    5 ar
    10    5    6 ar
    11    5    7 1
    12    6   27 1
    13    7    8 1
    14    7   23 2
    15    8    9 2
    16    8   13 1
    17    9   10 1
    18    9   11 1
    19   11   12 1
    20   13   22 2
    21   13   14 1
    22   14   15 1
    23   14   16 1
    24   16   21 ar
    25   16   17 ar
    26   17   18 ar
    27   17   28 1
    28   18   19 ar
    29   18   29 1
    30   19   20 ar
    31   19   30 1
    32   20   21 ar
    33   20   31 1
    34   21   22 1
@<TRIPOS>MOLECULE
ZINC16052569
   50    53     0     0     0
SMALL
USER_CHARGES

@<TRIPOS>ATOM
      1 C1         -0.0184    1.5028    0.0103 C.3       1 <0>        -0.0807
      2 C2          0.0021   -0.0041    0.0020 C.2       1 <0>         0.1088
      3 C3          0.0083   -0.8581   -1.1820 C.ar      1 <0>        -0.1763
      4 C4         -0.0019   -0.6082   -2.5573 C.ar      1 <0>        -0.0083
      5 C5          0.0079   -1.6738   -3.4431 C.ar      1 <0>        -0.1061
      6 C6          0.0279   -2.9891   -2.9631 C.ar      1 <0>        -0.0534
      7 C7          0.0380   -3.2410   -1.6234 C.ar      1 <0>        -0.1371
      8 C8          0.0285   -2.1860   -0.7124 C.ar      1 <0>         0.1440
      9 N1          0.0337   -2.1193    0.6566 N.pl3     1 <0>        -0.5045
     10 H1          0.0468   -2.8812    1.2569 H         1 <0>         0.4444
     11 N2          0.0230   -0.7772    1.0497 N.2       1 <0>        -0.2435
     12 C9         -0.0034   -1.4202   -4.9053 C.ar      1 <0>        -0.0271
     13 C10         0.0004   -2.4846   -5.8096 C.ar      1 <0>        -0.1014
     14 C11        -0.0110   -2.1940   -7.1677 C.ar      1 <0>         0.0698
     15 C12        -0.0257   -0.8671   -7.5756 C.ar      1 <0>         0.0161
     16 N3         -0.0289    0.1132   -6.6940 N.ar      1 <0>        -0.4368
     17 C13        -0.0238   -0.1167   -5.3969 C.ar      1 <0>         0.0812
     18 O1         -0.0074   -3.1961   -8.0859 O.3       1 <0>        -0.3231
     19 C14        -0.0198   -2.8144   -9.4629 C.3       1 <0>         0.0274
     20 C15        -0.0136   -4.0682  -10.3397 C.3       1 <0>         0.0437
     21 H2          0.8359   -4.6958  -10.0703 H         1 <0>         0.1553
     22 C16         0.0989   -3.6615  -11.8104 C.3       1 <0>        -0.0972
     23 C17         0.2286   -4.8962  -12.6646 C.ar      1 <0>        -0.1303
     24 C18         1.4792   -5.4136  -12.9461 C.ar      1 <0>        -0.1030
     25 C19         1.5982   -6.5462  -13.7296 C.ar      1 <0>        -0.1053
     26 C20         0.4666   -7.1617  -14.2312 C.ar      1 <0>        -0.1014
     27 C21        -0.7840   -6.6448  -13.9490 C.ar      1 <0>        -0.1075
     28 C22        -0.9032   -5.5147  -13.1619 C.ar      1 <0>        -0.1401
     29 N4         -1.2605   -4.8167  -10.1327 N.4       1 <0>        -0.6365
     30 H3          1.0042    1.8801    0.0026 H         1 <0>         0.0878
     31 H4         -0.5455    1.8639   -0.8728 H         1 <0>         0.0842
     32 H5         -0.5286    1.8543    0.9071 H         1 <0>         0.0843
     33 H6         -0.0177    0.4067   -2.9264 H         1 <0>         0.1366
     34 H7          0.0350   -3.8127   -3.6617 H         1 <0>         0.1316
     35 H8          0.0531   -4.2604   -1.2670 H         1 <0>         0.1332
     36 H9          0.0123   -3.5071   -5.4619 H         1 <0>         0.1476
     37 H10        -0.0343   -0.6345   -8.6302 H         1 <0>         0.1565
     38 H11        -0.0314    0.7142   -4.7071 H         1 <0>         0.1670
     39 H12        -0.9167   -2.2306   -9.6700 H         1 <0>         0.0927
     40 H13         0.8631   -2.2138   -9.6814 H         1 <0>         0.1143
     41 H14        -0.7936   -3.1088  -12.1038 H         1 <0>         0.1038
     42 H15         0.9777   -3.0313  -11.9469 H         1 <0>         0.1255
     43 H16         2.3632   -4.9328  -12.5542 H         1 <0>         0.1308
     44 H17         2.5752   -6.9501  -13.9502 H         1 <0>         0.1335
     45 H18         0.5596   -8.0462  -14.8440 H         1 <0>         0.1330
     46 H19        -1.6681   -7.1255  -14.3411 H         1 <0>         0.1326
     47 H20        -1.8805   -5.1130  -12.9382 H         1 <0>         0.1228
     48 H21        -1.2564   -5.6436  -10.7110 H         1 <0>         0.4365
     49 H22        -1.3347   -5.0850   -9.1628 H         1 <0>         0.4422
     50 H23        -2.0469   -4.2358  -10.3821 H         1 <0>         0.4324
@<TRIPOS>BOND
     1    1    2 1
     2    1   30 1
     3    1   31 1
     4    1   32 1
     5    2   11 2
     6    2    3 1
     7    3    8 ar
     8    3    4 ar
     9    4    5 ar
    10    4   33 1
    11    5    6 ar
    12    5   12 1
    13    6    7 ar
    14    6   34 1
    15    7    8 ar
    16    7   35 1
    17    8    9 1
    18    9   10 1
    19    9   11 1
    20   12   17 ar
    21   12   13 ar
    22   13   14 ar
    23   13   36 1
    24   14   15 ar
    25   14   18 1
    26   15   16 ar
    27   15   37 1
    28   16   17 ar
    29   17   38 1
    30   18   19 1
    31   19   20 1
    32   19   39 1
    33   19   40 1
    34   20   21 1
    35   20   22 1
    36   20   29 1
    37   22   23 1
    38   22   41 1
    39   22   42 1
    40   23   28 ar
    41   23   24 ar
    42   24   25 ar
    43   24   43 1
    44   25   26 ar
    45   25   44 1
    46   26   27 ar
    47   26   45 1
    48   27   28 ar
    49   27   46 1
    50   28   47 1
    51   29   48 1
    52   29   49 1
    53   29   50 1
@<TRIPOS>MOLECULE
ZINC34804008
   37    41     0     0     0
SMALL
USER_CHARGES

@<TRIPOS>ATOM
      1 C1         -0.0166    1.3753    0.0096 C.ar      1 <0>        -0.1160
      2 C2          1.1702    2.0869    0.0021 C.ar      1 <0>        -0.0956
      3 C3          2.3823    1.4213   -0.0135 C.ar      1 <0>        -0.1088
      4 C4          2.4147    0.0403   -0.0213 C.ar      1 <0>        -0.0003
      5 C5          1.2208   -0.6823   -0.0133 C.ar      1 <0>        -0.0549
      6 C6          0.0021   -0.0041    0.0020 C.ar      1 <0>        -0.0861
      7 C7          1.2476   -2.1633   -0.0220 C.ar      1 <0>         0.0572
      8 C8          0.7443   -2.8623   -1.1176 C.ar      1 <0>        -0.1051
      9 C9          0.7641   -4.2503   -1.1370 C.ar      1 <0>         0.1736
     10 C10         1.2978   -4.9603   -0.0406 C.ar      1 <0>        -0.0306
     11 C11         1.1711   -6.3898   -0.3691 C.ar      1 <0>        -0.0967
     12 C12         1.5141   -7.5614    0.3052 C.ar      1 <0>        -0.0747
     13 C13         1.2616   -8.7878   -0.2800 C.ar      1 <0>         0.0784
     14 C14         0.6683   -8.8531   -1.5363 C.ar      1 <0>        -0.0956
     15 C15         0.3265   -7.7006   -2.2102 C.ar      1 <0>        -0.1253
     16 C16         0.5722   -6.4571   -1.6364 C.ar      1 <0>         0.1395
     17 N1          0.3368   -5.1656   -2.0786 N.pl3     1 <0>        -0.6069
     18 H1         -0.0708   -4.9367   -2.9286 H         1 <0>         0.4259
     19 O1          1.5943   -9.9330    0.3737 O.3       1 <0>        -0.4930
     20 C17         1.8044   -4.2673    1.0595 C.ar      1 <0>        -0.0806
     21 C18         1.7840   -2.8596    1.0679 C.ar      1 <0>        -0.1505
     22 C19         2.3884   -2.4533    2.3485 C.2       1 <0>         0.5791
     23 O2          2.5449   -1.3094    2.7274 O.2       1 <0>        -0.4475
     24 N2          2.7379   -3.5599    3.0287 N.am      1 <0>        -0.6804
     25 C20         2.4184   -4.6701    2.3393 C.2       1 <0>         0.5791
     26 O3          2.6139   -5.8124    2.7038 O.2       1 <0>        -0.4563
     27 Cl1         3.9368   -0.7943   -0.0415 Cl        1 <0>        -0.0609
     28 H2         -0.9598    1.9012    0.0260 H         1 <0>         0.1336
     29 H3          1.1498    3.1667    0.0081 H         1 <0>         0.1348
     30 H4          3.3052    1.9822   -0.0201 H         1 <0>         0.1370
     31 H5         -0.9252   -0.5577    0.0083 H         1 <0>         0.1349
     32 H6          0.3356   -2.3202   -1.9575 H         1 <0>         0.1475
     33 H7          1.9754   -7.5105    1.2804 H         1 <0>         0.1478
     34 H8          0.4742   -9.8149   -1.9876 H         1 <0>         0.1403
     35 H9         -0.1334   -7.7627   -3.1854 H         1 <0>         0.1347
     36 H10         0.8923  -10.2803    0.9408 H         1 <0>         0.3907
     37 H11         3.1568   -3.5579    3.9036 H         1 <0>         0.4317
@<TRIPOS>BOND
     1    1    6 ar
     2    1    2 ar
     3    1   28 1
     4    2    3 ar
     5    2   29 1
     6    3    4 ar
     7    3   30 1
     8    4    5 ar
     9    4   27 1
    10    5    6 ar
    11    5    7 1
    12    6   31 1
    13    7   21 ar
    14    7    8 ar
    15    8    9 ar
    16    8   32 1
    17    9   17 1
    18    9   10 ar
    19   10   11 1
    20   10   20 ar
    21   11   16 ar
    22   11   12 ar
    23   12   13 ar
    24   12   33 1
    25   13   14 ar
    26   13   19 1
    27   14   15 ar
    28   14   34 1
    29   15   16 ar
    30   15   35 1
    31   16   17 1
    32   17   18 1
    33   19   36 1
    34   20   25 1
    35   20   21 ar
    36   21   22 1
    37   22   23 2
    38   22   24 am
    39   24   25 am
    40   24   37 1
    41   25   26 2
@<TRIPOS>MOLECULE
ZINC14559870
   29    33     0     0     0
SMALL
USER_CHARGES
BLAHdione
@<TRIPOS>ATOM
      1 C1          2.9759    3.8341   -0.0061 C.ar      1 <0>        -0.1306
      2 C2          3.3947    2.5120   -0.0172 C.ar      1 <0>        -0.0820
      3 C3          2.4762    1.4841   -0.0141 C.ar      1 <0>        -0.1239
      4 C4          1.1147    1.7679    0.0009 C.ar      1 <0>         0.1193
      5 C5          0.6924    3.1066    0.0122 C.ar      1 <0>        -0.0737
      6 C6          1.6315    4.1362    0.0079 C.ar      1 <0>        -0.0598
      7 C7         -0.7795    3.0713    0.0261 C.2       1 <0>        -0.0973
      8 C8         -1.7990    4.1087    0.0414 C.2       1 <0>        -0.0497
      9 C9         -3.1462    3.7336    0.0523 C.2       1 <0>        -0.1086
     10 C10        -3.4795    2.3163    0.0486 C.2       1 <0>         0.0543
     11 C11        -4.6712    1.6231    0.0559 C.2       1 <0>         0.0240
     12 N1         -4.3815    0.3210    0.0467 N.2       1 <0>        -0.4427
     13 C12        -3.0844    0.1531    0.0340 C.2       1 <0>         0.1648
     14 N2         -2.4751    1.3668    0.0346 N.pl3     1 <0>        -0.3726
     15 C13        -1.1468    1.7293    0.0164 C.2       1 <0>         0.3292
     16 N3         -0.0111    0.9658    0.0074 N.pl3     1 <0>        -0.5765
     17 H1          0.0021   -0.0041    0.0020 H         1 <0>         0.4265
     18 C14        -3.9185    4.9844    0.0660 C.2       1 <0>         0.5909
     19 O1         -5.1307    5.0690    0.0782 O.2       1 <0>        -0.4444
     20 N4         -3.0589    6.0203    0.0632 N.am      1 <0>        -0.6805
     21 C15        -1.7857    5.5831    0.0489 C.2       1 <0>         0.5823
     22 O2         -0.7940    6.2843    0.0435 O.2       1 <0>        -0.4434
     23 H2          3.7061    4.6298   -0.0087 H         1 <0>         0.1343
     24 H3          4.4507    2.2857   -0.0289 H         1 <0>         0.1361
     25 H4          2.8138    0.4582   -0.0228 H         1 <0>         0.1308
     26 H5          1.3071    5.1663    0.0166 H         1 <0>         0.1415
     27 H6         -5.6605    2.0561    0.0675 H         1 <0>         0.1970
     28 H7         -2.5776   -0.8006    0.0246 H         1 <0>         0.2173
     29 H8         -3.3211    6.9542    0.0701 H         1 <0>         0.4374
@<TRIPOS>BOND
     1    1    6 ar
     2    1    2 ar
     3    1   23 1
     4    2    3 ar
     5    2   24 1
     6    3    4 ar
     7    3   25 1
     8    4   16 1
     9    4    5 ar
    10    5    6 ar
    11    5    7 1
    12    6   26 1
    13    7   15 2
    14    7    8 1
    15    8   21 1
    16    8    9 2
    17    9   10 1
    18    9   18 1
    19   10   14 1
    20   10   11 2
    21   11   12 1
    22   11   27 1
    23   12   13 2
    24   13   14 1
    25   13   28 1
    26   14   15 1
    27   15   16 1
    28   16   17 1
    29   18   19 2
    30   18   20 am
    31   20   21 am
    32   20   29 1
    33   21   22 2
@<TRIPOS>MOLECULE
ZINC14559870
   30    34     0     0     0
SMALL
USER_CHARGES
BLAHdione
@<TRIPOS>ATOM
      1 C1          2.9759    3.8341   -0.0061 C.ar      1 <0>        -0.1155
      2 C2          3.3947    2.5120   -0.0172 C.ar      1 <0>        -0.0614
      3 C3          2.4762    1.4841   -0.0141 C.ar      1 <0>        -0.1209
      4 C4          1.1147    1.7679    0.0009 C.ar      1 <0>         0.1295
      5 C5          0.6924    3.1066    0.0122 C.ar      1 <0>        -0.0818
      6 C6          1.6315    4.1362    0.0079 C.ar      1 <0>        -0.0537
      7 C7         -0.7795    3.0713    0.0261 C.2       1 <0>        -0.0524
      8 C8         -1.7990    4.1087    0.0414 C.2       1 <0>         0.0050
      9 C9         -3.1462    3.7336    0.0523 C.2       1 <0>        -0.1377
     10 C10        -3.4795    2.3163    0.0486 C.2       1 <0>         0.1323
     11 C11        -4.6712    1.6231    0.0559 C.2       1 <0>         0.0429
     12 C12        -3.0844    0.1531    0.0340 C.cat     1 <0>         0.2334
     13 N1         -2.4751    1.3668    0.0346 N.pl3     1 <0>        -0.3268
     14 C13        -1.1468    1.7293    0.0164 C.2       1 <0>         0.2979
     15 N2         -0.0111    0.9658    0.0074 N.pl3     1 <0>        -0.5619
     16 H1          0.0021   -0.0041    0.0020 H         1 <0>         0.4329
     17 C14        -3.9185    4.9844    0.0660 C.2       1 <0>         0.5944
     18 O1         -5.1307    5.0690    0.0782 O.2       1 <0>        -0.4333
     19 N3         -3.0589    6.0203    0.0632 N.am      1 <0>        -0.6713
     20 C15        -1.7857    5.5831    0.0489 C.2       1 <0>         0.5749
     21 O2         -0.7940    6.2843    0.0435 O.2       1 <0>        -0.4148
     22 H2          3.7061    4.6298   -0.0087 H         1 <0>         0.1452
     23 H3          4.4507    2.2857   -0.0289 H         1 <0>         0.1471
     24 H4          2.8138    0.4582   -0.0228 H         1 <0>         0.1400
     25 H5          1.3071    5.1663    0.0166 H         1 <0>         0.1485
     26 H6         -5.6605    2.0561    0.0675 H         1 <0>         0.2436
     27 H7         -2.5776   -0.8006    0.0246 H         1 <0>         0.2642
     28 H8         -3.3211    6.9542    0.0701 H         1 <0>         0.4480
     29 N4         -4.3834    0.3189    0.0467 N.pl3     1 <0>        -0.4408
     30 H9         -5.0759   -0.4391    0.0492 H         1 <0>         0.4927
@<TRIPOS>BOND
     1    1    6 ar
     2    1    2 ar
     3    1   22 1
     4    2    3 ar
     5    2   23 1
     6    3    4 ar
     7    3   24 1
     8    4   15 1
     9    4    5 ar
    10    5    6 ar
    11    5    7 1
    12    6   25 1
    13    7   14 2
    14    7    8 1
    15    8   20 1
    16    8    9 2
    17    9   10 1
    18    9   17 1
    19   10   13 1
    20   10   11 2
    21   11   26 1
    22   11   29 1
    23   12   13 1
    24   12   27 1
    25   12   29 2
    26   13   14 1
    27   14   15 1
    28   15   16 1
    29   17   18 2
    30   17   19 am
    31   19   20 am
    32   19   28 1
    33   20   21 2
    34   29   30 1
@<TRIPOS>MOLECULE
ZINC13643221
   42    44     0     0     0
SMALL
USER_CHARGES
1-(5-chloro-2-tetrahydropyran-4-yloxy-phenyl)-3-(5-cyanopyrazin-2-yl)urea
@<TRIPOS>ATOM
      1 C1          2.1943    1.8972   -0.1152 C.ar      1 <0>        -0.0801
      2 C2          0.9394    2.4775   -0.1471 C.ar      1 <0>        -0.1812
      3 C3         -0.1933    1.6811   -0.1200 C.ar      1 <0>         0.1149
      4 C4         -0.0656    0.2950   -0.0611 C.ar      1 <0>         0.1470
      5 C5          1.1954   -0.2809   -0.0297 C.ar      1 <0>        -0.0738
      6 C6          2.3224    0.5210   -0.0571 C.ar      1 <0>        -0.0503
      7 Cl1         3.9006   -0.2011   -0.0178 Cl        1 <0>        -0.0594
      8 N1         -1.2088   -0.5152   -0.0330 N.am      1 <0>        -0.6691
      9 C7         -1.1993   -1.6702    0.6615 C.2       1 <0>         0.6941
     10 O1         -0.2397   -1.9572    1.3508 O.2       1 <0>        -0.5013
     11 N2         -2.2536   -2.5070    0.5921 N.am      1 <0>        -0.6536
     12 C8         -2.2007   -3.7453    1.2215 C.ar      1 <0>         0.3590
     13 C9         -3.2478   -4.6549    1.0605 C.ar      1 <0>         0.0382
     14 N3         -3.1969   -5.8294    1.6517 N.ar      1 <0>        -0.3736
     15 C10        -2.1503   -6.1470    2.4132 C.ar      1 <0>         0.0984
     16 C11        -1.1068   -5.2354    2.5779 C.ar      1 <0>         0.1522
     17 N4         -1.1577   -4.0598    1.9793 N.ar      1 <0>        -0.4283
     18 C12        -2.0969   -7.4224    3.0621 C.1       1 <0>         0.2683
     19 N5         -2.0545   -8.4342    3.5768 N.1       1 <0>        -0.3775
     20 O2         -1.4278    2.2507   -0.1566 O.3       1 <0>        -0.3059
     21 C13        -1.4847    3.6783   -0.1261 C.3       1 <0>         0.0851
     22 C14        -1.4146    4.1630    1.3252 C.3       1 <0>        -0.1825
     23 C15        -1.5577    5.6871    1.3533 C.3       1 <0>         0.0633
     24 O3         -2.7880    6.0620    0.7305 O.3       1 <0>        -0.3782
     25 C16        -2.8884    5.6766   -0.6419 C.3       1 <0>         0.0635
     26 C17        -2.8010    4.1520   -0.7500 C.3       1 <0>        -0.1513
     27 H1          3.0764    2.5199   -0.1360 H         1 <0>         0.1398
     28 H2          0.8427    3.5522   -0.1928 H         1 <0>         0.1433
     29 H3          1.2978   -1.3551    0.0156 H         1 <0>         0.1545
     30 H4         -2.0069   -0.2447   -0.5135 H         1 <0>         0.4143
     31 H5         -3.0492   -2.2451    0.1029 H         1 <0>         0.4235
     32 H6         -4.0979   -4.3960    0.4468 H         1 <0>         0.1847
     33 H7         -0.2582   -5.4913    3.1949 H         1 <0>         0.1866
     34 H8         -0.6461    4.0887   -0.6886 H         1 <0>         0.0793
     35 H9         -2.2238    3.7118    1.8995 H         1 <0>         0.0853
     36 H10        -0.4560    3.8777    1.7586 H         1 <0>         0.0823
     37 H11        -0.7249    6.1391    0.8144 H         1 <0>         0.0545
     38 H12        -1.5530    6.0337    2.3868 H         1 <0>         0.1026
     39 H13        -2.0731    6.1284   -1.2069 H         1 <0>         0.0555
     40 H14        -3.8423    6.0156   -1.0460 H         1 <0>         0.1053
     41 H15        -2.8331    3.8589   -1.7994 H         1 <0>         0.0854
     42 H16        -3.6390    3.6997   -0.2197 H         1 <0>         0.0855
@<TRIPOS>BOND
     1    1    6 ar
     2    1    2 ar
     3    1   27 1
     4    2    3 ar
     5    2   28 1
     6    3    4 ar
     7    3   20 1
     8    4    5 ar
     9    4    8 1
    10    5    6 ar
    11    5   29 1
    12    6    7 1
    13    8    9 am
    14    8   30 1
    15    9   10 2
    16    9   11 am
    17   11   12 1
    18   11   31 1
    19   12   17 ar
    20   12   13 ar
    21   13   14 ar
    22   13   32 1
    23   14   15 ar
    24   15   16 ar
    25   15   18 1
    26   16   17 ar
    27   16   33 1
    28   18   19 3
    29   20   21 1
    30   21   26 1
    31   21   22 1
    32   21   34 1
    33   22   23 1
    34   22   35 1
    35   22   36 1
    36   23   24 1
    37   23   37 1
    38   23   38 1
    39   24   25 1
    40   25   26 1
    41   25   39 1
    42   25   40 1
    43   26   41 1
    44   26   42 1
@<TRIPOS>MOLECULE
ZINC28714095
   62    67     0     0     0
SMALL
USER_CHARGES
N-(4-hydroxycyclohexyl)-3-[4-(4-hydroxyphenyl)phenyl]-1,4-dihydroindeno[1,2-c]pyrazole-6-carboxamide
@<TRIPOS>ATOM
      1 C1          3.5844    5.3599    0.6882 C.ar      1 <0>        -0.1162
      2 C2          2.7790    4.2424    0.6905 C.ar      1 <0>        -0.0841
      3 C3          1.5622    4.2586    0.0100 C.ar      1 <0>        -0.0212
      4 C4          1.1626    5.4041   -0.6770 C.ar      1 <0>        -0.0865
      5 C5          1.9651    6.5238   -0.6747 C.ar      1 <0>        -0.1157
      6 C6          3.1825    6.5077    0.0055 C.ar      1 <0>        -0.0241
      7 C7          4.0496    7.7106    0.0025 C.ar      1 <0>        -0.0946
      8 C8          5.2644    7.6977    0.6864 C.ar      1 <0>        -0.0643
      9 C9          6.0710    8.8161    0.6773 C.ar      1 <0>        -0.1614
     10 C10         5.6695    9.9578   -0.0032 C.ar      1 <0>         0.1615
     11 C11         4.4576    9.9757   -0.6805 C.ar      1 <0>        -0.2135
     12 C12         3.6490    8.8587   -0.6796 C.ar      1 <0>        -0.0653
     13 O1          6.4640   11.0600   -0.0060 O.3       1 <0>        -0.5096
     14 C13         0.6953    3.0545    0.0118 C.2       1 <0>         0.1379
     15 C14        -0.7085    3.0512    0.0252 C.2       1 <0>        -0.2195
     16 C15        -1.1284    1.7549    0.0163 C.2       1 <0>         0.0808
     17 N1         -0.0111    0.9658    0.0074 N.pl3     1 <0>        -0.4626
     18 H1         -0.1114   -0.1296    0.0063 H         1 <0>         0.4717
     19 N2          1.1102    1.8043    0.0011 N.2       1 <0>        -0.2432
     20 C16        -2.6056    1.6992    0.0365 C.ar      1 <0>        -0.0084
     21 C17        -3.4888    0.6134    0.0396 C.ar      1 <0>        -0.1023
     22 C18        -4.8373    0.8246    0.0544 C.ar      1 <0>        -0.0849
     23 C19        -5.3474    2.1258    0.0666 C.ar      1 <0>        -0.1225
     24 C20        -4.4711    3.2158    0.0635 C.ar      1 <0>        -0.0369
     25 C21        -3.1147    2.9996    0.0486 C.ar      1 <0>        -0.0767
     26 C22        -1.9313    3.9361    0.0421 C.3       1 <0>        -0.0125
     27 C23        -6.8069    2.3490    0.0821 C.2       1 <0>         0.5615
     28 O2         -7.2486    3.4817    0.0922 O.2       1 <0>        -0.5345
     29 N3         -7.6495    1.2971    0.0850 N.am      1 <0>        -0.7348
     30 C24        -9.0976    1.5185    0.1004 C.3       1 <0>         0.1464
     31 C25        -9.5685    1.7125    1.5431 C.3       1 <0>        -0.1253
     32 C26       -11.0808    1.9438    1.5592 C.3       1 <0>        -0.1105
     33 C27       -11.7886    0.7317    0.9503 C.3       1 <0>         0.1144
     34 C28       -11.3177    0.5377   -0.4924 C.3       1 <0>        -0.1470
     35 C29        -9.8053    0.3064   -0.5085 C.3       1 <0>        -0.1233
     36 O3        -13.2011    0.9477    0.9653 O.3       1 <0>        -0.6016
     37 H2          4.5270    5.3474    1.2153 H         1 <0>         0.1290
     38 H3          3.0902    3.3536    1.2192 H         1 <0>         0.1283
     39 H4          0.2219    5.4151   -1.2075 H         1 <0>         0.1279
     40 H5          1.6538    7.4124   -1.2038 H         1 <0>         0.1294
     41 H6          5.5752    6.8114    1.2197 H         1 <0>         0.1327
     42 H7          7.0140    8.8054    1.2035 H         1 <0>         0.1310
     43 H8          4.1481   10.8652   -1.2090 H         1 <0>         0.1292
     44 H9          2.7063    8.8733   -1.2063 H         1 <0>         0.1287
     45 H10         6.1470   11.9651   -0.5448 H         1 <0>         0.4351
     46 H11        -3.1021   -0.3949    0.0307 H         1 <0>         0.1297
     47 H12        -5.5133   -0.0177    0.0564 H         1 <0>         0.1313
     48 H13        -4.8594    4.2236    0.0725 H         1 <0>         0.1443
     49 H14        -1.9155    4.5662    0.9436 H         1 <0>         0.1042
     50 H15        -1.9332    4.5761   -0.8525 H         1 <0>         0.1025
     51 H16        -7.2499    0.2723    0.0758 H         1 <0>         0.4168
     52 H17        -9.2940    2.4217   -0.4960 H         1 <0>         0.0915
     53 H18        -9.3287    0.8142    2.1310 H         1 <0>         0.0672
     54 H19        -9.0596    2.5839    1.9809 H         1 <0>         0.0759
     55 H20       -11.4194    2.0833    2.5965 H         1 <0>         0.0731
     56 H21       -11.3206    2.8421    0.9713 H         1 <0>         0.0734
     57 H22       -11.6171   -0.1737    1.5510 H         1 <0>         0.0508
     58 H23       -11.8266   -0.3337   -0.9301 H         1 <0>         0.0704
     59 H24       -11.5576    1.4359   -1.0803 H         1 <0>         0.0750
     60 H25        -9.4667    0.1670   -1.5457 H         1 <0>         0.0738
     61 H26        -9.5654   -0.5918    0.0794 H         1 <0>         0.0709
     62 H27       -13.8793    0.1795    0.5654 H         1 <0>         0.4066
@<TRIPOS>BOND
     1    1    6 ar
     2    1    2 ar
     3    1   37 1
     4    2    3 ar
     5    2   38 1
     6    3    4 ar
     7    3   14 1
     8    4    5 ar
     9    4   39 1
    10    5    6 ar
    11    5   40 1
    12    6    7 1
    13    7   12 ar
    14    7    8 ar
    15    8    9 ar
    16    8   41 1
    17    9   10 ar
    18    9   42 1
    19   10   11 ar
    20   10   13 1
    21   11   12 ar
    22   11   43 1
    23   12   44 1
    24   13   45 1
    25   14   19 2
    26   14   15 1
    27   15   26 1
    28   15   16 2
    29   16   17 1
    30   16   20 1
    31   17   18 1
    32   17   19 1
    33   20   25 ar
    34   20   21 ar
    35   21   22 ar
    36   21   46 1
    37   22   23 ar
    38   22   47 1
    39   23   24 ar
    40   23   27 1
    41   24   25 ar
    42   24   48 1
    43   25   26 1
    44   26   49 1
    45   26   50 1
    46   27   28 2
    47   27   29 am
    48   29   30 1
    49   29   51 1
    50   30   35 1
    51   30   31 1
    52   30   52 1
    53   31   32 1
    54   31   53 1
    55   31   54 1
    56   32   33 1
    57   32   55 1
    58   32   56 1
    59   33   34 1
    60   33   36 1
    61   33   57 1
    62   34   35 1
    63   34   58 1
    64   34   59 1
    65   35   60 1
    66   35   61 1
    67   36   62 1
@<TRIPOS>MOLECULE
ZINC03816310
   51    55     0     0     0
SMALL
USER_CHARGES
4-amino-5-fluoro-3-[5-(4-methylpiperazin-1-yl)-3H-benzoimidazol-2-yl]-1H-quinolin-2-one
@<TRIPOS>ATOM
      1 C1         -4.4670    0.8494    3.0633 C.3       1 <0>        -0.0407
      2 C2         -3.3790    0.9463    0.9019 C.3       1 <0>         0.0019
      3 C3         -3.5151    1.4789   -0.5264 C.3       1 <0>         0.0203
      4 N1         -3.5799    2.9467   -0.4951 N.pl3     1 <0>        -0.4822
      5 C4         -4.7239    3.4034    0.3063 C.3       1 <0>         0.0231
      6 C5         -4.5878    2.8708    1.7347 C.3       1 <0>         0.0021
      7 C6         -3.6324    3.4738   -1.7895 C.ar      1 <0>         0.0898
      8 C7         -3.6187    2.6172   -2.8884 C.ar      1 <0>        -0.1658
      9 C8         -3.6694    3.1157   -4.1588 C.ar      1 <0>        -0.0428
     10 C9         -3.7362    4.4973   -4.3655 C.ar      1 <0>         0.0571
     11 C10        -3.7506    5.3641   -3.2589 C.ar      1 <0>         0.0655
     12 C11        -3.7036    4.8454   -1.9734 C.ar      1 <0>        -0.1134
     13 N2         -3.8198    6.6467   -3.7722 N.pl3     1 <0>        -0.5851
     14 H1         -3.8464    7.4962   -3.2453 H         1 <0>         0.4436
     15 C12        -3.8451    6.5353   -5.1390 C.2       1 <0>         0.4046
     16 N3         -3.7957    5.2687   -5.4809 N.2       1 <0>        -0.5294
     17 C13        -3.9164    7.6652   -6.0804 C.2       1 <0>        -0.3025
     18 C14        -4.0559    7.4305   -7.4504 C.2       1 <0>         0.3760
     19 C15        -4.1228    8.5898   -8.3476 C.ar      1 <0>        -0.1878
     20 C16        -4.0447    9.8830   -7.7997 C.ar      1 <0>         0.2450
     21 C17        -4.1078   10.9864   -8.6429 C.ar      1 <0>        -0.1734
     22 C18        -4.2458   10.8081  -10.0035 C.ar      1 <0>        -0.0185
     23 C19        -4.3231    9.5350  -10.5468 C.ar      1 <0>        -0.1801
     24 C20        -4.2628    8.4239   -9.7304 C.ar      1 <0>         0.1680
     25 F1         -4.3388    7.1843  -10.2623 F         1 <0>        -0.1206
     26 N4         -3.9076   10.0470   -6.4354 N.am      1 <0>        -0.6368
     27 H2         -3.8498   10.9715   -6.0585 H         1 <0>         0.4300
     28 C21        -3.8500    8.9949   -5.6023 C.2       1 <0>         0.5826
     29 O1         -3.7334    9.1908   -4.4050 O.2       1 <0>        -0.5600
     30 N5         -4.1288    6.1500   -7.9440 N.pl3     1 <0>        -0.8025
     31 H3         -3.5472    1.1734    3.5502 H         1 <0>         0.1241
     32 H4         -5.3249    1.2032    3.6351 H         1 <0>         0.1225
     33 H5         -4.4877   -0.2393    3.0134 H         1 <0>         0.1228
     34 H6         -3.3598   -0.1434    0.8835 H         1 <0>         0.1376
     35 H7         -2.4541    1.3189    1.3424 H         1 <0>         0.1399
     36 H8         -2.6529    1.1655   -1.1151 H         1 <0>         0.1307
     37 H9         -4.4260    1.0841   -0.9765 H         1 <0>         0.0717
     38 H10        -4.7431    4.4931    0.3248 H         1 <0>         0.1261
     39 H11        -5.6486    3.0309   -0.1345 H         1 <0>         0.0691
     40 H12        -3.6769    3.2656    2.1847 H         1 <0>         0.1400
     41 H13        -5.4498    3.1846    2.3235 H         1 <0>         0.1367
     42 H14        -3.5672    1.5496   -2.7341 H         1 <0>         0.1314
     43 H15        -3.6582    2.4431   -5.0037 H         1 <0>         0.1346
     44 H16        -3.7183    5.5073   -1.1202 H         1 <0>         0.1268
     45 H17        -4.0491   11.9836   -8.2323 H         1 <0>         0.1496
     46 H18        -4.2944   11.6697  -10.6529 H         1 <0>         0.1516
     47 H19        -4.4307    9.4121  -11.6144 H         1 <0>         0.1515
     48 H20        -4.3218    5.4103   -7.3468 H         1 <0>         0.4285
     49 H21        -3.9874    5.9859   -8.8895 H         1 <0>         0.4092
     50 N6         -4.5458    1.3938    1.6909 N.4       1 <0>        -0.3998
     51 H22        -5.4033    1.0486    1.2438 H         1 <0>         0.4274
@<TRIPOS>BOND
     1    1   31 1
     2    1   32 1
     3    1   33 1
     4    1   50 1
     5    2    3 1
     6    2   34 1
     7    2   35 1
     8    2   50 1
     9    3    4 1
    10    3   36 1
    11    3   37 1
    12    4    5 1
    13    4    7 1
    14    5    6 1
    15    5   38 1
    16    5   39 1
    17    6   40 1
    18    6   41 1
    19    6   50 1
    20    7   12 ar
    21    7    8 ar
    22    8    9 ar
    23    8   42 1
    24    9   10 ar
    25    9   43 1
    26   10   16 1
    27   10   11 ar
    28   11   12 ar
    29   11   13 1
    30   12   44 1
    31   13   14 1
    32   13   15 1
    33   15   16 2
    34   15   17 1
    35   17   28 1
    36   17   18 2
    37   18   19 1
    38   18   30 1
    39   19   24 ar
    40   19   20 ar
    41   20   21 ar
    42   20   26 1
    43   21   22 ar
    44   21   45 1
    45   22   23 ar
    46   22   46 1
    47   23   24 ar
    48   23   47 1
    49   24   25 1
    50   26   27 1
    51   26   28 am
    52   28   29 2
    53   30   48 1
    54   30   49 1
    55   50   51 1
@<TRIPOS>MOLECULE
ZINC03964325
   57    59     0     0     0
SMALL
USER_CHARGES

@<TRIPOS>ATOM
      1 C1          0.1489    2.0884    0.1150 C.3       1 <0>        -0.1876
      2 C2          0.1348    0.5603    0.1888 C.3       1 <0>        -0.0191
      3 N1         -1.2520    0.0881    0.2979 N.4       1 <0>        -0.3822
      4 C3         -1.9779    0.4111   -0.9377 C.3       1 <0>        -0.0142
      5 C4         -3.4549    0.0484   -0.7712 C.3       1 <0>        -0.1895
      6 C5         -1.2593   -1.3663    0.5041 C.3       1 <0>        -0.0265
      7 C6         -0.6131   -1.6936    1.8518 C.3       1 <0>         0.0952
      8 N2         -0.6203   -3.1440    2.0575 N.am      1 <0>        -0.7289
      9 C7         -0.0988   -3.6675    3.1846 C.2       1 <0>         0.6111
     10 O1          0.3779   -2.9358    4.0309 O.2       1 <0>        -0.5184
     11 C8         -0.1061   -5.1270    3.3915 C.2       1 <0>        -0.2420
     12 C9          0.9071   -6.0320    3.0089 C.2       1 <0>        -0.0577
     13 C10         0.4868   -7.2892    3.3960 C.2       1 <0>        -0.0075
     14 N3         -0.7476   -7.1595    3.9982 N.pl3     1 <0>        -0.4910
     15 H1         -1.2731   -7.8879    4.3645 H         1 <0>         0.4270
     16 C11        -1.1044   -5.8642    4.0022 C.2       1 <0>         0.1158
     17 C12        -2.3825   -5.3072    4.5743 C.3       1 <0>        -0.0999
     18 C13         1.1957   -8.4957    3.2079 C.2       1 <0>         0.0729
     19 C14         0.5100   -9.6674    2.9570 C.2       1 <0>        -0.1889
     20 C15         1.0648  -11.0377    2.8871 C.ar      1 <0>        -0.0736
     21 C16         2.3472  -11.5557    3.0375 C.ar      1 <0>        -0.1000
     22 C17         2.5553  -12.9162    2.9116 C.ar      1 <0>         0.0861
     23 C18         1.4888  -13.7593    2.6366 C.ar      1 <0>        -0.1139
     24 C19         0.2139  -13.2531    2.4856 C.ar      1 <0>        -0.1021
     25 C20        -0.0144  -11.8871    2.6092 C.ar      1 <0>         0.1282
     26 N4         -1.1765  -11.1301    2.5069 N.am      1 <0>        -0.6466
     27 C21        -0.9294   -9.8245    2.7079 C.2       1 <0>         0.5595
     28 O2         -1.7538   -8.9280    2.6842 O.2       1 <0>        -0.5156
     29 F1          3.7984  -13.4252    3.0561 F         1 <0>        -0.1318
     30 C22         2.1990   -5.6919    2.3116 C.3       1 <0>        -0.0931
     31 H2          1.1793    2.4435    0.1331 H         1 <0>         0.1076
     32 H3         -0.3308    2.4121   -0.8087 H         1 <0>         0.0811
     33 H4         -0.3916    2.4984    0.9682 H         1 <0>         0.0809
     34 H5          0.5888    0.1488   -0.7126 H         1 <0>         0.1317
     35 H6          0.6996    0.2334    1.0619 H         1 <0>         0.1337
     36 H7         -1.8867    1.4775   -1.1444 H         1 <0>         0.1351
     37 H8         -1.5554   -0.1571   -1.7664 H         1 <0>         0.1307
     38 H9         -3.5537   -1.0316   -0.6617 H         1 <0>         0.0802
     39 H10        -3.8523    0.5414    0.1160 H         1 <0>         0.0808
     40 H11        -4.0109    0.3769   -1.6492 H         1 <0>         0.1074
     41 H12        -2.2871   -1.7292    0.4963 H         1 <0>         0.1397
     42 H13        -0.6973   -1.8494   -0.2952 H         1 <0>         0.1376
     43 H14         0.4147   -1.3306    1.8596 H         1 <0>         0.0893
     44 H15        -1.1751   -1.2105    2.6511 H         1 <0>         0.0890
     45 H16        -1.0005   -3.7277    1.3824 H         1 <0>         0.4099
     46 H17        -3.1529   -5.3000    3.8032 H         1 <0>         0.0840
     47 H18        -2.7087   -5.9289    5.4080 H         1 <0>         0.0782
     48 H19        -2.2103   -4.2898    4.9254 H         1 <0>         0.0840
     49 H20         2.2744   -8.5020    3.2604 H         1 <0>         0.1589
     50 H21         3.1765  -10.8977    3.2512 H         1 <0>         0.1436
     51 H22         1.6578  -14.8215    2.5394 H         1 <0>         0.1485
     52 H23        -0.6084  -13.9196    2.2712 H         1 <0>         0.1415
     53 H24        -2.0541  -11.4980    2.3189 H         1 <0>         0.4217
     54 H25         2.9686   -5.4822    3.0545 H         1 <0>         0.0785
     55 H26         2.5107   -6.5337    1.6932 H         1 <0>         0.0726
     56 H27         2.0522   -4.8138    1.6827 H         1 <0>         0.0634
     57 H28        -1.7009    0.5410    1.0799 H         1 <0>         0.4247
@<TRIPOS>BOND
     1    1    2 1
     2    1   31 1
     3    1   32 1
     4    1   33 1
     5    2    3 1
     6    2   34 1
     7    2   35 1
     8    3    4 1
     9    3    6 1
    10    3   57 1
    11    4    5 1
    12    4   36 1
    13    4   37 1
    14    5   38 1
    15    5   39 1
    16    5   40 1
    17    6    7 1
    18    6   41 1
    19    6   42 1
    20    7    8 1
    21    7   43 1
    22    7   44 1
    23    8    9 am
    24    8   45 1
    25    9   10 2
    26    9   11 1
    27   11   16 2
    28   11   12 1
    29   12   13 2
    30   12   30 1
    31   13   14 1
    32   13   18 1
    33   14   15 1
    34   14   16 1
    35   16   17 1
    36   17   46 1
    37   17   47 1
    38   17   48 1
    39   18   19 2
    40   18   49 1
    41   19   27 1
    42   19   20 1
    43   20   25 ar
    44   20   21 ar
    45   21   22 ar
    46   21   50 1
    47   22   23 ar
    48   22   29 1
    49   23   24 ar
    50   23   51 1
    51   24   25 ar
    52   24   52 1
    53   25   26 1
    54   26   27 am
    55   26   53 1
    56   27   28 2
    57   30   54 1
    58   30   55 1
    59   30   56 1
@<TRIPOS>MOLECULE
ZINC40310084
   31    34     0     0     0
SMALL
USER_CHARGES

@<TRIPOS>ATOM
      1 C1          0.0639    1.3881    0.0383 C.ar      1 <0>        -0.1388
      2 C2          1.2383    2.0704    0.3099 C.ar      1 <0>        -0.0876
      3 C3          2.4167    1.3846    0.5227 C.ar      1 <0>        -0.1361
      4 C4          2.4354   -0.0049    0.4665 C.ar      1 <0>         0.1370
      5 C5          1.2450   -0.6914    0.1918 C.ar      1 <0>        -0.0938
      6 C6          0.0626    0.0093   -0.0216 C.ar      1 <0>        -0.0689
      7 C7          1.5836   -2.1324    0.1996 C.2       1 <0>        -0.2047
      8 C8          0.7326   -3.1958   -0.0217 C.2       1 <0>         0.0965
      9 C9          1.2537   -4.5067   -0.1403 C.2       1 <0>        -0.2078
     10 C10         2.4487   -4.8744   -0.7239 C.2       1 <0>         0.1777
     11 N1          2.5964   -6.2192   -0.6416 N.pl3     1 <0>        -0.5635
     12 H1          3.3590   -6.7120   -0.9830 H         1 <0>         0.4255
     13 C11         1.5156   -6.7904   -0.0063 C.ar      1 <0>         0.2744
     14 C12         0.6319   -5.7549    0.3409 C.ar      1 <0>        -0.1173
     15 C13        -0.5541   -6.0551    1.0058 C.ar      1 <0>        -0.0376
     16 C14        -0.8156   -7.3812    1.3045 C.ar      1 <0>        -0.1881
     17 C15         0.1006   -8.3524    0.9360 C.ar      1 <0>         0.1313
     18 N2          1.2125   -8.0449    0.3019 N.ar      1 <0>        -0.4918
     19 C16         3.0212   -2.1852    0.4934 C.2       1 <0>         0.5597
     20 O1          3.6957   -3.1953    0.5893 O.2       1 <0>        -0.5136
     21 N3          3.4627   -0.9243    0.6385 N.am      1 <0>        -0.6540
     22 H2         -0.8530    1.9357   -0.1225 H         1 <0>         0.1294
     23 H3          1.2318    3.1494    0.3553 H         1 <0>         0.1305
     24 H4          3.3261    1.9278    0.7330 H         1 <0>         0.1263
     25 H5         -0.8528   -0.5235   -0.2330 H         1 <0>         0.1280
     26 H6         -0.3311   -3.0280   -0.1045 H         1 <0>         0.1402
     27 H7          3.1565   -4.1959   -1.1765 H         1 <0>         0.1893
     28 H8         -1.2496   -5.2760    1.2809 H         1 <0>         0.1367
     29 H9         -1.7243   -7.6556    1.8197 H         1 <0>         0.1413
     30 H10        -0.1045   -9.3867    1.1695 H         1 <0>         0.1635
     31 H11         4.3818   -0.6863    0.8375 H         1 <0>         0.4162
@<TRIPOS>BOND
     1    1    6 ar
     2    1    2 ar
     3    1   22 1
     4    2    3 ar
     5    2   23 1
     6    3    4 ar
     7    3   24 1
     8    4   21 1
     9    4    5 ar
    10    5    6 ar
    11    5    7 1
    12    6   25 1
    13    7    8 2
    14    7   19 1
    15    8    9 1
    16    8   26 1
    17    9   14 1
    18    9   10 2
    19   10   11 1
    20   10   27 1
    21   11   12 1
    22   11   13 1
    23   13   18 ar
    24   13   14 ar
    25   14   15 ar
    26   15   16 ar
    27   15   28 1
    28   16   17 ar
    29   16   29 1
    30   17   18 ar
    31   17   30 1
    32   19   20 2
    33   19   21 am
    34   21   31 1
@<TRIPOS>MOLECULE
ZINC37619334
   38    39     0     0     0
SMALL
USER_CHARGES

@<TRIPOS>ATOM
      1 C1         -0.3671    1.4626   -0.3574 C.3       1 <0>        -0.1600
      2 C2         -0.3176   -0.0665   -0.3751 C.3       1 <0>        -0.1265
      3 C3          0.5926   -0.5342   -1.5126 C.3       1 <0>        -0.1336
      4 C4          0.6421   -2.0632   -1.5302 C.3       1 <0>        -0.1454
      5 C5          1.5522   -2.5309   -2.6677 C.3       1 <0>         0.0145
      6 H1          2.5323   -2.0655   -2.5636 H         1 <0>         0.1706
      7 C6          1.6990   -4.0296   -2.6097 C.2       1 <0>         0.5039
      8 O1          1.0428   -4.7323   -3.3490 O.2       1 <0>        -0.4983
      9 N1          2.5595   -4.5891   -1.7362 N.am      1 <0>        -0.6432
     10 C7          2.6160   -5.9762   -1.6045 C.ar      1 <0>         0.1463
     11 C8          1.4615   -6.7335   -1.7614 C.ar      1 <0>        -0.0929
     12 C9          1.5045   -8.1097   -1.6332 C.ar      1 <0>        -0.0213
     13 C10         2.7079   -8.7390   -1.3466 C.ar      1 <0>        -0.1370
     14 C11         3.8822   -7.9733   -1.1872 C.ar      1 <0>        -0.1141
     15 C12         3.8319   -6.5977   -1.3217 C.ar      1 <0>        -0.0593
     16 C13         4.9597   -8.9428   -0.8947 C.2       1 <0>         0.5776
     17 O2          6.1255   -8.6683   -0.6934 O.2       1 <0>        -0.4511
     18 N2          4.4313  -10.1799   -0.8885 N.am      1 <0>        -0.6768
     19 C14         3.1116  -10.1441   -1.1460 C.2       1 <0>         0.5745
     20 O3          2.3747  -11.1081   -1.2038 O.2       1 <0>        -0.4480
     21 N3          0.9619   -2.1463   -3.9568 N.4       1 <0>        -0.6224
     22 H2          0.6375    1.8569   -0.2045 H         1 <0>         0.0588
     23 H3         -0.7585    1.8245   -1.3081 H         1 <0>         0.0563
     24 H4         -1.0154    1.7958    0.4529 H         1 <0>         0.0647
     25 H5          0.0739   -0.4283    0.5756 H         1 <0>         0.0726
     26 H6         -1.3222   -0.4608   -0.5280 H         1 <0>         0.0692
     27 H7          0.2011   -0.1723   -2.4633 H         1 <0>         0.0633
     28 H8          1.5972   -0.1398   -1.3596 H         1 <0>         0.0845
     29 H9          1.0336   -2.4251   -0.5795 H         1 <0>         0.1200
     30 H10        -0.3625   -2.4576   -1.6832 H         1 <0>         0.1019
     31 H11         3.1396   -4.0269   -1.1992 H         1 <0>         0.4259
     32 H12         0.5248   -6.2443   -1.9844 H         1 <0>         0.1522
     33 H13         0.6040   -8.6932   -1.7554 H         1 <0>         0.1546
     34 H14         4.7288   -6.0076   -1.2043 H         1 <0>         0.1519
     35 H15         4.9357  -10.9912   -0.7200 H         1 <0>         0.4368
     36 H16         0.8636   -1.1429   -3.9956 H         1 <0>         0.4440
     37 H17         1.5621   -2.4547   -4.7069 H         1 <0>         0.4425
     38 H18         0.0546   -2.5771   -4.0532 H         1 <0>         0.4436
@<TRIPOS>BOND
     1    1    2 1
     2    1   22 1
     3    1   23 1
     4    1   24 1
     5    2    3 1
     6    2   25 1
     7    2   26 1
     8    3    4 1
     9    3   27 1
    10    3   28 1
    11    4    5 1
    12    4   29 1
    13    4   30 1
    14    5    6 1
    15    5    7 1
    16    5   21 1
    17    7    8 2
    18    7    9 am
    19    9   10 1
    20    9   31 1
    21   10   15 ar
    22   10   11 ar
    23   11   12 ar
    24   11   32 1
    25   12   13 ar
    26   12   33 1
    27   13   19 1
    28   13   14 ar
    29   14   15 ar
    30   14   16 1
    31   15   34 1
    32   16   17 2
    33   16   18 am
    34   18   19 am
    35   18   35 1
    36   19   20 2
    37   21   36 1
    38   21   37 1
    39   21   38 1
@<TRIPOS>MOLECULE
ZINC18125083
   21    23     0     0     0
SMALL
USER_CHARGES

@<TRIPOS>ATOM
      1 C1         -0.0163    1.3525    0.0095 C.2       1 <0>        -0.1618
      2 C2          1.1786    2.0408    0.0018 C.2       1 <0>        -0.1444
      3 C3          2.3478    1.3281   -0.0132 C.2       1 <0>        -0.1084
      4 S1          1.7523   -0.3550   -0.0166 S.3       1 <0>         0.1132
      5 C4          0.0021   -0.0041    0.0020 C.2       1 <0>        -0.1884
      6 C5          3.7402    1.8233   -0.0239 C.2       1 <0>         0.0202
      7 C6          4.1307    2.7707   -0.9130 C.2       1 <0>        -0.1682
      8 S2          5.8528    3.0165   -0.5244 S.3       1 <0>         0.1696
      9 C7          6.0084    1.8551    0.8078 C.2       1 <0>         0.1069
     10 C8          4.7204    1.3074    0.9254 C.2       1 <0>        -0.2450
     11 C9          4.5565    0.3230    1.9509 C.2       1 <0>         0.5468
     12 O1          3.4759   -0.2133    2.1268 O.2       1 <0>        -0.5014
     13 N1          5.6134   -0.0022    2.7181 N.am      1 <0>        -0.6390
     14 C10         6.8242    0.5849    2.5363 C.2       1 <0>         0.3952
     15 N2          7.0076    1.4788    1.6019 N.2       1 <0>        -0.4947
     16 H1         -0.9549    1.8866    0.0258 H         1 <0>         0.1328
     17 H2          1.1920    3.1207    0.0071 H         1 <0>         0.1319
     18 H3         -0.8286   -0.6942    0.0065 H         1 <0>         0.1842
     19 H4          3.5399    3.2586   -1.6741 H         1 <0>         0.2024
     20 H5          7.6518    0.3017    3.1698 H         1 <0>         0.2226
     21 H6          5.5080   -0.6688    3.4148 H         1 <0>         0.4253
@<TRIPOS>BOND
     1    1    5 2
     2    1    2 1
     3    1   16 1
     4    2    3 2
     5    2   17 1
     6    3    4 1
     7    3    6 1
     8    4    5 1
     9    5   18 1
    10    6   10 1
    11    6    7 2
    12    7    8 1
    13    7   19 1
    14    8    9 1
    15    9   15 1
    16    9   10 2
    17   10   11 1
    18   11   12 2
    19   11   13 am
    20   13   14 1
    21   13   21 1
    22   14   15 2
    23   14   20 1
@<TRIPOS>MOLECULE
ZINC39001860
   32    34     0     0     0
SMALL
USER_CHARGES

@<TRIPOS>ATOM
      1 C1         -0.0156    1.2972    0.0092 C.2       1 <0>         0.2717
      2 N1          1.2591    1.7803   -0.0004 N.pl3     1 <0>        -0.5755
      3 H1          1.5187    2.7149    0.0024 H         1 <0>         0.4371
      4 C2          2.1075    0.7022   -0.0143 C.ar      1 <0>         0.3050
      5 C3          1.2855   -0.4376   -0.0126 C.ar      1 <0>        -0.1034
      6 N2          0.0021   -0.0041    0.0020 N.2       1 <0>        -0.4753
      7 C4          1.9020   -1.7001   -0.0252 C.ar      1 <0>         0.5026
      8 N3          3.2299   -1.7563   -0.0382 N.ar      1 <0>        -0.5914
      9 C5          3.9609   -0.6567   -0.0393 C.ar      1 <0>         0.3668
     10 N4          3.4272    0.5466   -0.0277 N.ar      1 <0>        -0.5497
     11 N5          1.1443   -2.8581   -0.0238 N.pl3     1 <0>        -0.5890
     12 C6         -0.3261   -2.8013   -0.0151 C.3       1 <0>         0.0620
     13 C7         -0.8385   -3.7098    1.1083 C.3       1 <0>         0.0566
     14 O1         -0.2541   -5.0069    0.9680 O.3       1 <0>        -0.3915
     15 C8          1.1699   -5.0239    1.0929 C.3       1 <0>         0.0434
     16 H2          1.4558   -4.6063    2.0583 H         1 <0>         0.0886
     17 C9          1.7852   -4.1827   -0.0370 C.3       1 <0>         0.0963
     18 C10         1.6748   -6.4645    0.9895 C.3       1 <0>         0.0058
     19 N6          1.0799   -7.2702    2.0642 N.4       1 <0>        -0.6338
     20 H3         -0.9084    1.9047    0.0251 H         1 <0>         0.2318
     21 H4          5.0370   -0.7480   -0.0501 H         1 <0>         0.2094
     22 H5         -0.6528   -1.7768    0.1634 H         1 <0>         0.1469
     23 H6         -0.7125   -3.1487   -0.9733 H         1 <0>         0.0805
     24 H7         -0.5599   -3.2874    2.0737 H         1 <0>         0.0643
     25 H8         -1.9236   -3.7905    1.0448 H         1 <0>         0.1229
     26 H9          1.6077   -4.6668   -0.9973 H         1 <0>         0.0850
     27 H10         2.8572   -4.0735    0.1270 H         1 <0>         0.1186
     28 H11         1.3902   -6.8809    0.0232 H         1 <0>         0.1451
     29 H12         2.7606   -6.4767    1.0848 H         1 <0>         0.1517
     30 H13         1.4129   -8.2202    1.9961 H         1 <0>         0.4403
     31 H14         1.3434   -6.8848    2.9587 H         1 <0>         0.4348
     32 H15         0.0749   -7.2589    1.9761 H         1 <0>         0.4424
@<TRIPOS>BOND
     1    1    6 2
     2    1    2 1
     3    1   20 1
     4    2    3 1
     5    2    4 1
     6    4   10 ar
     7    4    5 ar
     8    5    6 1
     9    5    7 ar
    10    7    8 ar
    11    7   11 1
    12    8    9 ar
    13    9   10 ar
    14    9   21 1
    15   11   17 1
    16   11   12 1
    17   12   13 1
    18   12   22 1
    19   12   23 1
    20   13   14 1
    21   13   24 1
    22   13   25 1
    23   14   15 1
    24   15   16 1
    25   15   17 1
    26   15   18 1
    27   17   26 1
    28   17   27 1
    29   18   19 1
    30   18   28 1
    31   18   29 1
    32   19   30 1
    33   19   31 1
    34   19   32 1
@<TRIPOS>MOLECULE
ZINC41162055
   32    34     0     0     0
SMALL
USER_CHARGES

@<TRIPOS>ATOM
      1 C1         -0.0156    1.2972    0.0092 C.2       1 <0>         0.2717
      2 N1          1.2591    1.7803   -0.0004 N.pl3     1 <0>        -0.5755
      3 H1          1.5187    2.7149    0.0024 H         1 <0>         0.4371
      4 C2          2.1075    0.7022   -0.0143 C.ar      1 <0>         0.3049
      5 C3          1.2855   -0.4376   -0.0126 C.ar      1 <0>        -0.1033
      6 N2          0.0021   -0.0041    0.0020 N.2       1 <0>        -0.4752
      7 C4          1.9020   -1.7001   -0.0252 C.ar      1 <0>         0.5028
      8 N3          3.2299   -1.7563   -0.0382 N.ar      1 <0>        -0.5916
      9 C5          3.9609   -0.6567   -0.0393 C.ar      1 <0>         0.3667
     10 N4          3.4272    0.5466   -0.0277 N.ar      1 <0>        -0.5497
     11 N5          1.1443   -2.8581   -0.0238 N.pl3     1 <0>        -0.5885
     12 C6         -0.3261   -2.8013   -0.0151 C.3       1 <0>         0.0622
     13 C7         -0.8514   -3.7032   -1.1378 C.3       1 <0>         0.0556
     14 O1         -0.2655   -5.0012   -1.0119 O.3       1 <0>        -0.3893
     15 C8          1.1570   -5.0174   -1.1532 C.3       1 <0>         0.0438
     16 H2          1.4317   -4.5942   -2.1194 H         1 <0>         0.0871
     17 C9          1.7852   -4.1827   -0.0370 C.3       1 <0>         0.0954
     18 C10         1.6630   -6.4586   -1.0641 C.3       1 <0>         0.0055
     19 N6          1.1508   -7.2288   -2.2052 N.4       1 <0>        -0.6343
     20 H3         -0.9084    1.9047    0.0251 H         1 <0>         0.2318
     21 H4          5.0370   -0.7480   -0.0501 H         1 <0>         0.2093
     22 H5         -0.7015   -3.1542    0.9454 H         1 <0>         0.0809
     23 H6         -0.6548   -1.7758   -0.1839 H         1 <0>         0.1465
     24 H7         -1.9358   -3.7844   -1.0623 H         1 <0>         0.1230
     25 H8         -0.5840   -3.2752   -2.1039 H         1 <0>         0.0640
     26 H9          2.8539   -4.0716   -0.2203 H         1 <0>         0.1185
     27 H10         1.6259   -4.6771    0.9213 H         1 <0>         0.0847
     28 H11         2.7528   -6.4628   -1.0827 H         1 <0>         0.1521
     29 H12         1.3137   -6.9095   -0.1352 H         1 <0>         0.1461
     30 H13         1.4845   -8.1792   -2.1464 H         1 <0>         0.4407
     31 H14         0.1419   -7.2249   -2.1880 H         1 <0>         0.4421
     32 H15         1.4741   -6.8114   -3.0650 H         1 <0>         0.4348
@<TRIPOS>BOND
     1    1    6 2
     2    1    2 1
     3    1   20 1
     4    2    3 1
     5    2    4 1
     6    4   10 ar
     7    4    5 ar
     8    5    6 1
     9    5    7 ar
    10    7    8 ar
    11    7   11 1
    12    8    9 ar
    13    9   10 ar
    14    9   21 1
    15   11   17 1
    16   11   12 1
    17   12   13 1
    18   12   22 1
    19   12   23 1
    20   13   14 1
    21   13   24 1
    22   13   25 1
    23   14   15 1
    24   15   16 1
    25   15   17 1
    26   15   18 1
    27   17   26 1
    28   17   27 1
    29   18   19 1
    30   18   28 1
    31   18   29 1
    32   19   30 1
    33   19   31 1
    34   19   32 1
@<TRIPOS>MOLECULE
ZINC18825339
   59    62     0     0     0
SMALL
USER_CHARGES
5-[(Z)-(5-fluoro-2-oxo-indolin-3-ylidene)methyl]-N-[(2R)-2-hydroxy-3-morpholino-propyl]-2,4-dimethyl-1H-pyrrole-3-carboxamide
@<TRIPOS>ATOM
      1 C1          3.5607    0.7280    0.3667 C.3       1 <0>        -0.0956
      2 C2          2.0758    0.7165    0.1102 C.2       1 <0>        -0.0564
      3 C3          1.2591    1.8188   -0.0477 C.2       1 <0>        -0.0308
      4 N1         -0.0271    1.3691   -0.2640 N.pl3     1 <0>        -0.5068
      5 H1         -0.8436    2.0903   -0.4163 H         1 <0>         0.4494
      6 C4         -0.0354    0.0257   -0.2455 C.2       1 <0>         0.1277
      7 C5          1.2525   -0.4230   -0.0155 C.2       1 <0>        -0.2308
      8 C6          1.6847   -1.8291    0.0810 C.2       1 <0>         0.5980
      9 O1          2.0430   -2.4250   -0.9167 O.2       1 <0>        -0.5421
     10 N2          1.6827   -2.4542    1.2750 N.am      1 <0>        -0.7266
     11 C7          2.1121   -3.8516    1.3710 C.3       1 <0>         0.1299
     12 C8          2.0150   -4.3162    2.8255 C.3       1 <0>         0.1144
     13 H2          2.5334   -3.6206    3.5018 H         1 <0>         0.0568
     14 C9          2.5799   -5.7329    2.9471 C.3       1 <0>         0.0228
     15 N3          2.4867   -6.1790    4.3436 N.3       1 <0>        -0.5349
     16 C10         3.3671   -5.3829    5.2109 C.3       1 <0>         0.0083
     17 C11         3.1945   -5.8402    6.6618 C.3       1 <0>         0.0618
     18 O2          3.4694   -7.2408    6.7508 O.3       1 <0>        -0.3843
     19 C12         2.6296   -8.0463    5.9193 C.3       1 <0>         0.0614
     20 C13         2.7965   -7.6114    4.4609 C.3       1 <0>         0.0172
     21 O3          0.6463   -4.3123    3.2364 O.3       1 <0>        -0.5882
     22 C14        -1.2476   -0.8477   -0.4426 C.3       1 <0>        -0.0994
     23 C15         1.6686    3.1691    0.0027 C.2       1 <0>         0.0908
     24 C16         0.8216    4.1284    0.5209 C.2       1 <0>        -0.2125
     25 C17         1.0162    5.5955    0.5210 C.ar      1 <0>        -0.0684
     26 C18         2.0202    6.4240    0.0297 C.ar      1 <0>        -0.1043
     27 C19         1.9118    7.7937    0.1786 C.ar      1 <0>         0.0808
     28 C20         0.8031    8.3379    0.8097 C.ar      1 <0>        -0.1198
     29 C21        -0.2000    7.5233    1.2941 C.ar      1 <0>        -0.1061
     30 C22        -0.1080    6.1430    1.1533 C.ar      1 <0>         0.1250
     31 N4         -0.9593    5.1144    1.5420 N.am      1 <0>        -0.6604
     32 C23        -0.4649    3.9133    1.1971 C.2       1 <0>         0.5647
     33 O4         -0.9909    2.8351    1.4086 O.2       1 <0>        -0.5132
     34 F1          2.8866    8.6030   -0.2904 F         1 <0>        -0.1355
     35 H3          3.9167    1.7678    0.4131 H         1 <0>         0.0672
     36 H4          4.0776    0.1994   -0.4478 H         1 <0>         0.0746
     37 H5          3.7717    0.2252    1.3221 H         1 <0>         0.0710
     38 H6          1.3586   -1.9152    2.1775 H         1 <0>         0.4262
     39 H7          1.4633   -4.4786    0.7417 H         1 <0>         0.0750
     40 H8          3.1531   -3.9398    1.0266 H         1 <0>         0.0785
     41 H9          2.0023   -6.4143    2.3052 H         1 <0>         0.0900
     42 H10         3.6334   -5.7360    2.6307 H         1 <0>         0.0465
     43 H11         4.4130   -5.5254    4.9015 H         1 <0>         0.0459
     44 H12         3.1012   -4.3189    5.1257 H         1 <0>         0.0881
     45 H13         3.8925   -5.2859    7.3064 H         1 <0>         0.1001
     46 H14         2.1618   -5.6458    6.9871 H         1 <0>         0.0615
     47 H15         2.9156   -9.1033    6.0238 H         1 <0>         0.1009
     48 H16         1.5805   -7.9185    6.2243 H         1 <0>         0.0621
     49 H17         2.1104   -8.1883    3.8234 H         1 <0>         0.0898
     50 H18         3.8332   -7.7899    4.1393 H         1 <0>         0.0455
     51 H19         0.3780   -4.6185    4.2583 H         1 <0>         0.4136
     52 H20        -0.9523   -1.9052   -0.3757 H         1 <0>         0.0845
     53 H21        -1.6843   -0.6508   -1.4328 H         1 <0>         0.0777
     54 H22        -1.9909   -0.6245    0.3369 H         1 <0>         0.0809
     55 H23         2.6624    3.4568   -0.3709 H         1 <0>         0.1579
     56 H24         2.8828    5.9984   -0.4614 H         1 <0>         0.1409
     57 H25         0.7239    9.4091    0.9228 H         1 <0>         0.1443
     58 H26        -1.0583    7.9589    1.7840 H         1 <0>         0.1386
     59 H27        -1.9003    5.3463    2.0623 H         1 <0>         0.4455
@<TRIPOS>BOND
     1    1    2 1
     2    1   35 1
     3    1   36 1
     4    1   37 1
     5    2    7 1
     6    2    3 2
     7    3    4 1
     8    3   23 1
     9    4    5 1
    10    4    6 1
    11    6    7 2
    12    6   22 1
    13    7    8 1
    14    8    9 2
    15    8   10 am
    16   10   11 1
    17   10   38 1
    18   11   12 1
    19   11   39 1
    20   11   40 1
    21   12   13 1
    22   12   14 1
    23   12   21 1
    24   14   15 1
    25   14   41 1
    26   14   42 1
    27   15   20 1
    28   15   16 1
    29   16   17 1
    30   16   43 1
    31   16   44 1
    32   17   18 1
    33   17   45 1
    34   17   46 1
    35   18   19 1
    36   19   20 1
    37   19   47 1
    38   19   48 1
    39   20   49 1
    40   20   50 1
    41   21   51 1
    42   22   52 1
    43   22   53 1
    44   22   54 1
    45   23   24 2
    46   23   55 1
    47   24   32 1
    48   24   25 1
    49   25   30 ar
    50   25   26 ar
    51   26   27 ar
    52   26   56 1
    53   27   28 ar
    54   27   34 1
    55   28   29 ar
    56   28   57 1
    57   29   30 ar
    58   29   58 1
    59   30   31 1
    60   31   32 am
    61   31   59 1
    62   32   33 2
@<TRIPOS>MOLECULE
ZINC18825344
   59    62     0     0     0
SMALL
USER_CHARGES
5-[(Z)-(5-fluoro-2-oxo-indolin-3-ylidene)methyl]-N-[(2S)-2-hydroxy-3-morpholino-propyl]-2,4-dimethyl-1H-pyrrole-3-carboxamide
@<TRIPOS>ATOM
      1 C1          4.7056    0.6287    1.0117 C.3       1 <0>        -0.0968
      2 C2          3.2464    0.8378    0.6983 C.2       1 <0>        -0.0523
      3 C3          2.5980    2.0501    0.5678 C.2       1 <0>        -0.0327
      4 N1          1.2732    1.7961    0.2789 N.pl3     1 <0>        -0.5060
      5 H1          0.5720    2.6311    0.1339 H         1 <0>         0.4496
      6 C4          1.0783    0.4679    0.2258 C.2       1 <0>         0.1246
      7 C5          2.2801   -0.1676    0.4808 C.2       1 <0>        -0.2308
      8 C6          2.5088   -1.6234    0.5191 C.2       1 <0>         0.5976
      9 O1          2.8262   -2.2159   -0.4944 O.2       1 <0>        -0.5428
     10 N2          2.3662   -2.2977    1.6773 N.am      1 <0>        -0.7254
     11 C7          2.5935   -3.7444    1.7154 C.3       1 <0>         0.1298
     12 C8          2.3672   -4.2590    3.1384 C.3       1 <0>         0.1172
     13 H2          1.3599   -4.0040    3.4994 H         1 <0>         0.0560
     14 C9          2.6045   -5.7699    3.1781 C.3       1 <0>         0.0219
     15 N3          2.3382   -6.2720    4.5327 N.3       1 <0>        -0.5356
     16 C10         2.9762   -7.5793    4.7450 C.3       1 <0>         0.0168
     17 C11         2.7241   -8.0365    6.1842 C.3       1 <0>         0.0612
     18 O2          1.3152   -8.0759    6.4267 O.3       1 <0>        -0.3844
     19 C12         0.6618   -6.8191    6.2299 C.3       1 <0>         0.0617
     20 C13         0.8930   -6.3496    4.7911 C.3       1 <0>         0.0111
     21 O3          3.2765   -3.6103    4.0297 O.3       1 <0>        -0.5892
     22 C14        -0.2328   -0.2165   -0.0637 C.3       1 <0>        -0.0987
     23 C15         3.1876    3.3256    0.7056 C.2       1 <0>         0.0935
     24 C16         2.4515    4.3746    1.2192 C.2       1 <0>        -0.2157
     25 C17         2.8515    5.7966    1.3077 C.ar      1 <0>        -0.0669
     26 C18         3.9943    6.4912    0.9234 C.ar      1 <0>        -0.1048
     27 C19         4.0710    7.8545    1.1363 C.ar      1 <0>         0.0814
     28 C20         3.0098    8.5263    1.7247 C.ar      1 <0>        -0.1204
     29 C21         1.8704    7.8457    2.1029 C.ar      1 <0>        -0.1055
     30 C22         1.7753    6.4739    1.8965 C.ar      1 <0>         0.1237
     31 N4          0.7622    5.5637    2.1775 N.am      1 <0>        -0.6596
     32 C23         1.1039    4.3195    1.8021 C.2       1 <0>         0.5657
     33 O4          0.4171    3.3209    1.9242 O.2       1 <0>        -0.5153
     34 F1          5.1807    8.5334    0.7715 F         1 <0>        -0.1355
     35 H3          5.1994    1.6049    1.1269 H         1 <0>         0.0668
     36 H4          5.1808    0.0720    0.1906 H         1 <0>         0.0744
     37 H5          4.8016    0.0567    1.9464 H         1 <0>         0.0741
     38 H6          2.0791   -1.7617    2.5940 H         1 <0>         0.4273
     39 H7          1.8935   -4.2437    1.0293 H         1 <0>         0.0777
     40 H8          3.6268   -3.9615    1.4070 H         1 <0>         0.0736
     41 H9          1.9304   -6.2658    2.4641 H         1 <0>         0.0486
     42 H10         3.6486   -5.9844    2.9062 H         1 <0>         0.0884
     43 H11         2.5501   -8.3132    4.0451 H         1 <0>         0.0451
     44 H12         4.0587   -7.4917    4.5704 H         1 <0>         0.0900
     45 H13         3.1515   -9.0395    6.3305 H         1 <0>         0.1008
     46 H14         3.1986   -7.3305    6.8817 H         1 <0>         0.0620
     47 H15        -0.4170   -6.9344    6.4112 H         1 <0>         0.1000
     48 H16         1.0741   -6.0778    6.9303 H         1 <0>         0.0613
     49 H17         0.4415   -5.3564    4.6504 H         1 <0>         0.0873
     50 H18         0.4333   -7.0637    4.0920 H         1 <0>         0.0461
     51 H19         3.2627   -3.8533    5.1024 H         1 <0>         0.4141
     52 H20        -0.0899   -1.3070   -0.0417 H         1 <0>         0.0829
     53 H21        -0.5927    0.0862   -1.0581 H         1 <0>         0.0781
     54 H22        -0.9728    0.0718    0.6974 H         1 <0>         0.0803
     55 H23         4.2335    3.4835    0.4037 H         1 <0>         0.1584
     56 H24         4.8196    5.9664    0.4654 H         1 <0>         0.1411
     57 H25         3.0756    9.5918    1.8882 H         1 <0>         0.1443
     58 H26         1.0507    8.3797    2.5605 H         1 <0>         0.1385
     59 H27        -0.1701    5.9069    2.6497 H         1 <0>         0.4455
@<TRIPOS>BOND
     1    1    2 1
     2    1   35 1
     3    1   36 1
     4    1   37 1
     5    2    7 1
     6    2    3 2
     7    3    4 1
     8    3   23 1
     9    4    5 1
    10    4    6 1
    11    6    7 2
    12    6   22 1
    13    7    8 1
    14    8    9 2
    15    8   10 am
    16   10   11 1
    17   10   38 1
    18   11   12 1
    19   11   39 1
    20   11   40 1
    21   12   13 1
    22   12   14 1
    23   12   21 1
    24   14   15 1
    25   14   41 1
    26   14   42 1
    27   15   20 1
    28   15   16 1
    29   16   17 1
    30   16   43 1
    31   16   44 1
    32   17   18 1
    33   17   45 1
    34   17   46 1
    35   18   19 1
    36   19   20 1
    37   19   47 1
    38   19   48 1
    39   20   49 1
    40   20   50 1
    41   21   51 1
    42   22   52 1
    43   22   53 1
    44   22   54 1
    45   23   24 2
    46   23   55 1
    47   24   32 1
    48   24   25 1
    49   25   30 ar
    50   25   26 ar
    51   26   27 ar
    52   26   56 1
    53   27   28 ar
    54   27   34 1
    55   28   29 ar
    56   28   57 1
    57   29   30 ar
    58   29   58 1
    59   30   31 1
    60   31   32 am
    61   31   59 1
    62   32   33 2
@<TRIPOS>MOLECULE
ZINC33901069
   63    70     0     0     0
SMALL
USER_CHARGES

@<TRIPOS>ATOM
      1 C1         -0.1295    1.5952   -0.2973 C.3       1 <0>        -0.1689
      2 C2         -0.0862    0.0696   -0.1900 C.3       1 <0>         0.3341
      3 C3          0.5692   -0.4501   -1.4637 C.3       1 <0>         0.0405
      4 H1          1.4796    0.1159   -1.6612 H         1 <0>         0.1376
      5 C4          0.9167   -1.9328   -1.2889 C.3       1 <0>        -0.0062
      6 H2          1.3963   -2.3075   -2.1932 H         1 <0>         0.1561
      7 C5          1.8785   -2.0596   -0.1021 C.3       1 <0>        -0.1826
      8 C6          1.2061   -1.5198    1.1541 C.3       1 <0>         0.2993
      9 H3          1.9797   -1.4243    1.9161 H         1 <0>         0.1558
     10 O1          0.6555   -0.2442    0.9666 O.3       1 <0>        -0.3230
     11 N1          0.2189   -2.4746    1.6600 N.pl3     1 <0>        -0.5360
     12 C7          0.4705   -3.5508    2.4739 C.ar      1 <0>         0.1461
     13 C8          1.6649   -4.0152    3.0240 C.ar      1 <0>        -0.1504
     14 C9          1.5948   -5.1456    3.8201 C.ar      1 <0>        -0.0584
     15 C10         0.4006   -5.7997    4.0696 C.ar      1 <0>        -0.1441
     16 C11        -0.7984   -5.3597    3.5358 C.ar      1 <0>        -0.0290
     17 C12        -0.7487   -4.2198    2.7307 C.ar      1 <0>        -0.1115
     18 C13        -1.7893   -3.4830    2.0197 C.ar      1 <0>         0.0213
     19 C14        -1.1442   -2.4197    1.3841 C.ar      1 <0>         0.0473
     20 C15        -1.8806   -1.5095    0.6175 C.ar      1 <0>         0.0846
     21 N2         -1.4718   -0.3951   -0.1095 N.pl3     1 <0>        -0.5182
     22 C16        -2.5611    0.1913   -0.7090 C.ar      1 <0>         0.1628
     23 C17        -2.6521    1.3277   -1.5118 C.ar      1 <0>        -0.1327
     24 C18        -3.9109    1.6745   -1.9733 C.ar      1 <0>        -0.0716
     25 C19        -5.0393    0.9368   -1.6616 C.ar      1 <0>        -0.1386
     26 C20        -4.9745   -0.1955   -0.8662 C.ar      1 <0>        -0.0405
     27 C21        -3.7147   -0.5596   -0.3919 C.ar      1 <0>        -0.1042
     28 C22        -3.2693   -1.6660    0.4845 C.ar      1 <0>        -0.0171
     29 C23        -3.9084   -2.7313    1.1102 C.ar      1 <0>        -0.0268
     30 C24        -3.1873   -3.6421    1.8754 C.ar      1 <0>        -0.1120
     31 C25        -4.1221   -4.6480    2.4030 C.2       1 <0>         0.5712
     32 O2         -3.8062   -5.5851    3.1110 O.2       1 <0>        -0.4999
     33 N3         -5.3744   -4.3851    1.9926 N.am      1 <0>        -0.7338
     34 C26        -5.3495   -3.1771    1.1601 C.3       1 <0>         0.3531
     35 H4         -5.7060   -3.4063    0.1559 H         1 <0>         0.1073
     36 O3         -6.1592   -2.1576    1.7492 O.3       1 <0>        -0.5461
     37 N4         -0.3067   -2.7008   -1.0216 N.4       1 <0>        -0.5258
     38 C27         0.0145   -4.1336   -0.9773 C.3       1 <0>        -0.0504
     39 O4         -0.3340   -0.2979   -2.5607 O.3       1 <0>        -0.3612
     40 C28         0.3101   -0.0933   -3.8198 C.3       1 <0>         0.0162
     41 H5          0.8261    2.0094    0.0240 H         1 <0>         0.0985
     42 H6         -0.3202    1.8814   -1.3317 H         1 <0>         0.1039
     43 H7         -0.9255    1.9818    0.3392 H         1 <0>         0.0924
     44 H8          2.1370   -3.1081    0.0458 H         1 <0>         0.1235
     45 H9          2.7835   -1.4869   -0.3048 H         1 <0>         0.1460
     46 H10         2.6036   -3.5149    2.8368 H         1 <0>         0.1371
     47 H11         2.5026   -5.5304    4.2610 H         1 <0>         0.1364
     48 H12         0.4045   -6.6780    4.6980 H         1 <0>         0.1356
     49 H13        -1.7278   -5.8736    3.7323 H         1 <0>         0.1596
     50 H14        -1.7792    1.9122   -1.7624 H         1 <0>         0.1441
     51 H15        -4.0153    2.5500   -2.5970 H         1 <0>         0.1337
     52 H16        -5.9967    1.2527   -2.0488 H         1 <0>         0.1330
     53 H17        -5.8575   -0.7687   -0.6249 H         1 <0>         0.1424
     54 H18        -6.1628   -4.9065    2.2103 H         1 <0>         0.4317
     55 H19        -7.0970   -2.3857    1.8091 H         1 <0>         0.3958
     56 H20        -0.6958   -2.4158   -0.1353 H         1 <0>         0.4181
     57 H21        -0.8932   -4.7035   -0.7789 H         1 <0>         0.1257
     58 H22         0.4349   -4.4415   -1.9347 H         1 <0>         0.1262
     59 H23         0.7403   -4.3189   -0.1854 H         1 <0>         0.1194
     60 H24         0.9482   -0.9479   -4.0446 H         1 <0>         0.0513
     61 H25        -0.4433    0.0130   -4.6003 H         1 <0>         0.1100
     62 H26         0.9168    0.8112   -3.7748 H         1 <0>         0.0633
     63 H27        -0.9785   -2.5293   -1.7546 H         1 <0>         0.4278
@<TRIPOS>BOND
     1    1    2 1
     2    1   41 1
     3    1   42 1
     4    1   43 1
     5    2   10 1
     6    2   21 1
     7    2    3 1
     8    3    4 1
     9    3    5 1
    10    3   39 1
    11    5    6 1
    12    5    7 1
    13    5   37 1
    14    7    8 1
    15    7   44 1
    16    7   45 1
    17    8    9 1
    18    8   10 1
    19    8   11 1
    20   11   19 1
    21   11   12 1
    22   12   17 ar
    23   12   13 ar
    24   13   14 ar
    25   13   46 1
    26   14   15 ar
    27   14   47 1
    28   15   16 ar
    29   15   48 1
    30   16   17 ar
    31   16   49 1
    32   17   18 1
    33   18   30 ar
    34   18   19 ar
    35   19   20 ar
    36   20   28 ar
    37   20   21 1
    38   21   22 1
    39   22   27 ar
    40   22   23 ar
    41   23   24 ar
    42   23   50 1
    43   24   25 ar
    44   24   51 1
    45   25   26 ar
    46   25   52 1
    47   26   27 ar
    48   26   53 1
    49   27   28 1
    50   28   29 ar
    51   29   34 1
    52   29   30 ar
    53   30   31 1
    54   31   32 2
    55   31   33 am
    56   33   34 1
    57   33   54 1
    58   34   35 1
    59   34   36 1
    60   36   55 1
    61   37   38 1
    62   37   56 1
    63   37   63 1
    64   38   57 1
    65   38   58 1
    66   38   59 1
    67   39   40 1
    68   40   60 1
    69   40   61 1
    70   40   62 1
@<TRIPOS>MOLECULE
ZINC00602803
   57    59     0     0     0
SMALL
USER_CHARGES

@<TRIPOS>ATOM
      1 C1         -1.3402   -4.8618    1.2145 C.3       1 <0>        -0.1534
      2 C2         -0.8181   -3.6495    0.4408 C.3       1 <0>         0.0511
      3 O1         -0.7742   -2.5142    1.3074 O.3       1 <0>        -0.3148
      4 C3         -0.3304   -1.3470    0.7727 C.ar      1 <0>         0.1525
      5 C4          0.0498   -1.3049   -0.5488 C.ar      1 <0>        -0.1831
      6 C5          0.5092   -0.1023   -1.1071 C.ar      1 <0>         0.1876
      7 C6          0.5748    1.0570   -0.2965 C.ar      1 <0>        -0.1304
      8 C7          0.1883    0.9932    1.0499 C.ar      1 <0>        -0.0592
      9 C8         -0.2650   -0.1967    1.5740 C.ar      1 <0>         0.1185
     10 N1         -0.6575   -0.2608    2.9161 N.am      1 <0>        -0.6449
     11 C9         -0.1566    0.6173    3.8075 C.2       1 <0>         0.5328
     12 O2          0.7152    1.3957    3.4703 O.2       1 <0>        -0.5071
     13 C10        -0.6641    0.6344    5.1877 C.2       1 <0>        -0.1271
     14 C11        -0.1697    1.5011    6.0673 C.2       1 <0>        -0.1492
     15 C12        -0.6897    1.5186    7.4817 C.3       1 <0>         0.0302
     16 C13         1.3312    2.5206    8.3617 C.3       1 <0>        -0.0486
     17 C14        -0.0528    1.1357    9.7861 C.3       1 <0>        -0.0433
     18 C15         1.0386    2.2666   -0.8642 C.ar      1 <0>         0.2844
     19 C16         1.4144    2.2536   -2.2161 C.ar      1 <0>        -0.1029
     20 C17         1.3165    1.0573   -2.9447 C.ar      1 <0>         0.2010
     21 N2          0.8834   -0.0478   -2.3940 N.ar      1 <0>        -0.4743
     22 C18         1.8922    3.4476   -2.8459 C.1       1 <0>         0.2469
     23 N3          2.2712    4.3948   -3.3456 N.1       1 <0>        -0.3851
     24 N4          1.1194    3.4219   -0.1130 N.pl3     1 <0>        -0.6979
     25 C19         2.3677    3.9814    0.1773 C.ar      1 <0>         0.1846
     26 C20         3.4715    3.1592    0.3659 C.ar      1 <0>        -0.1231
     27 C21         4.7048    3.7137    0.6463 C.ar      1 <0>        -0.1069
     28 C22         4.8398    5.0877    0.7520 C.ar      1 <0>         0.0844
     29 C23         3.7394    5.9099    0.5700 C.ar      1 <0>        -0.0407
     30 C24         2.5044    5.3592    0.2831 C.ar      1 <0>        -0.1222
     31 Cl1         3.9119    7.6322    0.7020 Cl        1 <0>        -0.0373
     32 F1          6.0462    5.6274    1.0324 F         1 <0>        -0.1244
     33 H1         -2.3423   -4.6506    1.5877 H         1 <0>         0.0676
     34 H2         -1.3737   -5.7279    0.5535 H         1 <0>         0.0859
     35 H3         -0.6765   -5.0706    2.0536 H         1 <0>         0.0665
     36 H4         -1.4818   -3.4407   -0.3983 H         1 <0>         0.0727
     37 H5          0.1840   -3.8607    0.0676 H         1 <0>         0.0719
     38 H6         -0.0049   -2.1965   -1.1558 H         1 <0>         0.1557
     39 H7          0.2375    1.8756    1.6707 H         1 <0>         0.1646
     40 H8         -1.2900   -0.9373    3.2047 H         1 <0>         0.4221
     41 H9         -1.4381   -0.0567    5.4870 H         1 <0>         0.1454
     42 H10         0.6043    2.1922    5.7680 H         1 <0>         0.1533
     43 H11        -1.1915    2.4672    7.6726 H         1 <0>         0.1468
     44 H12        -1.3959    0.6999    7.6193 H         1 <0>         0.1366
     45 H13         0.7789    3.4221    8.6269 H         1 <0>         0.1257
     46 H14         2.1523    2.3777    9.0642 H         1 <0>         0.1250
     47 H15         1.7302    2.6227    7.3524 H         1 <0>         0.1232
     48 H16        -0.6601    0.2309    9.8124 H         1 <0>         0.1226
     49 H17         0.7976    1.0222   10.4584 H         1 <0>         0.1252
     50 H18        -0.6553    1.9870   10.1029 H         1 <0>         0.1250
     51 H19         1.6056    1.0492   -3.9853 H         1 <0>         0.1765
     52 H20         0.3102    3.8456    0.2136 H         1 <0>         0.4201
     53 H21         3.3660    2.0871    0.2888 H         1 <0>         0.1375
     54 H22         5.5639    3.0747    0.7881 H         1 <0>         0.1500
     55 H23         1.6466    6.0000    0.1416 H         1 <0>         0.1457
     56 N5          0.4465    1.3376    8.4096 N.4       1 <0>        -0.3970
     57 H24         0.9816    0.5092    8.1241 H         1 <0>         0.4334
@<TRIPOS>BOND
     1    1    2 1
     2    1   33 1
     3    1   34 1
     4    1   35 1
     5    2    3 1
     6    2   36 1
     7    2   37 1
     8    3    4 1
     9    4    9 ar
    10    4    5 ar
    11    5    6 ar
    12    5   38 1
    13    6   21 ar
    14    6    7 ar
    15    7    8 ar
    16    7   18 ar
    17    8    9 ar
    18    8   39 1
    19    9   10 1
    20   10   11 am
    21   10   40 1
    22   11   12 2
    23   11   13 1
    24   13   14 2
    25   13   41 1
    26   14   15 1
    27   14   42 1
    28   15   43 1
    29   15   44 1
    30   15   56 1
    31   16   45 1
    32   16   46 1
    33   16   47 1
    34   16   56 1
    35   17   48 1
    36   17   49 1
    37   17   50 1
    38   17   56 1
    39   18   19 ar
    40   18   24 1
    41   19   20 ar
    42   19   22 1
    43   20   21 ar
    44   20   51 1
    45   22   23 3
    46   24   25 1
    47   24   52 1
    48   25   30 ar
    49   25   26 ar
    50   26   27 ar
    51   26   53 1
    52   27   28 ar
    53   27   54 1
    54   28   29 ar
    55   28   32 1
    56   29   30 ar
    57   29   31 1
    58   30   55 1
    59   56   57 1
@<TRIPOS>MOLECULE
ZINC03812168
   64    69     0     0     0
SMALL
USER_CHARGES
dimethylaminomethylBLAHdione
@<TRIPOS>ATOM
      1 C1         -3.6591   -3.4932   -0.5238 C.3       1 <0>        -0.0551
      2 C2         -2.4926   -2.9550   -2.5762 C.3       1 <0>        -0.0445
      3 C3         -2.6578   -1.3072   -0.8098 C.3       1 <0>        -0.0358
      4 C4         -2.4673   -1.1012    0.6860 C.3       1 <0>         0.0654
      5 H1         -3.1645   -1.7751    1.2185 H         1 <0>         0.0947
      6 C5         -2.7230    0.3270    1.1457 C.3       1 <0>        -0.1345
      7 C6         -2.5225    1.3892    0.0793 C.3       1 <0>         0.1021
      8 N1         -1.1339    1.8402    0.0096 N.pl3     1 <0>        -0.4782
      9 C7         -0.0126    1.0747    0.0080 C.2       1 <0>         0.0759
     10 C8          1.1009    1.8532    0.0015 C.2       1 <0>        -0.1124
     11 C9          0.6150    3.2557   -0.0375 C.ar      1 <0>        -0.0829
     12 C10        -0.7846    3.1777   -0.0610 C.ar      1 <0>         0.0902
     13 C11        -1.5354    4.3459   -0.1576 C.ar      1 <0>        -0.1369
     14 C12        -0.9089    5.5725   -0.1941 C.ar      1 <0>        -0.0870
     15 C13         0.4756    5.6497   -0.1263 C.ar      1 <0>        -0.1387
     16 C14         1.2312    4.5008   -0.0317 C.ar      1 <0>        -0.0542
     17 C15         2.5293    1.4989    0.0288 C.2       1 <0>        -0.0575
     18 C16         3.2121    0.4058    0.5546 C.2       1 <0>        -0.0318
     19 C17         2.7061   -0.7744    1.2787 C.2       1 <0>        -0.1258
     20 C18         1.4206   -1.0272    1.6582 C.2       1 <0>         0.1002
     21 N2          1.3169   -2.2819    2.1682 N.pl3     1 <0>        -0.4767
     22 C19         2.5720   -2.8515    2.2654 C.ar      1 <0>         0.0850
     23 C20         3.5031   -1.9214    1.7684 C.ar      1 <0>        -0.0774
     24 C21         4.8560   -2.2219    1.8708 C.ar      1 <0>        -0.0704
     25 C22         5.2705   -3.4529    2.3343 C.ar      1 <0>        -0.1401
     26 C23         4.3436   -4.3996    2.7389 C.ar      1 <0>        -0.0882
     27 C24         3.0009   -4.0952    2.7142 C.ar      1 <0>        -0.1389
     28 C25         0.0751   -2.9597    2.5494 C.3       1 <0>         0.1083
     29 C26        -0.9464   -2.8428    1.4151 C.3       1 <0>         0.0261
     30 O1         -1.1329   -1.4683    1.0718 O.3       1 <0>        -0.3787
     31 C27         4.6407    0.6399    0.2297 C.2       1 <0>         0.5576
     32 O2          5.5801   -0.0982    0.4313 O.2       1 <0>        -0.4501
     33 N3          4.7726    1.8285   -0.3761 N.am      1 <0>        -0.6884
     34 C28         3.5684    2.3701   -0.5773 C.2       1 <0>         0.5496
     35 O3          3.3676    3.4021   -1.1909 O.2       1 <0>        -0.4507
     36 H2         -4.6064   -3.1194   -0.9125 H         1 <0>         0.1320
     37 H3         -3.5558   -4.5494   -0.7723 H         1 <0>         0.1292
     38 H4         -3.6371   -3.3709    0.5591 H         1 <0>         0.1176
     39 H5         -1.6226   -2.4415   -2.9853 H         1 <0>         0.1242
     40 H6         -2.4140   -4.0227   -2.7812 H         1 <0>         0.1266
     41 H7         -3.3976   -2.5618   -3.0392 H         1 <0>         0.1281
     42 H8         -3.6420   -0.9427   -1.1043 H         1 <0>         0.1512
     43 H9         -1.8892   -0.7576   -1.3530 H         1 <0>         0.1401
     44 H10        -3.7581    0.3948    1.5248 H         1 <0>         0.1133
     45 H11        -2.0693    0.5478    1.9998 H         1 <0>         0.1111
     46 H12        -2.8851    1.1097   -0.8943 H         1 <0>         0.0847
     47 H13        -3.1227    2.2722    0.3811 H         1 <0>         0.1001
     48 H14         0.0021   -0.0041    0.0020 H         1 <0>         0.1790
     49 H15        -2.6150    4.2937   -0.2077 H         1 <0>         0.1188
     50 H16        -1.4958    6.4773   -0.2780 H         1 <0>         0.1308
     51 H17         0.9608    6.6157   -0.1385 H         1 <0>         0.1284
     52 H18         2.3072    4.5814    0.0562 H         1 <0>         0.1320
     53 H19         0.6104   -0.3170    1.5917 H         1 <0>         0.1871
     54 H20         5.6126   -1.4944    1.6337 H         1 <0>         0.1514
     55 H21         6.3257   -3.6782    2.3787 H         1 <0>         0.1280
     56 H22         4.6724   -5.3687    3.0799 H         1 <0>         0.1300
     57 H23         2.2783   -4.8297    3.0422 H         1 <0>         0.1175
     58 H24         0.2774   -4.0129    2.7458 H         1 <0>         0.1169
     59 H25        -0.3264   -2.4933    3.4522 H         1 <0>         0.0971
     60 H26        -0.5876   -3.3893    0.5423 H         1 <0>         0.0664
     61 H27        -1.8985   -3.2659    1.7424 H         1 <0>         0.0864
     62 H28         5.6204    2.2247   -0.6318 H         1 <0>         0.4332
     63 N4         -2.5268   -2.7479   -1.1131 N.4       1 <0>        -0.4048
     64 H29        -1.6507   -3.0961   -0.7064 H         1 <0>         0.4232
@<TRIPOS>BOND
     1    1   36 1
     2    1   37 1
     3    1   38 1
     4    1   63 1
     5    2   39 1
     6    2   40 1
     7    2   41 1
     8    2   63 1
     9    3    4 1
    10    3   42 1
    11    3   43 1
    12    3   63 1
    13    4    5 1
    14    4   30 1
    15    4    6 1
    16    6    7 1
    17    6   44 1
    18    6   45 1
    19    7    8 1
    20    7   46 1
    21    7   47 1
    22    8   12 1
    23    8    9 1
    24    9   10 2
    25    9   48 1
    26   10   11 1
    27   10   17 1
    28   11   16 ar
    29   11   12 ar
    30   12   13 ar
    31   13   14 ar
    32   13   49 1
    33   14   15 ar
    34   14   50 1
    35   15   16 ar
    36   15   51 1
    37   16   52 1
    38   17   34 1
    39   17   18 2
    40   18   19 1
    41   18   31 1
    42   19   23 1
    43   19   20 2
    44   20   21 1
    45   20   53 1
    46   21   22 1
    47   21   28 1
    48   22   27 ar
    49   22   23 ar
    50   23   24 ar
    51   24   25 ar
    52   24   54 1
    53   25   26 ar
    54   25   55 1
    55   26   27 ar
    56   26   56 1
    57   27   57 1
    58   28   29 1
    59   28   58 1
    60   28   59 1
    61   29   30 1
    62   29   60 1
    63   29   61 1
    64   31   32 2
    65   31   33 am
    66   33   34 am
    67   33   62 1
    68   34   35 2
    69   63   64 1
