@<TRIPOS>MOLECULE
ZINC01481877
   46    49     0     0     0
SMALL
USER_CHARGES

@<TRIPOS>ATOM
      1 C1          3.9130    1.7146    3.0549 C.3       1 <0>        -0.0474
      2 N1          4.0575    0.3154    2.6315 N.4       1 <0>        -0.3839
      3 C2          4.5769    0.2721    1.2593 C.3       1 <0>        -0.0079
      4 C3          4.8059   -1.1823    0.8423 C.3       1 <0>        -0.1462
      5 C4          3.4784   -1.9426    0.9116 C.3       1 <0>        -0.1380
      6 C5          2.9091   -1.8279    2.3286 C.3       1 <0>        -0.1175
      7 H1          3.5900   -2.3043    3.0340 H         1 <0>         0.1034
      8 C6          2.7504   -0.3497    2.6906 C.3       1 <0>        -0.0041
      9 C7          1.5454   -2.5189    2.3888 C.3       1 <0>        -0.1016
     10 C8          1.7244   -4.0213    2.1614 C.3       1 <0>        -0.0046
     11 C9          0.3789   -4.6166    1.9120 C.ar      1 <0>        -0.0792
     12 C10        -0.0887   -4.6293    0.6013 C.ar      1 <0>        -0.1055
     13 C11        -1.3301   -5.1469    0.2986 C.ar      1 <0>        -0.1089
     14 C12        -2.1324   -5.6614    1.3011 C.ar      1 <0>        -0.0987
     15 C13        -1.6781   -5.6607    2.6033 C.ar      1 <0>        -0.0878
     16 C14        -0.4203   -5.1467    2.9090 C.ar      1 <0>        -0.1034
     17 S1          0.1385   -5.2059    4.5778 S.3       1 <0>         0.0224
     18 C15         1.8916   -5.1152    4.4418 C.ar      1 <0>        -0.1000
     19 C16         2.4893   -4.5776    3.3160 C.ar      1 <0>        -0.0759
     20 C17         3.8786   -4.5446    3.2463 C.ar      1 <0>        -0.1158
     21 C18         4.6502   -5.0273    4.2821 C.ar      1 <0>        -0.1139
     22 C19         4.0482   -5.5528    5.4111 C.ar      1 <0>        -0.1005
     23 C20         2.6722   -5.5972    5.4900 C.ar      1 <0>        -0.0860
     24 H2          3.5336    1.7479    4.0762 H         1 <0>         0.1238
     25 H3          4.8832    2.2095    3.0114 H         1 <0>         0.1244
     26 H4          3.2149    2.2247    2.3912 H         1 <0>         0.1217
     27 H5          3.8568    0.7341    0.5840 H         1 <0>         0.1283
     28 H6          5.5201    0.8163    1.2110 H         1 <0>         0.1306
     29 H7          5.1898   -1.2124   -0.1774 H         1 <0>         0.1134
     30 H8          5.5262   -1.6453    1.5169 H         1 <0>         0.0878
     31 H9          2.7741   -1.5118    0.1999 H         1 <0>         0.0851
     32 H10         3.6464   -2.9921    0.6701 H         1 <0>         0.0947
     33 H11         2.3451   -0.2645    3.6988 H         1 <0>         0.1305
     34 H12         2.0692    0.1256    1.9848 H         1 <0>         0.1294
     35 H13         1.0957   -2.3506    3.3673 H         1 <0>         0.0809
     36 H14         0.8960   -2.1092    1.6152 H         1 <0>         0.0838
     37 H15         2.3238   -4.1564    1.2611 H         1 <0>         0.0969
     38 H16         0.5288   -4.2282   -0.1889 H         1 <0>         0.1248
     39 H17        -1.6774   -5.1503   -0.7241 H         1 <0>         0.1311
     40 H18        -3.1079   -6.0605    1.0657 H         1 <0>         0.1357
     41 H19        -2.3009   -6.0604    3.3898 H         1 <0>         0.1336
     42 H20         4.3588   -4.1352    2.3698 H         1 <0>         0.1228
     43 H21         5.7274   -4.9952    4.2115 H         1 <0>         0.1288
     44 H22         4.6518   -5.9253    6.2256 H         1 <0>         0.1348
     45 H23         2.1973   -6.0076    6.3689 H         1 <0>         0.1340
     46 H24         4.7020   -0.1566    3.2480 H         1 <0>         0.4241
@<TRIPOS>BOND
     1    1    2 1
     2    1   24 1
     3    1   25 1
     4    1   26 1
     5    2    8 1
     6    2    3 1
     7    2   46 1
     8    3    4 1
     9    3   27 1
    10    3   28 1
    11    4    5 1
    12    4   29 1
    13    4   30 1
    14    5    6 1
    15    5   31 1
    16    5   32 1
    17    6    7 1
    18    6    8 1
    19    6    9 1
    20    8   33 1
    21    8   34 1
    22    9   10 1
    23    9   35 1
    24    9   36 1
    25   10   19 1
    26   10   11 1
    27   10   37 1
    28   11   16 ar
    29   11   12 ar
    30   12   13 ar
    31   12   38 1
    32   13   14 ar
    33   13   39 1
    34   14   15 ar
    35   14   40 1
    36   15   16 ar
    37   15   41 1
    38   16   17 1
    39   17   18 1
    40   18   23 ar
    41   18   19 ar
    42   19   20 ar
    43   20   21 ar
    44   20   42 1
    45   21   22 ar
    46   21   43 1
    47   22   23 ar
    48   22   44 1
    49   23   45 1
@<TRIPOS>MOLECULE
ZINC01713960
   46    49     0     0     0
SMALL
USER_CHARGES

@<TRIPOS>ATOM
      1 C1         -0.0178    1.4648    0.0101 C.3       1 <0>        -0.0474
      2 N1          0.0021   -0.0041    0.0020 N.4       1 <0>        -0.3839
      3 C2          0.6815   -0.4760   -1.2105 C.3       1 <0>        -0.0076
      4 C3          0.6339   -2.0045   -1.2642 C.3       1 <0>        -0.1465
      5 C4          1.3359   -2.5754   -0.0287 C.3       1 <0>        -0.1390
      6 C5          0.6658   -2.0178    1.2303 C.3       1 <0>        -0.1178
      7 H1         -0.3718   -2.3496    1.2677 H         1 <0>         0.1044
      8 C6          0.7122   -0.4888    1.1916 C.3       1 <0>        -0.0040
      9 C7          1.4081   -2.5213    2.4698 C.3       1 <0>        -0.1012
     10 C8          1.2591   -4.0406    2.5715 C.3       1 <0>        -0.0043
     11 C9         -0.1970   -4.3606    2.6380 C.ar      1 <0>        -0.0761
     12 C10        -0.8769   -4.5281    1.4354 C.ar      1 <0>        -0.1172
     13 C11        -2.2269   -4.8076    1.4194 C.ar      1 <0>        -0.1151
     14 C12        -2.9271   -4.9235    2.6066 C.ar      1 <0>        -0.1005
     15 C13        -2.2638   -4.7663    3.8055 C.ar      1 <0>        -0.0864
     16 C14        -0.8981   -4.4933    3.8232 C.ar      1 <0>        -0.0998
     17 S1         -0.0821   -4.3440    5.3763 S.3       1 <0>         0.0225
     18 C15         1.6067   -4.6720    5.0016 C.ar      1 <0>        -0.1037
     19 C16         2.0924   -4.5131    3.7161 C.ar      1 <0>        -0.0789
     20 C17         3.4300   -4.8027    3.4647 C.ar      1 <0>        -0.1052
     21 C18         4.2632   -5.2298    4.4769 C.ar      1 <0>        -0.1085
     22 C19         3.7763   -5.3757    5.7633 C.ar      1 <0>        -0.0987
     23 C20         2.4510   -5.0981    6.0244 C.ar      1 <0>        -0.0879
     24 H2          1.0047    1.8421    0.0024 H         1 <0>         0.1217
     25 H3         -0.5450    1.8259   -0.8730 H         1 <0>         0.1243
     26 H4         -0.5280    1.8163    0.9069 H         1 <0>         0.1237
     27 H5          0.1827   -0.0663   -2.0888 H         1 <0>         0.1305
     28 H6          1.7201   -0.1456   -1.1964 H         1 <0>         0.1283
     29 H7         -0.4044   -2.3361   -1.2786 H         1 <0>         0.0881
     30 H8          1.1404   -2.3531   -2.1643 H         1 <0>         0.1134
     31 H9          1.2554   -3.6625   -0.0335 H         1 <0>         0.0953
     32 H10         2.3869   -2.2866   -0.0407 H         1 <0>         0.0852
     33 H11         1.7502   -0.1581    1.1545 H         1 <0>         0.1292
     34 H12         0.2361   -0.0886    2.0867 H         1 <0>         0.1303
     35 H13         2.4644   -2.2644    2.3900 H         1 <0>         0.0837
     36 H14         0.9869   -2.0544    3.3602 H         1 <0>         0.0807
     37 H15         1.6583   -4.4799    1.6574 H         1 <0>         0.0965
     38 H16        -0.3402   -4.4376    0.5025 H         1 <0>         0.1248
     39 H17        -2.7391   -4.9359    0.4774 H         1 <0>         0.1288
     40 H18        -3.9861   -5.1354    2.5948 H         1 <0>         0.1346
     41 H19        -2.8061   -4.8549    4.7353 H         1 <0>         0.1339
     42 H20         3.8207   -4.6910    2.4641 H         1 <0>         0.1252
     43 H21         5.2987   -5.4515    4.2646 H         1 <0>         0.1313
     44 H22         4.4297   -5.7042    6.5579 H         1 <0>         0.1357
     45 H23         2.0656   -5.2115    7.0269 H         1 <0>         0.1336
     46 H24        -0.9449   -0.3523    0.0117 H         1 <0>         0.4242
@<TRIPOS>BOND
     1    1    2 1
     2    1   24 1
     3    1   25 1
     4    1   26 1
     5    2    8 1
     6    2    3 1
     7    2   46 1
     8    3    4 1
     9    3   27 1
    10    3   28 1
    11    4    5 1
    12    4   29 1
    13    4   30 1
    14    5    6 1
    15    5   31 1
    16    5   32 1
    17    6    7 1
    18    6    8 1
    19    6    9 1
    20    8   33 1
    21    8   34 1
    22    9   10 1
    23    9   35 1
    24    9   36 1
    25   10   19 1
    26   10   11 1
    27   10   37 1
    28   11   16 ar
    29   11   12 ar
    30   12   13 ar
    31   12   38 1
    32   13   14 ar
    33   13   39 1
    34   14   15 ar
    35   14   40 1
    36   15   16 ar
    37   15   41 1
    38   16   17 1
    39   17   18 1
    40   18   23 ar
    41   18   19 ar
    42   19   20 ar
    43   20   21 ar
    44   20   42 1
    45   21   22 ar
    46   21   43 1
    47   22   23 ar
    48   22   44 1
    49   23   45 1
@<TRIPOS>MOLECULE
ZINC00004227
   47    49     0     0     0
SMALL
USER_CHARGES

@<TRIPOS>ATOM
      1 C1         -0.3864    1.2876   -1.8325 C.3       1 <0>        -0.1859
      2 C2         -0.3157   -0.2095   -2.1403 C.3       1 <0>        -0.0240
      3 N1          0.6186   -0.8571   -1.2097 N.4       1 <0>        -0.3832
      4 C3          0.0897   -0.7660    0.1577 C.3       1 <0>        -0.0204
      5 C4          1.1332   -1.2937    1.1443 C.3       1 <0>        -0.1883
      6 C5          0.7782   -2.2697   -1.5800 C.3       1 <0>        -0.0016
      7 H1          1.3799   -2.7771   -0.8260 H         1 <0>         0.1421
      8 C6         -0.5979   -2.9331   -1.6655 C.3       1 <0>        -0.1800
      9 C7          1.4757   -2.3652   -2.9383 C.3       1 <0>         0.0998
     10 N2          2.7748   -1.6917   -2.8686 N.pl3     1 <0>        -0.5905
     11 C8          2.8771   -0.3657   -3.3027 C.ar      1 <0>         0.1504
     12 C9          2.1619    0.0653   -4.4091 C.ar      1 <0>        -0.1519
     13 C10         2.2696    1.3782   -4.8336 C.ar      1 <0>        -0.0755
     14 C11         3.0873    2.2665   -4.1616 C.ar      1 <0>        -0.1184
     15 C12         3.8065    1.8466   -3.0545 C.ar      1 <0>        -0.0534
     16 C13         3.7022    0.5369   -2.6267 C.ar      1 <0>        -0.1559
     17 S1          4.6067   -0.0283   -1.2193 S.3       1 <0>         0.0092
     18 C14         4.8280   -1.7433   -1.5774 C.ar      1 <0>        -0.1482
     19 C15         3.8768   -2.3910   -2.3646 C.ar      1 <0>         0.1681
     20 C16         4.0390   -3.7383   -2.6468 C.ar      1 <0>        -0.1418
     21 C17         5.1328   -4.4229   -2.1464 C.ar      1 <0>        -0.0754
     22 C18         6.0682   -3.7723   -1.3648 C.ar      1 <0>        -0.1192
     23 C19         5.9194   -2.4329   -1.0851 C.ar      1 <0>        -0.0550
     24 H2         -0.7338    1.4322   -0.8095 H         1 <0>         0.0818
     25 H3          0.6037    1.7290   -1.9459 H         1 <0>         0.0783
     26 H4         -1.0796    1.7680   -2.5230 H         1 <0>         0.1082
     27 H5         -1.3058   -0.6509   -2.0269 H         1 <0>         0.1351
     28 H6          0.0317   -0.3541   -3.1633 H         1 <0>         0.1246
     29 H7         -0.1374    0.2743    0.3909 H         1 <0>         0.1328
     30 H8         -0.8191   -1.3627    0.2363 H         1 <0>         0.1322
     31 H9          0.7229   -1.2709    2.1539 H         1 <0>         0.1079
     32 H10         1.3957   -2.3186    0.8819 H         1 <0>         0.0772
     33 H11         2.0244   -0.6677    1.1001 H         1 <0>         0.0828
     34 H12        -1.1997   -2.4256   -2.4194 H         1 <0>         0.0854
     35 H13        -0.4795   -3.9812   -1.9402 H         1 <0>         0.1081
     36 H14        -1.0948   -2.8650   -0.6977 H         1 <0>         0.0881
     37 H15         1.6234   -3.4135   -3.1980 H         1 <0>         0.1245
     38 H16         0.8584   -1.8861   -3.6983 H         1 <0>         0.1070
     39 H17         1.5211   -0.6232   -4.9398 H         1 <0>         0.1331
     40 H18         1.7110    1.7105   -5.6961 H         1 <0>         0.1391
     41 H19         3.1660    3.2891   -4.5000 H         1 <0>         0.1408
     42 H20         4.4462    2.5397   -2.5284 H         1 <0>         0.1425
     43 H21         3.3119   -4.2538   -3.2567 H         1 <0>         0.1319
     44 H22         5.2558   -5.4727   -2.3680 H         1 <0>         0.1375
     45 H23         6.9190   -4.3140   -0.9786 H         1 <0>         0.1392
     46 H24         6.6510   -1.9255   -0.4738 H         1 <0>         0.1394
     47 H25         1.5139   -0.3941   -1.2556 H         1 <0>         0.4214
@<TRIPOS>BOND
     1    1    2 1
     2    1   24 1
     3    1   25 1
     4    1   26 1
     5    2    3 1
     6    2   27 1
     7    2   28 1
     8    3    4 1
     9    3    6 1
    10    3   47 1
    11    4    5 1
    12    4   29 1
    13    4   30 1
    14    5   31 1
    15    5   32 1
    16    5   33 1
    17    6    7 1
    18    6    8 1
    19    6    9 1
    20    8   34 1
    21    8   35 1
    22    8   36 1
    23    9   10 1
    24    9   37 1
    25    9   38 1
    26   10   19 1
    27   10   11 1
    28   11   16 ar
    29   11   12 ar
    30   12   13 ar
    31   12   39 1
    32   13   14 ar
    33   13   40 1
    34   14   15 ar
    35   14   41 1
    36   15   16 ar
    37   15   42 1
    38   16   17 1
    39   17   18 1
    40   18   23 ar
    41   18   19 ar
    42   19   20 ar
    43   20   21 ar
    44   20   43 1
    45   21   22 ar
    46   21   44 1
    47   22   23 ar
    48   22   45 1
    49   23   46 1
@<TRIPOS>MOLECULE
ZINC00056651
   47    49     0     0     0
SMALL
USER_CHARGES

@<TRIPOS>ATOM
      1 C1          1.1666    0.9115   -2.7285 C.3       1 <0>        -0.1835
      2 C2          0.5062   -0.4267   -2.3911 C.3       1 <0>        -0.0270
      3 N1          1.0642   -0.9452   -1.1350 N.4       1 <0>        -0.3752
      4 C3          0.6710   -0.0670   -0.0251 C.3       1 <0>        -0.0493
      5 C4          1.3831   -0.5116    1.2540 C.3       1 <0>        -0.1755
      6 C5          0.5503   -2.3000   -0.8933 C.3       1 <0>        -0.0010
      7 H1          0.6745   -2.5532    0.1596 H         1 <0>         0.1431
      8 C6          1.3252   -3.3004   -1.7533 C.3       1 <0>        -0.1782
      9 C7         -0.9342   -2.3552   -1.2593 C.3       1 <0>         0.0981
     10 N2         -1.7069   -1.5824   -0.2836 N.pl3     1 <0>        -0.5884
     11 C8         -1.7847   -2.0387    1.0366 C.ar      1 <0>         0.1667
     12 C9         -1.8783   -3.3957    1.3033 C.ar      1 <0>        -0.1429
     13 C10        -1.9567   -3.8394    2.6119 C.ar      1 <0>        -0.0749
     14 C11        -1.9425   -2.9379    3.6590 C.ar      1 <0>        -0.1193
     15 C12        -1.8491   -1.5794    3.4040 C.ar      1 <0>        -0.0539
     16 C13        -1.7704   -1.1314    2.0992 C.ar      1 <0>        -0.1520
     17 S1         -1.6508    0.5938    1.7422 S.3       1 <0>         0.0153
     18 C14        -2.4017    0.7016    0.1476 C.ar      1 <0>        -0.1603
     19 C15        -2.3413   -0.4060   -0.6971 C.ar      1 <0>         0.1614
     20 C16        -2.9232   -0.3294   -1.9528 C.ar      1 <0>        -0.1525
     21 C17        -3.5509    0.8370   -2.3540 C.ar      1 <0>        -0.0723
     22 C18        -3.6027    1.9301   -1.5104 C.ar      1 <0>        -0.1192
     23 C19        -3.0339    1.8610   -0.2590 C.ar      1 <0>        -0.0506
     24 H2          0.9764    1.6233   -1.9252 H         1 <0>         0.0797
     25 H3          2.2414    0.7683   -2.8402 H         1 <0>         0.0811
     26 H4          0.7525    1.2963   -3.6605 H         1 <0>         0.1056
     27 H5         -0.5686   -0.2835   -2.2794 H         1 <0>         0.1274
     28 H6          0.6964   -1.1385   -3.1943 H         1 <0>         0.1299
     29 H7          0.9504    0.9605   -0.2581 H         1 <0>         0.1263
     30 H8         -0.4077   -0.1261    0.1203 H         1 <0>         0.1564
     31 H9          1.1698    0.1974    2.0539 H         1 <0>         0.1057
     32 H10         1.0287   -1.5014    1.5419 H         1 <0>         0.0735
     33 H11         2.4581   -0.5477    1.0776 H         1 <0>         0.0750
     34 H12         1.2719   -2.9983   -2.7992 H         1 <0>         0.0822
     35 H13         2.3672   -3.3231   -1.4343 H         1 <0>         0.0886
     36 H14         0.8885   -4.2926   -1.6390 H         1 <0>         0.1078
     37 H15        -1.0791   -1.9331   -2.2538 H         1 <0>         0.1132
     38 H16        -1.2721   -3.3915   -1.2517 H         1 <0>         0.1161
     39 H17        -1.8905   -4.1064    0.4902 H         1 <0>         0.1322
     40 H18        -2.0297   -4.8974    2.8160 H         1 <0>         0.1379
     41 H19        -2.0048   -3.2927    4.6771 H         1 <0>         0.1396
     42 H20        -1.8381   -0.8736    4.2214 H         1 <0>         0.1408
     43 H21        -2.8865   -1.1794   -2.6180 H         1 <0>         0.1339
     44 H22        -4.0030    0.8934   -3.3333 H         1 <0>         0.1394
     45 H23        -4.0949    2.8363   -1.8312 H         1 <0>         0.1411
     46 H24        -3.0748    2.7160    0.3995 H         1 <0>         0.1417
     47 H25         2.0707   -0.9741   -1.2007 H         1 <0>         0.4165
@<TRIPOS>BOND
     1    1    2 1
     2    1   24 1
     3    1   25 1
     4    1   26 1
     5    2    3 1
     6    2   27 1
     7    2   28 1
     8    3    4 1
     9    3    6 1
    10    3   47 1
    11    4    5 1
    12    4   29 1
    13    4   30 1
    14    5   31 1
    15    5   32 1
    16    5   33 1
    17    6    7 1
    18    6    8 1
    19    6    9 1
    20    8   34 1
    21    8   35 1
    22    8   36 1
    23    9   10 1
    24    9   37 1
    25    9   38 1
    26   10   19 1
    27   10   11 1
    28   11   16 ar
    29   11   12 ar
    30   12   13 ar
    31   12   39 1
    32   13   14 ar
    33   13   40 1
    34   14   15 ar
    35   14   41 1
    36   15   16 ar
    37   15   42 1
    38   16   17 1
    39   17   18 1
    40   18   23 ar
    41   18   19 ar
    42   19   20 ar
    43   20   21 ar
    44   20   43 1
    45   21   22 ar
    46   21   44 1
    47   22   23 ar
    48   22   45 1
    49   23   46 1
@<TRIPOS>MOLECULE
ZINC03779067
   43    47     0     0     0
SMALL
USER_CHARGES

@<TRIPOS>ATOM
      1 C1         -0.0173    1.4248    0.0099 C.3       1 <0>         0.0136
      2 O1          0.0021   -0.0041    0.0020 O.3       1 <0>        -0.2887
      3 C2          0.6264   -0.6189    1.0424 C.ar      1 <0>         0.1429
      4 C3          1.2031    0.1516    2.0530 C.ar      1 <0>        -0.1202
      5 C4          1.8418   -0.4341    3.1045 C.ar      1 <0>        -0.0704
      6 C5          1.9261   -1.8316    3.1779 C.ar      1 <0>        -0.0105
      7 C6          2.5968   -2.4870    4.2229 C.ar      1 <0>        -0.0614
      8 C7          2.6403   -3.8693    4.2273 C.ar      1 <0>         0.1412
      9 N1          2.0106   -4.5918    3.2934 N.ar      1 <0>        -0.3307
     10 C8          1.3947   -4.0242    2.2779 C.ar      1 <0>         0.1975
     11 C9          1.3272   -2.6290    2.1659 C.ar      1 <0>        -0.0787
     12 C10         0.6770   -1.9992    1.0889 C.ar      1 <0>         0.0923
     13 O2          0.1092   -2.7405    0.1016 O.3       1 <0>        -0.3137
     14 C11         0.9357   -3.0758   -1.0149 C.3       1 <0>         0.0259
     15 C12         1.9532   -6.0541    3.3995 C.3       1 <0>         0.0528
     16 C13         3.2796   -6.6194    3.8964 C.3       1 <0>        -0.0988
     17 C14         3.6912   -5.9129    5.1642 C.ar      1 <0>        -0.0585
     18 C15         3.3818   -4.5627    5.3129 C.ar      1 <0>        -0.0838
     19 C16         3.7527   -3.8517    6.4596 C.ar      1 <0>        -0.0631
     20 C17         4.4337   -4.5508    7.4439 C.ar      1 <0>         0.0424
     21 C18         4.7346   -5.9145    7.2930 C.ar      1 <0>         0.0759
     22 C19         4.3666   -6.6141    6.1497 C.ar      1 <0>        -0.0891
     23 O3          5.3933   -6.3392    8.3951 O.3       1 <0>        -0.2931
     24 C20         5.8491   -5.1413    9.0576 C.3       1 <0>         0.2095
     25 O4          4.9099   -4.1296    8.6377 O.3       1 <0>        -0.2956
     26 H1          1.0053    1.8021    0.0021 H         1 <0>         0.0669
     27 H2         -0.5445    1.7859   -0.8732 H         1 <0>         0.1178
     28 H3         -0.5275    1.7763    0.9067 H         1 <0>         0.0680
     29 H4          1.1426    1.2286    2.0006 H         1 <0>         0.1623
     30 H5          2.2822    0.1764    3.8789 H         1 <0>         0.1638
     31 H6          3.0714   -1.9207    5.0105 H         1 <0>         0.1839
     32 H7          0.9352   -4.6421    1.5207 H         1 <0>         0.2120
     33 H8          0.3611   -3.6674   -1.7276 H         1 <0>         0.1111
     34 H9          1.2828   -2.1622   -1.4974 H         1 <0>         0.0603
     35 H10         1.7936   -3.6537   -0.6712 H         1 <0>         0.0476
     36 H11         1.1624   -6.3315    4.0965 H         1 <0>         0.1313
     37 H12         1.7293   -6.4755    2.4195 H         1 <0>         0.1383
     38 H13         3.1676   -7.6853    4.0953 H         1 <0>         0.1300
     39 H14         4.0448   -6.4720    3.1344 H         1 <0>         0.1062
     40 H15         3.5189   -2.8034    6.5727 H         1 <0>         0.1569
     41 H16         4.5977   -7.6628    6.0344 H         1 <0>         0.1608
     42 H17         5.8163   -5.2672   10.1398 H         1 <0>         0.1448
     43 H18         6.8574   -4.8850    8.7323 H         1 <0>         0.1004
@<TRIPOS>BOND
     1    1    2 1
     2    1   26 1
     3    1   27 1
     4    1   28 1
     5    2    3 1
     6    3   12 ar
     7    3    4 ar
     8    4    5 ar
     9    4   29 1
    10    5    6 ar
    11    5   30 1
    12    6   11 ar
    13    6    7 ar
    14    7    8 ar
    15    7   31 1
    16    8   18 1
    17    8    9 ar
    18    9   10 ar
    19    9   15 1
    20   10   11 ar
    21   10   32 1
    22   11   12 ar
    23   12   13 1
    24   13   14 1
    25   14   33 1
    26   14   34 1
    27   14   35 1
    28   15   16 1
    29   15   36 1
    30   15   37 1
    31   16   17 1
    32   16   38 1
    33   16   39 1
    34   17   22 ar
    35   17   18 ar
    36   18   19 ar
    37   19   20 ar
    38   19   40 1
    39   20   25 1
    40   20   21 ar
    41   21   22 ar
    42   21   23 1
    43   22   41 1
    44   23   24 1
    45   24   25 1
    46   24   42 1
    47   24   43 1
@<TRIPOS>MOLECULE
ZINC00491073
   43    46     0     0     0
SMALL
USER_CHARGES

@<TRIPOS>ATOM
      1 C1         -0.0178    1.4648    0.0101 C.3       1 <0>        -0.0508
      2 N1          0.0021   -0.0041    0.0020 N.4       1 <0>        -0.3695
      3 C2         -1.3487   -0.4766   -0.1051 C.3       1 <0>        -0.0209
      4 C3         -1.4957   -1.8208   -0.7552 C.3       1 <0>        -0.1240
      5 C4         -1.1986   -2.9607    0.1979 C.3       1 <0>        -0.0106
      6 C5         -2.0769   -2.9074    1.4042 C.2       1 <0>        -0.1408
      7 C6         -2.9213   -3.8188    1.7532 C.2       1 <0>        -0.1505
      8 C7         -3.1380   -5.0863    0.9901 C.3       1 <0>         0.1315
      9 H1         -4.2051   -5.3069    0.9636 H         1 <0>         0.0752
     10 C8         -2.6198   -4.9844   -0.4299 C.3       1 <0>        -0.1186
     11 C9         -1.2869   -4.2969   -0.5425 C.3       1 <0>         0.0975
     12 H2         -1.0674   -4.1273   -1.5966 H         1 <0>         0.0880
     13 O1         -0.2232   -5.0787    0.0155 O.3       1 <0>        -0.2581
     14 C10         0.7233   -4.2458    0.5013 C.ar      1 <0>         0.0952
     15 C11         0.2527   -2.9329    0.6428 C.ar      1 <0>        -0.1178
     16 C12         1.0216   -1.9269    1.1409 C.ar      1 <0>        -0.1302
     17 C13         2.3121   -2.2785    1.5668 C.ar      1 <0>        -0.0934
     18 C14         2.7995   -3.5564    1.4290 C.ar      1 <0>        -0.1641
     19 C15         2.0296   -4.5760    0.8827 C.ar      1 <0>         0.1377
     20 O2          2.5209   -5.8345    0.7267 O.3       1 <0>        -0.2954
     21 C16         3.8668   -6.0626    1.1493 C.3       1 <0>         0.0215
     22 C17         0.7068   -0.4603    1.1832 C.3       1 <0>         0.0520
     23 O3         -2.4591   -6.1527    1.6564 O.3       1 <0>        -0.5466
     24 H3          1.0047    1.8421    0.0024 H         1 <0>         0.1273
     25 H4         -0.5450    1.8259   -0.8730 H         1 <0>         0.1278
     26 H5         -0.5280    1.8163    0.9069 H         1 <0>         0.1247
     27 H6         -1.7753   -0.5300    0.8966 H         1 <0>         0.1288
     28 H7         -1.9228    0.2491   -0.6812 H         1 <0>         0.1383
     29 H8         -2.5166   -1.9252   -1.1226 H         1 <0>         0.1215
     30 H9         -0.8106   -1.8805   -1.6009 H         1 <0>         0.0938
     31 H10        -1.9990   -2.0352    2.0363 H         1 <0>         0.1089
     32 H11        -3.5045   -3.6570    2.6477 H         1 <0>         0.1222
     33 H12        -2.5282   -5.9902   -0.8398 H         1 <0>         0.1019
     34 H13        -3.3468   -4.4337   -1.0268 H         1 <0>         0.1027
     35 H14         2.9401   -1.5233    2.0159 H         1 <0>         0.1374
     36 H15         3.8066   -3.7734    1.7533 H         1 <0>         0.1450
     37 H16         4.5389   -5.4141    0.5873 H         1 <0>         0.0614
     38 H17         3.9556   -5.8433    2.2133 H         1 <0>         0.0618
     39 H18         4.1324   -7.1043    0.9696 H         1 <0>         0.1116
     40 H19         1.6391    0.0971    1.2738 H         1 <0>         0.1432
     41 H20         0.0917   -0.2576    2.0600 H         1 <0>         0.1319
     42 H21        -2.7602   -6.3053    2.5625 H         1 <0>         0.3809
     43 H22         0.5116   -0.3113   -0.8129 H         1 <0>         0.4218
@<TRIPOS>BOND
     1    1    2 1
     2    1   24 1
     3    1   25 1
     4    1   26 1
     5    2   22 1
     6    2    3 1
     7    2   43 1
     8    3    4 1
     9    3   27 1
    10    3   28 1
    11    4    5 1
    12    4   29 1
    13    4   30 1
    14    5   11 1
    15    5   15 1
    16    5    6 1
    17    6    7 2
    18    6   31 1
    19    7    8 1
    20    7   32 1
    21    8    9 1
    22    8   10 1
    23    8   23 1
    24   10   11 1
    25   10   33 1
    26   10   34 1
    27   11   12 1
    28   11   13 1
    29   13   14 1
    30   14   19 ar
    31   14   15 ar
    32   15   16 ar
    33   16   17 ar
    34   16   22 1
    35   17   18 ar
    36   17   35 1
    37   18   19 ar
    38   18   36 1
    39   19   20 1
    40   20   21 1
    41   21   37 1
    42   21   38 1
    43   21   39 1
    44   22   40 1
    45   22   41 1
    46   23   42 1
@<TRIPOS>MOLECULE
ZINC00016827
   30    32     0     0     0
SMALL
USER_CHARGES
1,2,3,4-tetrahydroacridin-9-amine
@<TRIPOS>ATOM
      1 C1         -2.2590   -4.1734    0.7266 C.ar      1 <0>        -0.1151
      2 C2         -1.1015   -4.8453    0.3414 C.ar      1 <0>        -0.0282
      3 C3          0.0181   -4.1626   -0.0240 C.ar      1 <0>        -0.1547
      4 C4          0.0125   -2.7569   -0.0146 C.ar      1 <0>         0.1855
      5 C5         -1.1660   -2.0778    0.3770 C.ar      1 <0>        -0.1377
      6 C6         -2.3011   -2.8116    0.7474 C.ar      1 <0>        -0.0565
      7 C7         -1.1623   -0.6653    0.3817 C.ar      1 <0>         0.3675
      8 C8          0.0021   -0.0041    0.0020 C.ar      1 <0>        -0.2105
      9 C9          1.1175   -0.7361   -0.3646 C.ar      1 <0>         0.2712
     10 C10         2.4120   -0.0754   -0.7701 C.3       1 <0>        -0.1168
     11 C11         2.1762    1.3865   -1.1417 C.3       1 <0>        -0.1213
     12 C12         1.4039    2.0583   -0.0003 C.3       1 <0>        -0.1267
     13 C13        -0.0183    1.5015    0.0103 C.3       1 <0>        -0.0727
     14 N1         -2.2920    0.0458    0.7563 N.pl3     1 <0>        -0.7940
     15 H1         -3.1340   -4.7385    1.0119 H         1 <0>         0.1511
     16 H2         -1.0919   -5.9252    0.3327 H         1 <0>         0.1529
     17 H3          0.9072   -4.6991   -0.3207 H         1 <0>         0.1539
     18 H4         -3.2041   -2.3007    1.0473 H         1 <0>         0.1465
     19 H5          3.1167   -0.1260    0.0600 H         1 <0>         0.1184
     20 H6          2.8304   -0.6013   -1.6283 H         1 <0>         0.1086
     21 H7          3.1338    1.8881   -1.2812 H         1 <0>         0.0939
     22 H8          1.5929    1.4414   -2.0609 H         1 <0>         0.0797
     23 H9          1.3752    3.1361   -0.1607 H         1 <0>         0.0897
     24 H10         1.8906    1.8408    0.9505 H         1 <0>         0.0760
     25 H11        -0.5506    1.8586   -0.8713 H         1 <0>         0.0921
     26 H12        -0.5337    1.8490    0.9057 H         1 <0>         0.0852
     27 H13        -2.2768    1.0157    0.7558 H         1 <0>         0.4265
     28 H14        -3.0975   -0.4265    1.0190 H         1 <0>         0.4221
     29 N2          1.1637   -2.1007   -0.3898 N.ar      1 <0>        -0.5514
     30 H15         2.0097   -2.6092   -0.6727 H         1 <0>         0.4649
@<TRIPOS>BOND
     1    1    6 ar
     2    1    2 ar
     3    1   15 1
     4    2    3 ar
     5    2   16 1
     6    3    4 ar
     7    3   17 1
     8    4    5 ar
     9    4   29 ar
    10    5    6 ar
    11    5    7 ar
    12    6   18 1
    13    7    8 ar
    14    7   14 1
    15    8   13 1
    16    8    9 ar
    17    9   10 1
    18    9   29 ar
    19   10   11 1
    20   10   19 1
    21   10   20 1
    22   11   12 1
    23   11   21 1
    24   11   22 1
    25   12   13 1
    26   12   23 1
    27   12   24 1
    28   13   25 1
    29   13   26 1
    30   14   27 1
    31   14   28 1
    32   29   30 1
@<TRIPOS>MOLECULE
ZINC00597013
   58    61     0     0     0
SMALL
USER_CHARGES

@<TRIPOS>ATOM
      1 C1         -0.0173    1.4248    0.0099 C.3       1 <0>         0.0208
      2 O1          0.0021   -0.0041    0.0020 O.3       1 <0>        -0.2950
      3 C2          0.6051   -0.6064   -1.0545 C.ar      1 <0>         0.1532
      4 C3          1.1721    0.1632   -2.0609 C.ar      1 <0>        -0.1821
      5 C4          1.7866   -0.4410   -3.1387 C.ar      1 <0>        -0.0371
      6 C5          1.8416   -1.8340   -3.2219 C.ar      1 <0>        -0.2044
      7 C6          1.2663   -2.6106   -2.2012 C.ar      1 <0>        -0.1044
      8 C7          0.6597   -1.9984   -1.1254 C.ar      1 <0>         0.0877
      9 O2          0.1088   -2.7516   -0.1361 O.3       1 <0>        -0.3011
     10 C8          0.2013   -4.1710   -0.2735 C.3       1 <0>         0.0231
     11 C9          2.5389   -2.2531   -4.4456 C.2       1 <0>         0.4182
     12 O3          2.7420   -3.3976   -4.7923 O.2       1 <0>        -0.4477
     13 C10         2.9584   -1.0129   -5.1966 C.3       1 <0>        -0.1391
     14 H1          4.0434   -0.9806   -5.2959 H         1 <0>         0.1138
     15 C11         2.4673    0.1645   -4.3432 C.3       1 <0>        -0.0780
     16 C12         2.2994   -0.9808   -6.5770 C.3       1 <0>        -0.0982
     17 C13         2.8476   -2.1260   -7.4307 C.3       1 <0>        -0.1155
     18 C14         4.3380   -1.8972   -7.6982 C.3       1 <0>        -0.1415
     19 C15         4.8612   -3.0029   -8.6175 C.3       1 <0>        -0.0066
     20 N1          4.1252   -2.9777   -9.8872 N.4       1 <0>        -0.3801
     21 C16         2.7066   -3.2675   -9.6464 C.3       1 <0>        -0.0118
     22 C17         2.1004   -2.1720   -8.7666 C.3       1 <0>        -0.1383
     23 C18         4.6828   -3.9891  -10.7949 C.3       1 <0>         0.0438
     24 C19         4.0113   -3.8820  -12.1398 C.ar      1 <0>        -0.1605
     25 C20         2.8641   -4.6083  -12.3993 C.ar      1 <0>        -0.0978
     26 C21         2.2481   -4.5101  -13.6329 C.ar      1 <0>        -0.1135
     27 C22         2.7790   -3.6851  -14.6068 C.ar      1 <0>        -0.0847
     28 C23         3.9256   -2.9580  -14.3470 C.ar      1 <0>        -0.1130
     29 C24         4.5392   -3.0530  -13.1119 C.ar      1 <0>        -0.0942
     30 H2          1.0053    1.8021    0.0021 H         1 <0>         0.0608
     31 H3         -0.5445    1.7859   -0.8732 H         1 <0>         0.0604
     32 H4         -0.5275    1.7763    0.9067 H         1 <0>         0.1088
     33 H5          1.1317    1.2407   -2.0004 H         1 <0>         0.1449
     34 H6          1.3038   -3.6885   -2.2575 H         1 <0>         0.1426
     35 H7         -0.2763   -4.6506    0.5809 H         1 <0>         0.1075
     36 H8         -0.2996   -4.4806   -1.1908 H         1 <0>         0.0566
     37 H9          1.2502   -4.4644   -0.3155 H         1 <0>         0.0572
     38 H10         1.7583    0.7678   -4.9101 H         1 <0>         0.0961
     39 H11         3.3123    0.7764   -4.0277 H         1 <0>         0.0964
     40 H12         1.2208   -1.0934   -6.4674 H         1 <0>         0.0800
     41 H13         2.5179   -0.0293   -7.0618 H         1 <0>         0.0849
     42 H14         2.7114   -3.0706   -6.9042 H         1 <0>         0.1081
     43 H15         4.4772   -0.9286   -8.1782 H         1 <0>         0.0886
     44 H16         4.8846   -1.9188   -6.7553 H         1 <0>         0.1118
     45 H17         5.9222   -2.8432   -8.8098 H         1 <0>         0.1305
     46 H18         4.7218   -3.9711   -8.1364 H         1 <0>         0.1303
     47 H19         2.1768   -3.3031  -10.5983 H         1 <0>         0.1310
     48 H20         2.6131   -4.2300   -9.1434 H         1 <0>         0.1282
     49 H21         1.0476   -2.3899   -8.5875 H         1 <0>         0.1106
     50 H22         2.1932   -1.2090   -9.2688 H         1 <0>         0.0874
     51 H23         5.7540   -3.8234  -10.9095 H         1 <0>         0.1365
     52 H24         4.5111   -4.9828  -10.3812 H         1 <0>         0.1348
     53 H25         2.4494   -5.2529  -11.6384 H         1 <0>         0.1308
     54 H26         1.3522   -5.0781  -13.8359 H         1 <0>         0.1360
     55 H27         2.2981   -3.6088  -15.5708 H         1 <0>         0.1358
     56 H28         4.3405   -2.3138  -15.1080 H         1 <0>         0.1360
     57 H29         5.4329   -2.4822  -12.9076 H         1 <0>         0.1309
     58 H30         4.2142   -2.0651  -10.3083 H         1 <0>         0.4207
@<TRIPOS>BOND
     1    1    2 1
     2    1   30 1
     3    1   31 1
     4    1   32 1
     5    2    3 1
     6    3    8 ar
     7    3    4 ar
     8    4    5 ar
     9    4   33 1
    10    5   15 1
    11    5    6 ar
    12    6    7 ar
    13    6   11 1
    14    7    8 ar
    15    7   34 1
    16    8    9 1
    17    9   10 1
    18   10   35 1
    19   10   36 1
    20   10   37 1
    21   11   12 2
    22   11   13 1
    23   13   14 1
    24   13   15 1
    25   13   16 1
    26   15   38 1
    27   15   39 1
    28   16   17 1
    29   16   40 1
    30   16   41 1
    31   17   22 1
    32   17   18 1
    33   17   42 1
    34   18   19 1
    35   18   43 1
    36   18   44 1
    37   19   20 1
    38   19   45 1
    39   19   46 1
    40   20   21 1
    41   20   23 1
    42   20   58 1
    43   21   22 1
    44   21   47 1
    45   21   48 1
    46   22   49 1
    47   22   50 1
    48   23   24 1
    49   23   51 1
    50   23   52 1
    51   24   29 ar
    52   24   25 ar
    53   25   26 ar
    54   25   53 1
    55   26   27 ar
    56   26   54 1
    57   27   28 ar
    58   27   55 1
    59   28   29 ar
    60   28   56 1
    61   29   57 1
@<TRIPOS>MOLECULE
ZINC00897251
   58    61     0     0     0
SMALL
USER_CHARGES

@<TRIPOS>ATOM
      1 C1         -0.4000    2.7928   -9.4111 C.3       1 <0>         0.0217
      2 O1         -0.3921    3.3043   -8.0768 O.3       1 <0>        -0.2952
      3 C2          0.2864    2.5865   -7.1456 C.ar      1 <0>         0.1496
      4 C3          0.9365    1.4157   -7.5106 C.ar      1 <0>        -0.1810
      5 C4          1.6280    0.6797   -6.5702 C.ar      1 <0>        -0.0432
      6 C5          1.6776    1.1109   -5.2428 C.ar      1 <0>        -0.1980
      7 C6          1.0179    2.2969   -4.8763 C.ar      1 <0>        -0.1053
      8 C7          0.3345    3.0288   -5.8236 C.ar      1 <0>         0.0903
      9 O2         -0.2981    4.1789   -5.4680 O.3       1 <0>        -0.3013
     10 C8         -0.2072    4.5722   -4.0972 C.3       1 <0>         0.0223
     11 C9          2.4645    0.1785   -4.4238 C.2       1 <0>         0.4126
     12 O3          2.6844    0.2862   -3.2359 O.2       1 <0>        -0.4369
     13 C10         2.9517   -0.9365   -5.3169 C.3       1 <0>        -0.1385
     14 H1          2.5591   -1.8938   -4.9740 H         1 <0>         0.1136
     15 C11         2.4055   -0.6071   -6.7129 C.3       1 <0>        -0.0752
     16 C12         4.4812   -0.9687   -5.3380 C.3       1 <0>        -0.1018
     17 C13         4.9548   -2.1846   -6.1369 C.3       1 <0>        -0.0999
     18 C14         4.5565   -3.4674   -5.4014 C.3       1 <0>        -0.1473
     19 C15         5.1018   -4.6765   -6.1643 C.3       1 <0>        -0.0062
     20 N1          6.5650   -4.5904   -6.2436 N.4       1 <0>        -0.3817
     21 C16         6.9530   -3.4000   -7.0098 C.3       1 <0>        -0.0117
     22 C17         6.4789   -2.1417   -6.2794 C.3       1 <0>        -0.1414
     23 C18         7.0894   -5.7910   -6.9081 C.3       1 <0>         0.0445
     24 C19         8.5959   -5.7625   -6.8811 C.ar      1 <0>        -0.1617
     25 C20         9.2944   -5.1622   -7.9119 C.ar      1 <0>        -0.0980
     26 C21        10.6763   -5.1361   -7.8871 C.ar      1 <0>        -0.1136
     27 C22        11.3596   -5.7098   -6.8313 C.ar      1 <0>        -0.0841
     28 C23        10.6611   -6.3093   -5.8000 C.ar      1 <0>        -0.1126
     29 C24         9.2791   -6.3317   -5.8227 C.ar      1 <0>        -0.0940
     30 H2          0.6233    2.7264   -9.7808 H         1 <0>         0.0592
     31 H3         -0.8537    1.8018   -9.4176 H         1 <0>         0.0598
     32 H4         -0.9755    3.4601  -10.0527 H         1 <0>         0.1082
     33 H5          0.9006    1.0787   -8.5360 H         1 <0>         0.1432
     34 H6          1.0506    2.6377   -3.8520 H         1 <0>         0.1438
     35 H7         -0.7539    5.5035   -3.9494 H         1 <0>         0.1078
     36 H8         -0.6376    3.7942   -3.4667 H         1 <0>         0.0580
     37 H9          0.8393    4.7188   -3.8299 H         1 <0>         0.0577
     38 H10         1.7480   -1.4060   -7.0558 H         1 <0>         0.0927
     39 H11         3.2285   -0.4716   -7.4146 H         1 <0>         0.0925
     40 H12         4.8574   -0.0583   -5.8047 H         1 <0>         0.0823
     41 H13         4.8574   -1.0358   -4.3172 H         1 <0>         0.0822
     42 H14         4.4958   -2.1724   -7.1255 H         1 <0>         0.0950
     43 H15         4.9736   -3.4540   -4.3944 H         1 <0>         0.0914
     44 H16         3.4699   -3.5323   -5.3452 H         1 <0>         0.1144
     45 H17         4.8199   -5.5916   -5.6435 H         1 <0>         0.1311
     46 H18         4.6840   -4.6890   -7.1710 H         1 <0>         0.1295
     47 H19         8.0378   -3.3726   -7.1131 H         1 <0>         0.1315
     48 H20         6.4957   -3.4397   -7.9984 H         1 <0>         0.1282
     49 H21         6.7664   -1.2591   -6.8507 H         1 <0>         0.1129
     50 H22         6.9359   -2.1009   -5.2906 H         1 <0>         0.0893
     51 H23         6.7334   -6.6795   -6.3867 H         1 <0>         0.1365
     52 H24         6.7449   -5.8138   -7.9420 H         1 <0>         0.1348
     53 H25         8.7606   -4.7139   -8.7368 H         1 <0>         0.1306
     54 H26        11.2221   -4.6677   -8.6928 H         1 <0>         0.1361
     55 H27        12.4393   -5.6901   -6.8123 H         1 <0>         0.1360
     56 H28        11.1949   -6.7579   -4.9753 H         1 <0>         0.1363
     57 H29         8.7332   -6.7968   -5.0151 H         1 <0>         0.1311
     58 H30         6.9482   -4.5293   -5.3123 H         1 <0>         0.4220
@<TRIPOS>BOND
     1    1    2 1
     2    1   30 1
     3    1   31 1
     4    1   32 1
     5    2    3 1
     6    3    8 ar
     7    3    4 ar
     8    4    5 ar
     9    4   33 1
    10    5   15 1
    11    5    6 ar
    12    6    7 ar
    13    6   11 1
    14    7    8 ar
    15    7   34 1
    16    8    9 1
    17    9   10 1
    18   10   35 1
    19   10   36 1
    20   10   37 1
    21   11   12 2
    22   11   13 1
    23   13   14 1
    24   13   15 1
    25   13   16 1
    26   15   38 1
    27   15   39 1
    28   16   17 1
    29   16   40 1
    30   16   41 1
    31   17   22 1
    32   17   18 1
    33   17   42 1
    34   18   19 1
    35   18   43 1
    36   18   44 1
    37   19   20 1
    38   19   45 1
    39   19   46 1
    40   20   21 1
    41   20   23 1
    42   20   58 1
    43   21   22 1
    44   21   47 1
    45   21   48 1
    46   22   49 1
    47   22   50 1
    48   23   24 1
    49   23   51 1
    50   23   52 1
    51   24   29 ar
    52   24   25 ar
    53   25   26 ar
    54   25   53 1
    55   26   27 ar
    56   26   54 1
    57   27   28 ar
    58   27   55 1
    59   28   29 ar
    60   28   56 1
    61   29   57 1
@<TRIPOS>MOLECULE
ZINC00538159
   50    53     0     0     0
SMALL
USER_CHARGES

@<TRIPOS>ATOM
      1 C1          3.4448   -4.9754    0.0380 C.ar      1 <0>        -0.0775
      2 C2          4.3831   -4.5773    0.9715 C.ar      1 <0>        -0.1273
      3 C3          4.2731   -3.3382    1.5753 C.ar      1 <0>        -0.0519
      4 C4          3.2213   -2.4942    1.2481 C.ar      1 <0>        -0.1546
      5 C5          2.2716   -2.8931    0.3118 C.ar      1 <0>         0.1855
      6 C6          2.3948   -4.1403   -0.2925 C.ar      1 <0>        -0.1633
      7 N1          1.1944   -2.0824   -0.0350 N.pl3     1 <0>        -0.5638
      8 C7          1.1704   -0.6950    0.0856 C.ar      1 <0>         0.1857
      9 C8          0.3084    0.0298   -0.7232 C.ar      1 <0>        -0.1206
     10 C9          0.2556    1.4228   -0.6247 C.ar      1 <0>         0.0110
     11 C10         1.0738    2.0876    0.2925 C.ar      1 <0>        -0.0770
     12 C11         1.9306    1.3657    1.0939 C.ar      1 <0>        -0.0561
     13 C12         1.9863   -0.0207    0.9948 C.ar      1 <0>        -0.1219
     14 S1          3.1004   -0.9175    2.0238 S.3       1 <0>         0.0496
     15 C13        -0.6350    2.1679   -1.4627 C.1       1 <0>         0.2451
     16 N2         -1.3416    2.7589   -2.1275 N.1       1 <0>        -0.3970
     17 C14        -0.0033   -2.7373   -0.5670 C.3       1 <0>         0.1193
     18 C15         0.1059   -2.8410   -2.0896 C.3       1 <0>        -0.1877
     19 C16        -1.1448   -3.5250   -2.6452 C.3       1 <0>        -0.0087
     20 N3         -1.0400   -3.6246   -4.1070 N.4       1 <0>        -0.3843
     21 C17        -1.0334   -2.2769   -4.6886 C.3       1 <0>        -0.0089
     22 C18        -0.8430   -2.3720   -6.2039 C.3       1 <0>        -0.1432
     23 C19        -1.9923   -3.1845   -6.8073 C.3       1 <0>         0.0961
     24 C20        -2.0358   -4.5623   -6.1402 C.3       1 <0>        -0.1837
     25 C21        -2.1820   -4.3860   -4.6272 C.3       1 <0>        -0.0026
     26 O1         -1.7814   -3.3402   -8.2120 O.3       1 <0>        -0.5525
     27 H1          3.5351   -5.9406   -0.4380 H         1 <0>         0.1331
     28 H2          5.2012   -5.2335    1.2294 H         1 <0>         0.1373
     29 H3          5.0074   -3.0267    2.3035 H         1 <0>         0.1392
     30 H4          1.6656   -4.4575   -1.0233 H         1 <0>         0.1249
     31 H5         -0.3242   -0.4839   -1.4319 H         1 <0>         0.1325
     32 H6          1.0348    3.1639    0.3726 H         1 <0>         0.1476
     33 H7          2.5632    1.8791    1.8028 H         1 <0>         0.1506
     34 H8         -0.0910   -3.7364   -0.1401 H         1 <0>         0.0994
     35 H9         -0.8844   -2.1516   -0.3050 H         1 <0>         0.0974
     36 H10         0.1936   -1.8419   -2.5165 H         1 <0>         0.0962
     37 H11         0.9871   -3.4267   -2.3516 H         1 <0>         0.0997
     38 H12        -1.2326   -4.5241   -2.2183 H         1 <0>         0.1376
     39 H13        -2.0260   -2.9393   -2.3831 H         1 <0>         0.1347
     40 H14        -1.9811   -1.7837   -4.4722 H         1 <0>         0.1330
     41 H15        -0.2169   -1.6989   -4.2558 H         1 <0>         0.1366
     42 H16        -0.8402   -1.3705   -6.6339 H         1 <0>         0.1202
     43 H17         0.1046   -2.8649   -6.4214 H         1 <0>         0.0968
     44 H18        -2.9353   -2.6659   -6.6344 H         1 <0>         0.0736
     45 H19        -2.8856   -5.1262   -6.5247 H         1 <0>         0.1159
     46 H20        -1.1130   -5.1006   -6.3564 H         1 <0>         0.0973
     47 H21        -2.2135   -5.3650   -4.1492 H         1 <0>         0.1356
     48 H22        -3.1052   -3.8478   -4.4122 H         1 <0>         0.1316
     49 H23        -2.4732   -3.8462   -8.6599 H         1 <0>         0.3947
     50 H24        -0.1827   -4.0978   -4.3503 H         1 <0>         0.4247
@<TRIPOS>BOND
     1    1    6 ar
     2    1    2 ar
     3    1   27 1
     4    2    3 ar
     5    2   28 1
     6    3    4 ar
     7    3   29 1
     8    4   14 1
     9    4    5 ar
    10    5    6 ar
    11    5    7 1
    12    6   30 1
    13    7    8 1
    14    7   17 1
    15    8   13 ar
    16    8    9 ar
    17    9   10 ar
    18    9   31 1
    19   10   11 ar
    20   10   15 1
    21   11   12 ar
    22   11   32 1
    23   12   13 ar
    24   12   33 1
    25   13   14 1
    26   15   16 3
    27   17   18 1
    28   17   34 1
    29   17   35 1
    30   18   19 1
    31   18   36 1
    32   18   37 1
    33   19   20 1
    34   19   38 1
    35   19   39 1
    36   20   25 1
    37   20   21 1
    38   20   50 1
    39   21   22 1
    40   21   40 1
    41   21   41 1
    42   22   23 1
    43   22   42 1
    44   22   43 1
    45   23   24 1
    46   23   26 1
    47   23   44 1
    48   24   25 1
    49   24   45 1
    50   24   46 1
    51   25   47 1
    52   25   48 1
    53   26   49 1
@<TRIPOS>MOLECULE
ZINC01893945
   79    84     0     0     0
SMALL
USER_CHARGES

@<TRIPOS>ATOM
      1 C1         -4.3674  -12.0500   -0.6935 C.ar      1 <0>        -0.1084
      2 C2         -3.2283  -12.4382    0.0076 C.ar      1 <0>        -0.0299
      3 C3         -2.0127  -12.4917   -0.6026 C.ar      1 <0>        -0.1478
      4 C4         -1.8984  -12.1507   -1.9615 C.ar      1 <0>         0.1538
      5 C5         -3.0585  -11.7581   -2.6709 C.ar      1 <0>        -0.1057
      6 C6         -4.2945  -11.7134   -2.0119 C.ar      1 <0>        -0.0611
      7 C7         -2.9337  -11.4204   -4.0369 C.ar      1 <0>         0.3440
      8 C8         -1.6732  -11.4852   -4.6233 C.ar      1 <0>        -0.1441
      9 C9         -0.5831  -11.8727   -3.8640 C.ar      1 <0>         0.2496
     10 N1         -0.7214  -12.1902   -2.5879 N.ar      1 <0>        -0.4773
     11 C10         0.8097  -11.9455   -4.4399 C.3       1 <0>        -0.1140
     12 C11         0.7589  -11.9899   -5.9651 C.3       1 <0>        -0.1221
     13 C12        -0.1140  -10.8287   -6.4553 C.3       1 <0>        -0.1317
     14 C13        -1.5646  -11.1271   -6.0818 C.3       1 <0>        -0.0717
     15 N2         -4.0410  -11.0339   -4.7762 N.pl3     1 <0>        -0.7950
     16 C14        -4.4753   -9.6347   -4.7678 C.3       1 <0>         0.1342
     17 C15        -5.4341   -9.4053   -3.5978 C.3       1 <0>        -0.1553
     18 C16        -5.8877   -7.9441   -3.5892 C.3       1 <0>        -0.1209
     19 C17        -6.8465   -7.7147   -2.4192 C.3       1 <0>        -0.1174
     20 C18        -7.3001   -6.2534   -2.4105 C.3       1 <0>        -0.1208
     21 C19        -8.2589   -6.0240   -1.2405 C.3       1 <0>        -0.1454
     22 C20        -8.7124   -4.5628   -1.2318 C.3       1 <0>         0.1352
     23 N3         -9.6305   -4.3431   -0.1115 N.pl3     1 <0>        -0.7952
     24 C21       -10.9513   -3.9988   -0.3549 C.ar      1 <0>         0.3431
     25 C22       -11.9243   -4.9933   -0.5993 C.ar      1 <0>        -0.1056
     26 C23       -11.5974   -6.3561   -0.6049 C.ar      1 <0>        -0.0599
     27 C24       -12.5693   -7.2807   -0.8438 C.ar      1 <0>        -0.1060
     28 C25       -13.8839   -6.8879   -1.0830 C.ar      1 <0>        -0.0301
     29 C26       -14.2345   -5.5726   -1.0849 C.ar      1 <0>        -0.1466
     30 C27       -13.2589   -4.5899   -0.8428 C.ar      1 <0>         0.1534
     31 N4        -13.5687   -3.2925   -0.8408 N.ar      1 <0>        -0.4769
     32 C28       -12.6724   -2.3467   -0.6160 C.ar      1 <0>         0.2497
     33 C29       -11.3506   -2.6657   -0.3584 C.ar      1 <0>        -0.1441
     34 C30       -10.3007   -1.6241   -0.0753 C.3       1 <0>        -0.0711
     35 C31       -10.7756   -0.2454   -0.5294 C.3       1 <0>        -0.1323
     36 C32       -12.1684    0.0035    0.0612 C.3       1 <0>        -0.1214
     37 C33       -13.1598   -0.9191   -0.6521 C.3       1 <0>        -0.1143
     38 H1         -5.3209  -12.0198   -0.1872 H         1 <0>         0.1503
     39 H2         -3.3108  -12.7004    1.0520 H         1 <0>         0.1557
     40 H3         -1.1392  -12.7948   -0.0446 H         1 <0>         0.1568
     41 H4         -5.1842  -11.4141   -2.5460 H         1 <0>         0.1614
     42 H5          1.3753  -11.0687   -4.1245 H         1 <0>         0.1235
     43 H6          1.3047  -12.8437   -4.0705 H         1 <0>         0.1133
     44 H7          1.7663  -11.8866   -6.3684 H         1 <0>         0.0985
     45 H8          0.3262  -12.9361   -6.2899 H         1 <0>         0.0815
     46 H9          0.2052   -9.9023   -5.9777 H         1 <0>         0.0750
     47 H10        -0.0254  -10.7341   -7.5375 H         1 <0>         0.0922
     48 H11        -1.9268  -11.9601   -6.6843 H         1 <0>         0.0966
     49 H12        -2.1756  -10.2470   -6.2822 H         1 <0>         0.0969
     50 H13        -4.5282  -11.6898   -5.2989 H         1 <0>         0.4197
     51 H14        -3.6067   -8.9853   -4.6585 H         1 <0>         0.0703
     52 H15        -4.9839   -9.4066   -5.7045 H         1 <0>         0.0922
     53 H16        -6.3027  -10.0547   -3.7072 H         1 <0>         0.0723
     54 H17        -4.9255   -9.6334   -2.6612 H         1 <0>         0.0671
     55 H18        -5.0191   -7.2947   -3.4798 H         1 <0>         0.0652
     56 H19        -6.3963   -7.7159   -4.5258 H         1 <0>         0.0685
     57 H20        -7.7151   -8.3640   -2.5285 H         1 <0>         0.0628
     58 H21        -6.3379   -7.9428   -1.4825 H         1 <0>         0.0620
     59 H22        -6.4315   -5.6041   -2.3011 H         1 <0>         0.0681
     60 H23        -7.8087   -6.0253   -3.3471 H         1 <0>         0.0655
     61 H24        -9.1275   -6.6734   -1.3498 H         1 <0>         0.0663
     62 H25        -7.7503   -6.2522   -0.3038 H         1 <0>         0.0718
     63 H26        -7.8439   -3.9134   -1.1224 H         1 <0>         0.0785
     64 H27        -9.2210   -4.3347   -2.1685 H         1 <0>         0.0735
     65 H28        -9.3144   -4.4385    0.8006 H         1 <0>         0.4186
     66 H29       -10.5810   -6.6715   -0.4211 H         1 <0>         0.1572
     67 H30       -12.3171   -8.3309   -0.8481 H         1 <0>         0.1508
     68 H31       -14.6372   -7.6388   -1.2703 H         1 <0>         0.1563
     69 H32       -15.2585   -5.2850   -1.2720 H         1 <0>         0.1571
     70 H33       -10.0980   -1.5998    0.9954 H         1 <0>         0.0961
     71 H34        -9.3854   -1.8824   -0.6080 H         1 <0>         0.0967
     72 H35       -10.0836    0.5174   -0.1725 H         1 <0>         0.0917
     73 H36       -10.8274   -0.2147   -1.6178 H         1 <0>         0.0754
     74 H37       -12.1574   -0.2131    1.1294 H         1 <0>         0.0821
     75 H38       -12.4554    1.0423   -0.1022 H         1 <0>         0.0982
     76 H39       -13.2782   -0.6061   -1.6895 H         1 <0>         0.1244
     77 H40       -14.1230   -0.8554   -0.1460 H         1 <0>         0.1127
     78 H41         0.0637  -12.4627   -2.0878 H         1 <0>         0.4430
     79 H42       -14.4876   -3.0326   -1.0112 H         1 <0>         0.4432
@<TRIPOS>BOND
     1    1    6 ar
     2    1    2 ar
     3    1   38 1
     4    2    3 ar
     5    2   39 1
     6    3    4 ar
     7    3   40 1
     8    4   10 ar
     9    4    5 ar
    10    5    6 ar
    11    5    7 ar
    12    6   41 1
    13    7    8 ar
    14    7   15 1
    15    8   14 1
    16    8    9 ar
    17    9   10 ar
    18    9   11 1
    19   10   78 1
    20   11   12 1
    21   11   42 1
    22   11   43 1
    23   12   13 1
    24   12   44 1
    25   12   45 1
    26   13   14 1
    27   13   46 1
    28   13   47 1
    29   14   48 1
    30   14   49 1
    31   15   16 1
    32   15   50 1
    33   16   17 1
    34   16   51 1
    35   16   52 1
    36   17   18 1
    37   17   53 1
    38   17   54 1
    39   18   19 1
    40   18   55 1
    41   18   56 1
    42   19   20 1
    43   19   57 1
    44   19   58 1
    45   20   21 1
    46   20   59 1
    47   20   60 1
    48   21   22 1
    49   21   61 1
    50   21   62 1
    51   22   23 1
    52   22   63 1
    53   22   64 1
    54   23   24 1
    55   23   65 1
    56   24   33 ar
    57   24   25 ar
    58   25   30 ar
    59   25   26 ar
    60   26   27 ar
    61   26   66 1
    62   27   28 ar
    63   27   67 1
    64   28   29 ar
    65   28   68 1
    66   29   30 ar
    67   29   69 1
    68   30   31 ar
    69   31   32 ar
    70   31   79 1
    71   32   37 1
    72   32   33 ar
    73   33   34 1
    74   34   35 1
    75   34   70 1
    76   34   71 1
    77   35   36 1
    78   35   72 1
    79   35   73 1
    80   36   37 1
    81   36   74 1
    82   36   75 1
    83   37   76 1
    84   37   77 1
@<TRIPOS>MOLECULE
ZINC00394500
   25    27     0     0     0
SMALL
USER_CHARGES
methylBLAH
@<TRIPOS>ATOM
      1 C1          2.1175    9.0409    0.0276 C.3       1 <0>         0.0153
      2 N1          1.4718    7.7259    0.0268 N.ar      1 <0>        -0.3145
      3 C2          0.1517    7.6655    0.0396 C.ar      1 <0>         0.0666
      4 C3         -0.5041    6.4528    0.0404 C.ar      1 <0>        -0.0601
      5 C4          0.2526    5.2815    0.0265 C.ar      1 <0>        -0.0036
      6 C5         -0.0651    3.8453    0.0229 C.ar      1 <0>        -0.1285
      7 C6         -1.2577    3.1242    0.0319 C.ar      1 <0>        -0.0414
      8 C7         -1.2261    1.7471    0.0174 C.ar      1 <0>        -0.1309
      9 C8         -0.0126    1.0758    0.0080 C.ar      1 <0>        -0.0465
     10 C9          1.1744    1.7752    0.0004 C.ar      1 <0>        -0.1361
     11 C10         1.1638    3.1670    0.0075 C.ar      1 <0>         0.1599
     12 N2          2.1807    4.1045    0.0019 N.pl3     1 <0>        -0.5851
     13 H1          3.1278    3.8950   -0.0080 H         1 <0>         0.4359
     14 C11         1.6546    5.3820    0.0131 C.ar      1 <0>         0.1242
     15 C12         2.2285    6.6481    0.0139 C.ar      1 <0>         0.1066
     16 H2          2.2678    9.3724   -0.9998 H         1 <0>         0.1219
     17 H3          1.4838    9.7565    0.5513 H         1 <0>         0.1255
     18 H4          3.0814    8.9720    0.5318 H         1 <0>         0.1214
     19 H5         -0.4222    8.5803    0.0500 H         1 <0>         0.2074
     20 H6         -1.5832    6.4107    0.0509 H         1 <0>         0.1843
     21 H7         -2.2044    3.6439    0.0434 H         1 <0>         0.1406
     22 H8         -2.1501    1.1878    0.0188 H         1 <0>         0.1449
     23 H9          0.0021   -0.0041    0.0020 H         1 <0>         0.1474
     24 H10         2.1141    1.2429   -0.0115 H         1 <0>         0.1409
     25 H11         3.3037    6.7487    0.0041 H         1 <0>         0.2041
@<TRIPOS>BOND
     1    1    2 1
     2    1   16 1
     3    1   17 1
     4    1   18 1
     5    2   15 ar
     6    2    3 ar
     7    3    4 ar
     8    3   19 1
     9    4    5 ar
    10    4   20 1
    11    5   14 ar
    12    5    6 1
    13    6   11 ar
    14    6    7 ar
    15    7    8 ar
    16    7   21 1
    17    8    9 ar
    18    8   22 1
    19    9   10 ar
    20    9   23 1
    21   10   11 ar
    22   10   24 1
    23   11   12 1
    24   12   13 1
    25   12   14 1
    26   14   15 ar
    27   15   25 1
@<TRIPOS>MOLECULE
ZINC00538507
   44    46     0     0     0
SMALL
USER_CHARGES

@<TRIPOS>ATOM
      1 C1         -5.6316    1.3383    0.7084 C.3       1 <0>        -0.0478
      2 N1         -5.6281   -0.1096    0.4606 N.4       1 <0>        -0.3871
      3 C2         -6.4322   -0.4041   -0.7330 C.3       1 <0>        -0.0541
      4 C3         -4.2484   -0.5664    0.2464 C.3       1 <0>        -0.0095
      5 C4         -4.2308   -2.0904    0.1123 C.3       1 <0>        -0.1871
      6 C5         -2.7938   -2.5661   -0.1108 C.3       1 <0>         0.1178
      7 N2         -2.7769   -4.0254   -0.2392 N.pl3     1 <0>        -0.5626
      8 C6         -2.9202   -4.5605   -1.5166 C.ar      1 <0>         0.1852
      9 C7         -3.5484   -3.7983   -2.4964 C.ar      1 <0>        -0.1636
     10 C8         -3.7022   -4.2959   -3.7762 C.ar      1 <0>        -0.0770
     11 C9         -3.2330   -5.5564   -4.0936 C.ar      1 <0>        -0.1270
     12 C10        -2.6086   -6.3238   -3.1274 C.ar      1 <0>        -0.0510
     13 C11        -2.4523   -5.8311   -1.8396 C.ar      1 <0>        -0.1554
     14 S1         -1.6633   -6.8269   -0.6196 S.3       1 <0>         0.0511
     15 C12        -2.1155   -6.0701    0.9053 C.ar      1 <0>        -0.1202
     16 C13        -2.6132   -4.7717    0.9248 C.ar      1 <0>         0.1856
     17 C14        -2.9622   -4.1990    2.1432 C.ar      1 <0>        -0.1186
     18 C15        -2.8082   -4.9099    3.3186 C.ar      1 <0>        -0.1465
     19 C16        -2.3054   -6.1964    3.2925 C.ar      1 <0>        -0.0780
     20 C17        -1.9672   -6.7771    2.0896 C.ar      1 <0>        -0.0563
     21 C18        -3.1895   -4.2792    4.6330 C.3       1 <0>         0.5108
     22 F1         -4.5313   -4.5593    4.9128 F         1 <0>        -0.1731
     23 F2         -2.3826   -4.7987    5.6510 F         1 <0>        -0.1678
     24 F3         -3.0086   -2.8941    4.5556 F         1 <0>        -0.1812
     25 H1         -6.6553    1.6773    0.8673 H         1 <0>         0.1262
     26 H2         -5.0349    1.5568    1.5940 H         1 <0>         0.1249
     27 H3         -5.2072    1.8553   -0.1523 H         1 <0>         0.1233
     28 H4         -6.4296   -1.4784   -0.9169 H         1 <0>         0.1228
     29 H5         -7.4559   -0.0651   -0.5741 H         1 <0>         0.1268
     30 H6         -6.0078    0.1129   -1.5937 H         1 <0>         0.1243
     31 H7         -3.8542   -0.1169   -0.6650 H         1 <0>         0.1351
     32 H8         -3.6315   -0.2691    1.0944 H         1 <0>         0.1359
     33 H9         -4.6250   -2.5399    1.0237 H         1 <0>         0.0953
     34 H10        -4.8477   -2.3877   -0.7357 H         1 <0>         0.0992
     35 H11        -2.3996   -2.1166   -1.0222 H         1 <0>         0.0997
     36 H12        -2.1769   -2.2688    0.7372 H         1 <0>         0.0972
     37 H13        -3.9181   -2.8127   -2.2552 H         1 <0>         0.1248
     38 H14        -4.1911   -3.6978   -4.5310 H         1 <0>         0.1338
     39 H15        -3.3541   -5.9420   -5.0952 H         1 <0>         0.1381
     40 H16        -2.2419   -7.3088   -3.3756 H         1 <0>         0.1396
     41 H17        -3.3561   -3.1938    2.1711 H         1 <0>         0.1366
     42 H18        -2.1846   -6.7484    4.2129 H         1 <0>         0.1505
     43 H19        -1.5749   -7.7831    2.0709 H         1 <0>         0.1516
     44 H20        -6.0209   -0.5882    1.2573 H         1 <0>         0.4280
@<TRIPOS>BOND
     1    1    2 1
     2    1   25 1
     3    1   26 1
     4    1   27 1
     5    2    3 1
     6    2    4 1
     7    2   44 1
     8    3   28 1
     9    3   29 1
    10    3   30 1
    11    4    5 1
    12    4   31 1
    13    4   32 1
    14    5    6 1
    15    5   33 1
    16    5   34 1
    17    6    7 1
    18    6   35 1
    19    6   36 1
    20    7   16 1
    21    7    8 1
    22    8   13 ar
    23    8    9 ar
    24    9   10 ar
    25    9   37 1
    26   10   11 ar
    27   10   38 1
    28   11   12 ar
    29   11   39 1
    30   12   13 ar
    31   12   40 1
    32   13   14 1
    33   14   15 1
    34   15   20 ar
    35   15   16 ar
    36   16   17 ar
    37   17   18 ar
    38   17   41 1
    39   18   19 ar
    40   18   21 1
    41   19   20 ar
    42   19   42 1
    43   20   43 1
    44   21   22 1
    45   21   23 1
    46   21   24 1
@<TRIPOS>MOLECULE
ZINC00004413
   41    41     0     0     0
SMALL
USER_CHARGES

@<TRIPOS>ATOM
      1 C1          4.4626    0.9331   -2.8658 C.3       1 <0>        -0.1716
      2 C2          3.0922    1.3370   -2.3184 C.3       1 <0>         0.1225
      3 N1          2.1977    0.1769   -2.3368 N.am      1 <0>        -0.5889
      4 C3          2.1273   -0.7122   -1.1746 C.3       1 <0>         0.0754
      5 C4          1.4396   -0.0723   -3.4229 C.2       1 <0>         0.6477
      6 O1          1.4980    0.6652   -4.3869 O.2       1 <0>        -0.5535
      7 O2          0.6173   -1.1388   -3.4398 O.3       1 <0>        -0.3075
      8 C5         -0.2031   -1.2952   -4.5123 C.ar      1 <0>         0.1261
      9 C6         -1.5478   -0.9685   -4.4120 C.ar      1 <0>        -0.0937
     10 C7         -2.3794   -1.1283   -5.5033 C.ar      1 <0>        -0.0860
     11 C8         -1.8728   -1.6139   -6.6949 C.ar      1 <0>        -0.1221
     12 C9         -0.5334   -1.9405   -6.7972 C.ar      1 <0>        -0.1238
     13 C10         0.3039   -1.7762   -5.7104 C.ar      1 <0>        -0.0901
     14 C11         0.0152   -2.4704   -8.0969 C.3       1 <0>         0.0788
     15 H1          0.9527   -2.9938   -7.9091 H         1 <0>         0.1439
     16 C12         0.2648   -1.3060   -9.0576 C.3       1 <0>        -0.1799
     17 N2         -0.9531   -3.3994   -8.6947 N.4       1 <0>        -0.3859
     18 C13        -0.4184   -3.9159   -9.9616 C.3       1 <0>        -0.0520
     19 C14        -1.1928   -4.5173   -7.7723 C.3       1 <0>        -0.0508
     20 H2          4.8824    0.1408   -2.2460 H         1 <0>         0.0603
     21 H3          4.3537    0.5745   -3.8894 H         1 <0>         0.0581
     22 H4          5.1281    1.7962   -2.8522 H         1 <0>         0.0766
     23 H5          3.2011    1.6957   -1.2949 H         1 <0>         0.0928
     24 H6          2.6725    2.1293   -2.9383 H         1 <0>         0.0905
     25 H7          1.3554   -0.3572   -0.4918 H         1 <0>         0.0654
     26 H8          1.8843   -1.7224   -1.5042 H         1 <0>         0.0784
     27 H9          3.0898   -0.7185   -0.6631 H         1 <0>         0.0821
     28 H10        -1.9440   -0.5899   -3.4814 H         1 <0>         0.1446
     29 H11        -3.4262   -0.8742   -5.4257 H         1 <0>         0.1465
     30 H12        -2.5247   -1.7385   -7.5469 H         1 <0>         0.1259
     31 H13         1.3512   -2.0270   -5.7923 H         1 <0>         0.1385
     32 H14         0.9833   -0.6167   -8.6140 H         1 <0>         0.1084
     33 H15         0.6616   -1.6892   -9.9977 H         1 <0>         0.0875
     34 H16        -0.6727   -0.7825   -9.2453 H         1 <0>         0.0834
     35 H17        -0.2406   -3.0863  -10.6460 H         1 <0>         0.1268
     36 H18         0.5191   -4.4393   -9.7738 H         1 <0>         0.1237
     37 H19        -1.1369   -4.6052  -10.4052 H         1 <0>         0.1270
     38 H20        -1.5895   -4.1341   -6.8322 H         1 <0>         0.1235
     39 H21        -1.9113   -5.2066   -8.2158 H         1 <0>         0.1263
     40 H22        -0.2553   -5.0408   -7.5845 H         1 <0>         0.1229
     41 H23        -1.8209   -2.9148   -8.8685 H         1 <0>         0.4225
@<TRIPOS>BOND
     1    1    2 1
     2    1   20 1
     3    1   21 1
     4    1   22 1
     5    2    3 1
     6    2   23 1
     7    2   24 1
     8    3    4 1
     9    3    5 am
    10    4   25 1
    11    4   26 1
    12    4   27 1
    13    5    6 2
    14    5    7 1
    15    7    8 1
    16    8   13 ar
    17    8    9 ar
    18    9   10 ar
    19    9   28 1
    20   10   11 ar
    21   10   29 1
    22   11   12 ar
    23   11   30 1
    24   12   13 ar
    25   12   14 1
    26   13   31 1
    27   14   15 1
    28   14   16 1
    29   14   17 1
    30   16   32 1
    31   16   33 1
    32   16   34 1
    33   17   18 1
    34   17   19 1
    35   17   41 1
    36   18   35 1
    37   18   36 1
    38   18   37 1
    39   19   38 1
    40   19   39 1
    41   19   40 1
@<TRIPOS>MOLECULE
ZINC03830246
   60    62     0     0     0
SMALL
USER_CHARGES

@<TRIPOS>ATOM
      1 C1         -8.2403    1.8534    0.5520 C.3       1 <0>        -0.1899
      2 C2         -6.9974    1.0075    0.8363 C.3       1 <0>        -0.0159
      3 N1         -6.0378    1.1616   -0.2652 N.4       1 <0>        -0.3861
      4 C3         -5.5611    2.5504   -0.3087 C.3       1 <0>        -0.0164
      5 C4         -4.6156    2.7280   -1.4984 C.3       1 <0>        -0.1899
      6 C5         -4.8985    0.2592   -0.0519 C.3       1 <0>        -0.0164
      7 C6         -5.3642   -1.1917   -0.1897 C.3       1 <0>        -0.1598
      8 C7         -4.1554   -2.1257   -0.1034 C.3       1 <0>        -0.1353
      9 C8         -4.6211   -3.5766   -0.2412 C.3       1 <0>         0.1387
     10 H1         -5.1922   -3.6888   -1.1628 H         1 <0>         0.0968
     11 C9         -3.4031   -4.5016   -0.2801 C.3       1 <0>        -0.1760
     12 N2         -5.4658   -3.9291    0.9027 N.pl3     1 <0>        -0.7308
     13 C10        -6.8360   -3.7963    0.8152 C.ar      1 <0>         0.3868
     14 C11        -7.5688   -4.4602   -0.1852 C.ar      1 <0>        -0.1511
     15 C12        -6.9440   -5.2843   -1.1360 C.ar      1 <0>        -0.0281
     16 C13        -7.6985   -5.9043   -2.0829 C.ar      1 <0>        -0.1211
     17 C14        -9.0826   -5.7416   -2.1335 C.ar      1 <0>         0.0721
     18 C15        -9.7446   -4.9569   -1.2408 C.ar      1 <0>        -0.1705
     19 C16        -9.0221   -4.2862   -0.2343 C.ar      1 <0>         0.2377
     20 N3         -9.6342   -3.5113    0.6568 N.ar      1 <0>        -0.5041
     21 C17        -8.9596   -2.8730    1.6138 C.ar      1 <0>         0.1873
     22 C18        -7.5507   -2.9952    1.7289 C.ar      1 <0>        -0.1169
     23 C19        -6.8745   -2.3105    2.7548 C.ar      1 <0>        -0.1146
     24 C20        -7.5791   -1.5389    3.6319 C.ar      1 <0>         0.1285
     25 C21        -8.9691   -1.4210    3.5228 C.ar      1 <0>        -0.0942
     26 C22        -9.6511   -2.0610    2.5380 C.ar      1 <0>        -0.1220
     27 O1         -6.9239   -0.8778    4.6229 O.3       1 <0>        -0.3015
     28 C23        -7.7172   -0.0862    5.5094 C.3       1 <0>         0.0139
     29 Cl1        -9.9850   -6.5618   -3.3691 Cl        1 <0>         0.0035
     30 H2         -8.9523    1.7391    1.3694 H         1 <0>         0.1046
     31 H3         -7.9540    2.9014    0.4634 H         1 <0>         0.0875
     32 H4         -8.6999    1.5222   -0.3792 H         1 <0>         0.0804
     33 H5         -6.5378    1.3386    1.7675 H         1 <0>         0.1317
     34 H6         -7.2837   -0.0405    0.9249 H         1 <0>         0.1174
     35 H7         -6.4117    3.2233   -0.4171 H         1 <0>         0.1347
     36 H8         -5.0304    2.7814    0.6149 H         1 <0>         0.1316
     37 H9         -3.7664    2.0531   -1.3915 H         1 <0>         0.0808
     38 H10        -5.1471    2.4996   -2.4222 H         1 <0>         0.0812
     39 H11        -4.2597    3.7578   -1.5290 H         1 <0>         0.1108
     40 H12        -4.1276    0.4654   -0.7944 H         1 <0>         0.1400
     41 H13        -4.4921    0.4170    0.9472 H         1 <0>         0.1337
     42 H14        -6.0630   -1.4268    0.6131 H         1 <0>         0.0826
     43 H15        -5.8582   -1.3248   -1.1521 H         1 <0>         0.0859
     44 H16        -3.4566   -1.8906   -0.9061 H         1 <0>         0.1016
     45 H17        -3.6614   -1.9925    0.8591 H         1 <0>         0.0907
     46 H18        -2.8157   -4.2916   -1.1739 H         1 <0>         0.0897
     47 H19        -2.7903   -4.3329    0.6054 H         1 <0>         0.0764
     48 H20        -3.7356   -5.5395   -0.2995 H         1 <0>         0.0759
     49 H21        -5.0615   -4.2559    1.7217 H         1 <0>         0.4299
     50 H22        -5.8733   -5.4242   -1.1156 H         1 <0>         0.1654
     51 H23        -7.2145   -6.5368   -2.8124 H         1 <0>         0.1648
     52 H24       -10.8173   -4.8485   -1.3036 H         1 <0>         0.1709
     53 H25        -5.8019   -2.3955    2.8480 H         1 <0>         0.1597
     54 H26        -9.5073   -0.8054    4.2283 H         1 <0>         0.1635
     55 H27       -10.7239   -1.9573    2.4689 H         1 <0>         0.1651
     56 H28        -7.0723    0.3858    6.2507 H         1 <0>         0.1195
     57 H29        -8.2402    0.6826    4.9406 H         1 <0>         0.0642
     58 H30        -8.4442   -0.7231    6.0133 H         1 <0>         0.0698
     59 H31        -6.4888    0.9332   -1.1385 H         1 <0>         0.4210
     60 H32       -10.5974   -3.4074    0.6090 H         1 <0>         0.4447
@<TRIPOS>BOND
     1    1    2 1
     2    1   30 1
     3    1   31 1
     4    1   32 1
     5    2    3 1
     6    2   33 1
     7    2   34 1
     8    3    4 1
     9    3    6 1
    10    3   59 1
    11    4    5 1
    12    4   35 1
    13    4   36 1
    14    5   37 1
    15    5   38 1
    16    5   39 1
    17    6    7 1
    18    6   40 1
    19    6   41 1
    20    7    8 1
    21    7   42 1
    22    7   43 1
    23    8    9 1
    24    8   44 1
    25    8   45 1
    26    9   10 1
    27    9   11 1
    28    9   12 1
    29   11   46 1
    30   11   47 1
    31   11   48 1
    32   12   13 1
    33   12   49 1
    34   13   22 ar
    35   13   14 ar
    36   14   19 ar
    37   14   15 ar
    38   15   16 ar
    39   15   50 1
    40   16   17 ar
    41   16   51 1
    42   17   18 ar
    43   17   29 1
    44   18   19 ar
    45   18   52 1
    46   19   20 ar
    47   20   21 ar
    48   20   60 1
    49   21   26 ar
    50   21   22 ar
    51   22   23 ar
    52   23   24 ar
    53   23   53 1
    54   24   25 ar
    55   24   27 1
    56   25   26 ar
    57   25   54 1
    58   26   55 1
    59   27   28 1
    60   28   56 1
    61   28   57 1
    62   28   58 1
@<TRIPOS>MOLECULE
ZINC03830247
   60    62     0     0     0
SMALL
USER_CHARGES

@<TRIPOS>ATOM
      1 C1         -8.1290    1.8607    0.5054 C.3       1 <0>        -0.1892
      2 C2         -6.8536    1.0352    0.6867 C.3       1 <0>        -0.0154
      3 N1         -6.0220    1.1477   -0.5190 N.4       1 <0>        -0.3868
      4 C3         -5.5677    2.5362   -0.6727 C.3       1 <0>        -0.0168
      5 C4         -4.6452    2.6393   -1.8889 C.3       1 <0>        -0.1894
      6 C5         -4.8566    0.2621   -0.3943 C.3       1 <0>        -0.0180
      7 C6         -5.3166   -1.1962   -0.4434 C.3       1 <0>        -0.1601
      8 C7         -4.0943   -2.1155   -0.4837 C.3       1 <0>        -0.1363
      9 C8         -4.5543   -3.5739   -0.5328 C.3       1 <0>         0.1336
     10 H1         -5.2206   -3.7732    0.3066 H         1 <0>         0.0986
     11 C9         -3.3364   -4.4960   -0.4473 C.3       1 <0>        -0.1742
     12 N2         -5.2656   -3.8195   -1.7898 N.pl3     1 <0>        -0.7234
     13 C10        -6.6116   -3.5340   -1.8879 C.ar      1 <0>         0.3882
     14 C11        -7.5379   -4.0736   -0.9772 C.ar      1 <0>        -0.1560
     15 C12        -7.1387   -4.9231    0.0681 C.ar      1 <0>        -0.0302
     16 C13        -8.0745   -5.4182    0.9222 C.ar      1 <0>        -0.1221
     17 C14        -9.4258   -5.1022    0.7855 C.ar      1 <0>         0.0715
     18 C15        -9.8736   -4.2854   -0.2061 C.ar      1 <0>        -0.1709
     19 C16        -8.9560   -3.7388   -1.1248 C.ar      1 <0>         0.2379
     20 N3         -9.3557   -2.9356   -2.1068 N.ar      1 <0>        -0.5075
     21 C17        -8.4951   -2.4125   -2.9808 C.ar      1 <0>         0.1852
     22 C18        -7.1052   -2.6866   -2.9006 C.ar      1 <0>        -0.1187
     23 C19        -6.2276   -2.1122   -3.8378 C.ar      1 <0>        -0.1114
     24 C20        -6.7194   -1.2940   -4.8124 C.ar      1 <0>         0.1305
     25 C21        -8.0891   -1.0189   -4.8902 C.ar      1 <0>        -0.0929
     26 C22        -8.9645   -1.5649   -4.0070 C.ar      1 <0>        -0.1235
     27 O1         -5.8696   -0.7397   -5.7174 O.3       1 <0>        -0.3009
     28 C23        -6.4454    0.1079   -6.7134 C.3       1 <0>         0.0143
     29 Cl1       -10.5673   -5.7694    1.9104 Cl        1 <0>         0.0030
     30 H2         -8.7461    1.7772    1.4000 H         1 <0>         0.1092
     31 H3         -7.8654    2.9056    0.3421 H         1 <0>         0.0853
     32 H4         -8.6842    1.4872   -0.3551 H         1 <0>         0.0750
     33 H5         -6.2984    1.4086    1.5472 H         1 <0>         0.1348
     34 H6         -7.1173   -0.0097    0.8501 H         1 <0>         0.1241
     35 H7         -6.4303    3.1871   -0.8147 H         1 <0>         0.1341
     36 H8         -5.0251    2.8421    0.2218 H         1 <0>         0.1338
     37 H9         -3.7676    2.0118   -1.7336 H         1 <0>         0.0823
     38 H10        -5.1784    2.3046   -2.7787 H         1 <0>         0.0774
     39 H11        -4.3324    3.6751   -2.0210 H         1 <0>         0.1109
     40 H12        -4.1657    0.4530   -1.2155 H         1 <0>         0.1391
     41 H13        -4.3549    0.4531    0.5544 H         1 <0>         0.1371
     42 H14        -5.9104   -1.4199    0.4428 H         1 <0>         0.0886
     43 H15        -5.9214   -1.3566   -1.3360 H         1 <0>         0.0785
     44 H16        -3.5004   -1.8918   -1.3699 H         1 <0>         0.0907
     45 H17        -3.4895   -1.9552    0.4089 H         1 <0>         0.1031
     46 H18        -3.6656   -5.5350   -0.4623 H         1 <0>         0.0772
     47 H19        -2.6799   -4.3106   -1.2975 H         1 <0>         0.0763
     48 H20        -2.7961   -4.2994    0.4787 H         1 <0>         0.0912
     49 H21        -4.7900   -4.1829   -2.5531 H         1 <0>         0.4305
     50 H22        -6.0974   -5.1812    0.1923 H         1 <0>         0.1668
     51 H23        -7.7638   -6.0713    1.7244 H         1 <0>         0.1645
     52 H24       -10.9261   -4.0577   -0.2887 H         1 <0>         0.1704
     53 H25        -5.1686   -2.3178   -3.7859 H         1 <0>         0.1594
     54 H26        -8.4570   -0.3678   -5.6694 H         1 <0>         0.1633
     55 H27       -10.0184   -1.3420   -4.0834 H         1 <0>         0.1645
     56 H28        -5.6599    0.4831   -7.3694 H         1 <0>         0.1197
     57 H29        -7.1682   -0.4594   -7.2997 H         1 <0>         0.0694
     58 H30        -6.9471    0.9467   -6.2308 H         1 <0>         0.0644
     59 H31        -6.5633    0.8795   -1.3271 H         1 <0>         0.4153
     60 H32       -10.2989   -2.7249   -2.1896 H         1 <0>         0.4441
@<TRIPOS>BOND
     1    1    2 1
     2    1   30 1
     3    1   31 1
     4    1   32 1
     5    2    3 1
     6    2   33 1
     7    2   34 1
     8    3    4 1
     9    3    6 1
    10    3   59 1
    11    4    5 1
    12    4   35 1
    13    4   36 1
    14    5   37 1
    15    5   38 1
    16    5   39 1
    17    6    7 1
    18    6   40 1
    19    6   41 1
    20    7    8 1
    21    7   42 1
    22    7   43 1
    23    8    9 1
    24    8   44 1
    25    8   45 1
    26    9   10 1
    27    9   11 1
    28    9   12 1
    29   11   46 1
    30   11   47 1
    31   11   48 1
    32   12   13 1
    33   12   49 1
    34   13   22 ar
    35   13   14 ar
    36   14   19 ar
    37   14   15 ar
    38   15   16 ar
    39   15   50 1
    40   16   17 ar
    41   16   51 1
    42   17   18 ar
    43   17   29 1
    44   18   19 ar
    45   18   52 1
    46   19   20 ar
    47   20   21 ar
    48   20   60 1
    49   21   26 ar
    50   21   22 ar
    51   22   23 ar
    52   23   24 ar
    53   23   53 1
    54   24   25 ar
    55   24   27 1
    56   25   26 ar
    57   25   54 1
    58   26   55 1
    59   27   28 1
    60   28   56 1
    61   28   57 1
    62   28   58 1
@<TRIPOS>MOLECULE
ZINC33971762
   41    43     0     0     0
SMALL
USER_CHARGES

@<TRIPOS>ATOM
      1 C1         -0.1882    1.7290    0.1955 C.3       1 <0>        -0.1309
      2 C2         -0.0702    0.2073    0.0878 C.3       1 <0>        -0.0259
      3 C3          0.7161   -0.2302   -1.1676 C.3       1 <0>        -0.1094
      4 C4          2.1268   -0.5350   -0.6041 C.3       1 <0>         0.0405
      5 N1          1.8390   -1.1603    0.7115 N.3       1 <0>        -0.5322
      6 C5          0.6980   -0.4088    1.2788 C.3       1 <0>         0.2994
      7 H1          1.0394    0.3565    1.9759 H         1 <0>         0.0776
      8 N2         -0.2494   -1.3390    1.8987 N.pl3     1 <0>        -0.6082
      9 C6         -1.4512   -1.3519    1.1851 C.ar      1 <0>         0.2180
     10 C7         -1.4185   -0.4740    0.1132 C.ar      1 <0>        -0.1472
     11 C8         -2.5141   -0.3423   -0.7184 C.ar      1 <0>        -0.0389
     12 C9         -3.6592   -1.0890   -0.4850 C.ar      1 <0>         0.0429
     13 C10        -3.7001   -1.9683    0.5867 C.ar      1 <0>        -0.0563
     14 C11        -2.6072   -2.1000    1.4164 C.ar      1 <0>        -0.1688
     15 O1         -4.7376   -0.9593   -1.3035 O.3       1 <0>        -0.2261
     16 C12        -4.6383   -1.4352   -2.5634 C.2       1 <0>         0.4996
     17 N3         -3.5806   -2.0956   -2.9265 N.2       1 <0>        -0.6269
     18 C13        -3.4728   -2.6119   -4.2933 C.3       1 <0>         0.0245
     19 O2         -5.6388   -1.2245   -3.4457 O.3       1 <0>        -0.4978
     20 C14         0.0235   -2.1399    3.0947 C.3       1 <0>         0.1095
     21 C15         3.0095   -1.0875    1.5963 C.3       1 <0>         0.0155
     22 H2          0.8083    2.1700    0.2180 H         1 <0>         0.0606
     23 H3         -0.7361    2.1127   -0.6652 H         1 <0>         0.0678
     24 H4         -0.7211    1.9882    1.1104 H         1 <0>         0.0624
     25 H5          0.2747   -1.1248   -1.6069 H         1 <0>         0.0841
     26 H6          0.7587    0.5784   -1.8973 H         1 <0>         0.0791
     27 H7          2.6581   -1.2312   -1.2530 H         1 <0>         0.0875
     28 H8          2.6971    0.3850   -0.4763 H         1 <0>         0.0502
     29 H9         -2.4788    0.3438   -1.5516 H         1 <0>         0.1225
     30 H10        -4.5905   -2.5508    0.7720 H         1 <0>         0.1326
     31 H11        -2.6452   -2.7858    2.2498 H         1 <0>         0.1268
     32 H12        -4.2937   -3.3025   -4.4866 H         1 <0>         0.0494
     33 H13        -3.5212   -1.7831   -4.9996 H         1 <0>         0.0495
     34 H14        -2.5234   -3.1342   -4.4105 H         1 <0>         0.0898
     35 H15        -5.4773   -1.6022   -4.3211 H         1 <0>         0.4199
     36 H16        -0.2683   -1.5785    3.9823 H         1 <0>         0.0491
     37 H17        -0.5461   -3.0680    3.0482 H         1 <0>         0.0679
     38 H18         1.0881   -2.3690    3.1434 H         1 <0>         0.0697
     39 H19         3.2777   -0.0435    1.7587 H         1 <0>         0.0309
     40 H20         2.7720   -1.5546    2.5521 H         1 <0>         0.0681
     41 H21         3.8471   -1.6102    1.1345 H         1 <0>         0.0733
@<TRIPOS>BOND
     1    1    2 1
     2    1   22 1
     3    1   23 1
     4    1   24 1
     5    2    6 1
     6    2   10 1
     7    2    3 1
     8    3    4 1
     9    3   25 1
    10    3   26 1
    11    4    5 1
    12    4   27 1
    13    4   28 1
    14    5    6 1
    15    5   21 1
    16    6    7 1
    17    6    8 1
    18    8    9 1
    19    8   20 1
    20    9   14 ar
    21    9   10 ar
    22   10   11 ar
    23   11   12 ar
    24   11   29 1
    25   12   13 ar
    26   12   15 1
    27   13   14 ar
    28   13   30 1
    29   14   31 1
    30   15   16 1
    31   16   17 2
    32   16   19 1
    33   17   18 1
    34   18   32 1
    35   18   33 1
    36   18   34 1
    37   19   35 1
    38   20   36 1
    39   20   37 1
    40   20   38 1
    41   21   39 1
    42   21   40 1
    43   21   41 1
@<TRIPOS>MOLECULE
ZINC33971762
   42    44     0     0     0
SMALL
USER_CHARGES

@<TRIPOS>ATOM
      1 C1         -0.1882    1.7290    0.1955 C.3       1 <0>        -0.1392
      2 C2         -0.0702    0.2073    0.0878 C.3       1 <0>        -0.0229
      3 C3          0.7161   -0.2302   -1.1676 C.3       1 <0>        -0.1344
      4 C4          2.1268   -0.5350   -0.6041 C.3       1 <0>        -0.0013
      5 N1          1.8390   -1.1603    0.7115 N.4       1 <0>        -0.4135
      6 C5          0.6980   -0.4088    1.2788 C.3       1 <0>         0.2646
      7 H1          1.0394    0.3565    1.9759 H         1 <0>         0.1606
      8 N2         -0.2494   -1.3390    1.8987 N.pl3     1 <0>        -0.6268
      9 C6         -1.4512   -1.3519    1.1851 C.ar      1 <0>         0.1765
     10 C7         -1.4185   -0.4740    0.1132 C.ar      1 <0>        -0.1459
     11 C8         -2.5141   -0.3423   -0.7184 C.ar      1 <0>        -0.0416
     12 C9         -3.6592   -1.0890   -0.4850 C.ar      1 <0>         0.0843
     13 C10        -3.7001   -1.9683    0.5867 C.ar      1 <0>        -0.0559
     14 C11        -2.6072   -2.1000    1.4164 C.ar      1 <0>        -0.1358
     15 O1         -4.7376   -0.9593   -1.3035 O.3       1 <0>        -0.2266
     16 C12        -4.6383   -1.4352   -2.5634 C.2       1 <0>         0.5068
     17 N3         -3.5806   -2.0956   -2.9265 N.2       1 <0>        -0.6345
     18 C13        -3.4728   -2.6119   -4.2933 C.3       1 <0>         0.0224
     19 O2         -5.6388   -1.2245   -3.4457 O.3       1 <0>        -0.4909
     20 C14         0.0238   -2.1405    3.0942 C.3       1 <0>         0.0905
     21 C15         3.0087   -1.0454    1.5928 C.3       1 <0>        -0.0450
     22 H2          0.8083    2.1700    0.2180 H         1 <0>         0.0725
     23 H3         -0.7361    2.1127   -0.6652 H         1 <0>         0.0852
     24 H4         -0.7211    1.9882    1.1104 H         1 <0>         0.0759
     25 H5          0.2747   -1.1248   -1.6069 H         1 <0>         0.1057
     26 H6          0.7587    0.5784   -1.8973 H         1 <0>         0.1233
     27 H7          2.6581   -1.2312   -1.2530 H         1 <0>         0.1390
     28 H8          2.6971    0.3850   -0.4763 H         1 <0>         0.1379
     29 H9         -2.4788    0.3438   -1.5516 H         1 <0>         0.1344
     30 H10        -4.5905   -2.5508    0.7720 H         1 <0>         0.1460
     31 H11        -2.6452   -2.7858    2.2498 H         1 <0>         0.1374
     32 H12        -3.5212   -1.7831   -4.9996 H         1 <0>         0.0540
     33 H13        -2.5234   -3.1342   -4.4105 H         1 <0>         0.0911
     34 H14        -4.2937   -3.3025   -4.4866 H         1 <0>         0.0548
     35 H15        -5.4773   -1.6022   -4.3211 H         1 <0>         0.4255
     36 H16        -0.2674   -1.5795    3.9822 H         1 <0>         0.0730
     37 H17        -0.5461   -3.0685    3.0476 H         1 <0>         0.0899
     38 H18         1.0883   -2.3700    3.1423 H         1 <0>         0.0704
     39 H19         3.2642    0.0063    1.7221 H         1 <0>         0.1241
     40 H20         2.7772   -1.4850    2.5630 H         1 <0>         0.1183
     41 H21         3.8525   -1.5722    1.1472 H         1 <0>         0.1259
     42 H22         1.5894   -2.1301    0.5881 H         1 <0>         0.4242
@<TRIPOS>BOND
     1    1    2 1
     2    1   22 1
     3    1   23 1
     4    1   24 1
     5    2    6 1
     6    2   10 1
     7    2    3 1
     8    3    4 1
     9    3   25 1
    10    3   26 1
    11    4    5 1
    12    4   27 1
    13    4   28 1
    14    5    6 1
    15    5   21 1
    16    5   42 1
    17    6    7 1
    18    6    8 1
    19    8    9 1
    20    8   20 1
    21    9   14 ar
    22    9   10 ar
    23   10   11 ar
    24   11   12 ar
    25   11   29 1
    26   12   13 ar
    27   12   15 1
    28   13   14 ar
    29   13   30 1
    30   14   31 1
    31   15   16 1
    32   16   17 2
    33   16   19 1
    34   17   18 1
    35   18   32 1
    36   18   33 1
    37   18   34 1
    38   19   35 1
    39   20   36 1
    40   20   37 1
    41   20   38 1
    42   21   39 1
    43   21   40 1
    44   21   41 1
