@<TRIPOS>MOLECULE
ZINC03953247
   31    33     0     0     0
SMALL
USER_CHARGES

@<TRIPOS>ATOM
      1 C1         -0.0167    1.3796    0.0096 C.ar      1 <0>        -0.1139
      2 C2          1.1681    2.0947    0.0022 C.ar      1 <0>        -0.1212
      3 C3          2.3774    1.4319   -0.0130 C.ar      1 <0>        -0.1003
      4 C4          2.4044    0.0345   -0.0208 C.ar      1 <0>        -0.0692
      5 C5          1.2037   -0.6807   -0.0131 C.ar      1 <0>        -0.1081
      6 C6          0.0021   -0.0041    0.0020 C.ar      1 <0>        -0.1209
      7 C7          3.6923   -0.6810   -0.0374 C.2       1 <0>        -0.0517
      8 C8          3.7144   -2.0246   -0.0449 C.2       1 <0>        -0.1312
      9 C9          5.0011   -2.7395   -0.0615 C.ar      1 <0>         0.1920
     10 C10         5.0068   -4.1470   -0.0749 C.ar      1 <0>        -0.1623
     11 C11         6.1911   -4.8190   -0.0904 C.ar      1 <0>        -0.0559
     12 C12         7.3859   -4.0701   -0.0925 C.ar      1 <0>        -0.1083
     13 C13         8.6392   -4.7009   -0.1086 C.ar      1 <0>        -0.0951
     14 C14         9.7736   -3.9468   -0.1106 C.ar      1 <0>        -0.1182
     15 C15         9.7071   -2.5551   -0.0963 C.ar      1 <0>        -0.0990
     16 C16         8.5089   -1.9100   -0.0800 C.ar      1 <0>        -0.0957
     17 C17         7.3152   -2.6543   -0.0784 C.ar      1 <0>         0.1342
     18 N1          6.1268   -2.0455   -0.0689 N.ar      1 <0>        -0.4748
     19 H1         -0.9607    1.9041    0.0260 H         1 <0>         0.1234
     20 H2          1.1457    3.1744    0.0078 H         1 <0>         0.1251
     21 H3          3.3013    1.9912   -0.0191 H         1 <0>         0.1265
     22 H4          1.2168   -1.7606   -0.0194 H         1 <0>         0.1261
     23 H5         -0.9266   -0.5554    0.0083 H         1 <0>         0.1247
     24 H6          4.6186   -0.1257   -0.0436 H         1 <0>         0.1354
     25 H7          2.7881   -2.5800   -0.0386 H         1 <0>         0.1331
     26 H8          4.0747   -4.6924   -0.0725 H         1 <0>         0.1395
     27 H9          6.2146   -5.8987   -0.1005 H         1 <0>         0.1408
     28 H10         8.7041   -5.7789   -0.1191 H         1 <0>         0.1304
     29 H11        10.7373   -4.4341   -0.1231 H         1 <0>         0.1285
     30 H12        10.6208   -1.9794   -0.0978 H         1 <0>         0.1309
     31 H13         8.4747   -0.8306   -0.0683 H         1 <0>         0.1354
@<TRIPOS>BOND
     1    1    6 ar
     2    1    2 ar
     3    1   19 1
     4    2    3 ar
     5    2   20 1
     6    3    4 ar
     7    3   21 1
     8    4    5 ar
     9    4    7 1
    10    5    6 ar
    11    5   22 1
    12    6   23 1
    13    7    8 2
    14    7   24 1
    15    8    9 1
    16    8   25 1
    17    9   18 ar
    18    9   10 ar
    19   10   11 ar
    20   10   26 1
    21   11   12 ar
    22   11   27 1
    23   12   17 ar
    24   12   13 ar
    25   13   14 ar
    26   13   28 1
    27   14   15 ar
    28   14   29 1
    29   15   16 ar
    30   15   30 1
    31   16   17 ar
    32   16   31 1
    33   17   18 ar
@<TRIPOS>MOLECULE
ZINC04812040
   30    32     0     0     0
SMALL
USER_CHARGES

@<TRIPOS>ATOM
      1 C1         -0.0164    1.3579    0.0095 C.ar      1 <0>        -0.1171
      2 C2          1.1695    2.0893    0.0021 C.ar      1 <0>        -0.0988
      3 C3          2.3788    1.4653   -0.0132 C.ar      1 <0>        -0.0954
      4 C4          2.4391    0.0597   -0.0213 C.ar      1 <0>         0.1337
      5 C5          1.2307   -0.6819   -0.0132 C.ar      1 <0>        -0.1067
      6 C6          0.0021   -0.0041    0.0020 C.ar      1 <0>        -0.0954
      7 C7          1.2878   -2.0905   -0.0212 C.ar      1 <0>        -0.0555
      8 C8          2.5117   -2.6880   -0.0365 C.ar      1 <0>        -0.1612
      9 C9          3.6760   -1.8978   -0.0439 C.ar      1 <0>         0.1893
     10 N1          3.6125   -0.5767   -0.0358 N.ar      1 <0>        -0.4734
     11 C10         4.9928   -2.5555   -0.0604 C.2       1 <0>        -0.1221
     12 C11         6.1138   -1.8146   -0.0676 C.2       1 <0>        -0.0528
     13 C12         7.4320   -2.4730   -0.0841 C.ar      1 <0>        -0.1177
     14 C13         8.6093   -1.7120   -0.0859 C.ar      1 <0>        -0.0590
     15 C14         9.8206   -2.3792   -0.1017 C.ar      1 <0>        -0.1711
     16 C15         9.8322   -3.7629   -0.1152 C.ar      1 <0>         0.1013
     17 N2          8.7086   -4.4542   -0.1135 N.ar      1 <0>        -0.4837
     18 C16         7.5303   -3.8668   -0.0924 C.ar      1 <0>         0.1102
     19 H1         -0.9629    1.8778    0.0259 H         1 <0>         0.1288
     20 H2          1.1284    3.1685    0.0083 H         1 <0>         0.1312
     21 H3          3.2888    2.0469   -0.0195 H         1 <0>         0.1355
     22 H4         -0.9242   -0.5595    0.0082 H         1 <0>         0.1309
     23 H5          0.3836   -2.6811   -0.0151 H         1 <0>         0.1415
     24 H6          2.5883   -3.7653   -0.0426 H         1 <0>         0.1407
     25 H7          5.0579   -3.6335   -0.0667 H         1 <0>         0.1344
     26 H8          6.0487   -0.7366   -0.0612 H         1 <0>         0.1381
     27 H9          8.5713   -0.6327   -0.0756 H         1 <0>         0.1389
     28 H10        10.7482   -1.8260   -0.1040 H         1 <0>         0.1390
     29 H11        10.7771   -4.2858   -0.1275 H         1 <0>         0.1580
     30 H12         6.6325   -4.4671   -0.0863 H         1 <0>         0.1586
@<TRIPOS>BOND
     1    1    6 ar
     2    1    2 ar
     3    1   19 1
     4    2    3 ar
     5    2   20 1
     6    3    4 ar
     7    3   21 1
     8    4   10 ar
     9    4    5 ar
    10    5    6 ar
    11    5    7 ar
    12    6   22 1
    13    7    8 ar
    14    7   23 1
    15    8    9 ar
    16    8   24 1
    17    9   10 ar
    18    9   11 1
    19   11   12 2
    20   11   25 1
    21   12   13 1
    22   12   26 1
    23   13   18 ar
    24   13   14 ar
    25   14   15 ar
    26   14   27 1
    27   15   16 ar
    28   15   28 1
    29   16   17 ar
    30   16   29 1
    31   17   18 ar
    32   18   30 1
@<TRIPOS>MOLECULE
ZINC03784127
   60    62     0     0     0
SMALL
USER_CHARGES

@<TRIPOS>ATOM
      1 C1          0.7509    0.7586   -1.0380 C.3       1 <0>         0.0892
      2 N1          0.5869   -0.6809   -0.8211 N.am      1 <0>        -0.6261
      3 C2          1.7646   -1.5488   -0.7433 C.3       1 <0>         0.0758
      4 C3         -0.6474   -1.2068   -0.6931 C.2       1 <0>         0.5160
      5 O1         -1.6223   -0.4884   -0.7574 O.2       1 <0>        -0.5274
      6 C4         -0.8160   -2.6877   -0.4699 C.3       1 <0>        -0.1200
      7 C5         -2.3053   -3.0204   -0.3595 C.3       1 <0>        -0.0838
      8 S1         -2.5083   -4.8029   -0.0909 S.3       1 <0>        -0.1857
      9 C6         -4.2919   -5.0071    0.1696 C.3       1 <0>         0.0133
     10 H1         -4.6198   -4.3464    0.9721 H         1 <0>         0.1078
     11 C7         -4.5842   -6.4370    0.5452 C.ar      1 <0>        -0.0678
     12 C8         -4.2478   -7.4613   -0.3228 C.ar      1 <0>        -0.0703
     13 C9         -4.5123   -8.7771    0.0134 C.ar      1 <0>        -0.1220
     14 C10        -5.1140   -9.0773    1.2177 C.ar      1 <0>        -0.0967
     15 C11        -5.4561   -8.0486    2.0994 C.ar      1 <0>        -0.0738
     16 C12        -5.1810   -6.7220    1.7551 C.ar      1 <0>        -0.0739
     17 C13        -6.0995   -8.3610    3.3876 C.2       1 <0>        -0.0304
     18 C14        -6.3586   -9.6377    3.7171 C.2       1 <0>        -0.1480
     19 C15        -7.0014   -9.9498    5.0040 C.ar      1 <0>         0.2071
     20 C16        -7.2608  -11.2925    5.3366 C.ar      1 <0>        -0.1580
     21 C17        -7.8550  -11.5933    6.5245 C.ar      1 <0>        -0.0548
     22 C18        -8.1937  -10.5338    7.3909 C.ar      1 <0>        -0.1124
     23 C19        -8.8074  -10.7759    8.6296 C.ar      1 <0>        -0.0772
     24 C20        -9.1211   -9.7294    9.4427 C.ar      1 <0>        -0.1175
     25 C21        -8.8409   -8.4178    9.0609 C.ar      1 <0>        -0.0151
     26 C22        -8.2465   -8.1465    7.8658 C.ar      1 <0>        -0.0841
     27 C23        -7.9070   -9.2016    6.9999 C.ar      1 <0>         0.1484
     28 N2         -7.3179   -8.9628    5.8255 N.ar      1 <0>        -0.4738
     29 Cl1        -9.2567   -7.1106   10.1250 Cl        1 <0>        -0.0619
     30 S2         -5.1777   -4.5898   -1.3574 S.3       1 <0>        -0.2600
     31 C24        -6.8978   -4.3762   -0.8224 C.3       1 <0>        -0.0425
     32 C25        -7.7432   -3.8952   -2.0035 C.3       1 <0>        -0.1675
     33 C26        -9.1722   -3.7177   -1.5591 C.2       1 <0>         0.4988
     34 O2         -9.4855   -3.9541   -0.4047 O.co2     1 <0>        -0.6949
     35 O3        -10.0151   -3.3379   -2.3539 O.co2     1 <0>        -0.6977
     36 H2          1.8119    0.9957   -1.1166 H         1 <0>         0.0742
     37 H3          0.2448    1.0472   -1.9593 H         1 <0>         0.0616
     38 H4          0.3179    1.3041   -0.1994 H         1 <0>         0.0610
     39 H5          2.0989   -1.6157    0.2921 H         1 <0>         0.0582
     40 H6          1.5075   -2.5436   -1.1071 H         1 <0>         0.0749
     41 H7          2.5637   -1.1327   -1.3569 H         1 <0>         0.0731
     42 H8         -0.3830   -3.2331   -1.3084 H         1 <0>         0.1030
     43 H9         -0.3100   -2.9762    0.4514 H         1 <0>         0.1016
     44 H10        -2.7383   -2.4750    0.4790 H         1 <0>         0.0903
     45 H11        -2.8113   -2.7318   -1.2808 H         1 <0>         0.1034
     46 H12        -3.7768   -7.2322   -1.2673 H         1 <0>         0.1327
     47 H13        -4.2473   -9.5711   -0.6691 H         1 <0>         0.1274
     48 H14        -5.3204  -10.1048    1.4784 H         1 <0>         0.1266
     49 H15        -5.4389   -5.9221    2.4333 H         1 <0>         0.1274
     50 H16        -6.3628   -7.5638    4.0670 H         1 <0>         0.1359
     51 H17        -6.0953  -10.4348    3.0376 H         1 <0>         0.1348
     52 H18        -6.9897  -12.0822    4.6514 H         1 <0>         0.1421
     53 H19        -8.0619  -12.6180    6.7960 H         1 <0>         0.1424
     54 H20        -9.0302  -11.7872    8.9363 H         1 <0>         0.1391
     55 H21        -9.5933   -9.9179   10.3956 H         1 <0>         0.1375
     56 H22        -8.0367   -7.1252    7.5841 H         1 <0>         0.1475
     57 H23        -7.2868   -5.3281   -0.4610 H         1 <0>         0.0814
     58 H24        -6.9402   -3.6385   -0.0210 H         1 <0>         0.0783
     59 H25        -7.3543   -2.9433   -2.3649 H         1 <0>         0.0662
     60 H26        -7.7009   -4.6328   -2.8048 H         1 <0>         0.0659
@<TRIPOS>BOND
     1    1    2 1
     2    1   36 1
     3    1   37 1
     4    1   38 1
     5    2    3 1
     6    2    4 am
     7    3   39 1
     8    3   40 1
     9    3   41 1
    10    4    5 2
    11    4    6 1
    12    6    7 1
    13    6   42 1
    14    6   43 1
    15    7    8 1
    16    7   44 1
    17    7   45 1
    18    8    9 1
    19    9   10 1
    20    9   11 1
    21    9   30 1
    22   11   16 ar
    23   11   12 ar
    24   12   13 ar
    25   12   46 1
    26   13   14 ar
    27   13   47 1
    28   14   15 ar
    29   14   48 1
    30   15   16 ar
    31   15   17 1
    32   16   49 1
    33   17   18 2
    34   17   50 1
    35   18   19 1
    36   18   51 1
    37   19   28 ar
    38   19   20 ar
    39   20   21 ar
    40   20   52 1
    41   21   22 ar
    42   21   53 1
    43   22   27 ar
    44   22   23 ar
    45   23   24 ar
    46   23   54 1
    47   24   25 ar
    48   24   55 1
    49   25   26 ar
    50   25   29 1
    51   26   27 ar
    52   26   56 1
    53   27   28 ar
    54   30   31 1
    55   31   32 1
    56   31   57 1
    57   31   58 1
    58   32   33 1
    59   32   59 1
    60   32   60 1
    61   33   34 2
    62   33   35 1
@<TRIPOS>MOLECULE
ZINC03784397
   60    62     0     0     0
SMALL
USER_CHARGES

@<TRIPOS>ATOM
      1 C1          1.4566   -4.9960   -5.1642 C.3       1 <0>         0.0897
      2 N1          1.0509   -4.6152   -3.8090 N.am      1 <0>        -0.6251
      3 C2          2.0019   -3.9406   -2.9220 C.3       1 <0>         0.0745
      4 C3         -0.1973   -4.8855   -3.3782 C.2       1 <0>         0.5181
      5 O1         -0.9846   -5.4439   -4.1125 O.2       1 <0>        -0.5352
      6 C4         -0.6146   -4.4937   -1.9842 C.3       1 <0>        -0.1215
      7 C5         -2.0678   -4.9116   -1.7504 C.3       1 <0>        -0.0793
      8 S1         -2.5701   -4.4401   -0.0724 S.3       1 <0>        -0.2274
      9 C6         -4.3340   -4.8587   -0.0084 C.3       1 <0>         0.0119
     10 H1         -4.8205   -4.5233   -0.9244 H         1 <0>         0.1077
     11 C7         -4.4915   -6.3513    0.1265 C.ar      1 <0>        -0.0655
     12 C8         -3.9564   -7.0057    1.2225 C.ar      1 <0>        -0.0693
     13 C9         -4.0960   -8.3759    1.3549 C.ar      1 <0>        -0.1215
     14 C10        -4.7704   -9.1000    0.3940 C.ar      1 <0>        -0.0985
     15 C11        -5.3138   -8.4462   -0.7151 C.ar      1 <0>        -0.0753
     16 C12        -5.1733   -7.0610   -0.8394 C.ar      1 <0>        -0.0776
     17 C13        -6.0353   -9.2127   -1.7461 C.2       1 <0>        -0.0319
     18 C14        -6.1721  -10.5436   -1.6212 C.2       1 <0>        -0.1474
     19 C15        -6.8929  -11.3093   -2.6513 C.ar      1 <0>         0.2061
     20 C16        -7.0323  -12.7019   -2.5027 C.ar      1 <0>        -0.1584
     21 C17        -7.6972  -13.4207   -3.4492 C.ar      1 <0>        -0.0542
     22 C18        -8.2296  -12.7343   -4.5598 C.ar      1 <0>        -0.1122
     23 C19        -8.9259  -13.4158   -5.5699 C.ar      1 <0>        -0.0770
     24 C20        -9.4278  -12.7222   -6.6290 C.ar      1 <0>        -0.1170
     25 C21        -9.2588  -11.3412   -6.7245 C.ar      1 <0>        -0.0147
     26 C22        -8.5881  -10.6481   -5.7627 C.ar      1 <0>        -0.0851
     27 C23        -8.0565  -11.3302   -4.6535 C.ar      1 <0>         0.1480
     28 N2         -7.4003  -10.6732   -3.6939 N.ar      1 <0>        -0.4745
     29 Cl1        -9.9127  -10.4926   -8.0905 Cl        1 <0>        -0.0609
     30 S2         -5.0988   -4.0386    1.4175 S.3       1 <0>        -0.2031
     31 C24        -4.9800   -2.2719    1.0235 C.3       1 <0>        -0.0511
     32 C25        -5.7074   -1.4599    2.0970 C.3       1 <0>        -0.1689
     33 C26        -5.6087    0.0078    1.7696 C.2       1 <0>         0.4998
     34 O2         -5.0119    0.3707    0.7703 O.co2     1 <0>        -0.6935
     35 O3         -6.1257    0.8323    2.5041 O.co2     1 <0>        -0.6972
     36 H2          2.4918   -4.6983   -5.3307 H         1 <0>         0.0745
     37 H3          1.3659   -6.0760   -5.2807 H         1 <0>         0.0598
     38 H4          0.8139   -4.4971   -5.8896 H         1 <0>         0.0608
     39 H5          1.9190   -2.8618   -3.0536 H         1 <0>         0.0608
     40 H6          1.7789   -4.1986   -1.8867 H         1 <0>         0.0758
     41 H7          3.0152   -4.2597   -3.1658 H         1 <0>         0.0730
     42 H8          0.0281   -4.9926   -1.2588 H         1 <0>         0.1020
     43 H9         -0.5239   -3.4138   -1.8677 H         1 <0>         0.1054
     44 H10        -2.7105   -4.4127   -2.4758 H         1 <0>         0.0873
     45 H11        -2.1585   -5.9916   -1.8669 H         1 <0>         0.0874
     46 H12        -3.4270   -6.4440    1.9779 H         1 <0>         0.1341
     47 H13        -3.6755   -8.8797    2.2127 H         1 <0>         0.1276
     48 H14        -4.8780  -10.1695    0.4984 H         1 <0>         0.1260
     49 H15        -5.5941   -6.5485   -1.6918 H         1 <0>         0.1264
     50 H16        -6.4543   -8.7047   -2.6022 H         1 <0>         0.1351
     51 H17        -5.7532  -11.0515   -0.7651 H         1 <0>         0.1348
     52 H18        -6.6129  -13.1992   -1.6406 H         1 <0>         0.1421
     53 H19        -7.8135  -14.4900   -3.3518 H         1 <0>         0.1427
     54 H20        -9.0628  -14.4853   -5.5078 H         1 <0>         0.1395
     55 H21        -9.9633  -13.2485   -7.4052 H         1 <0>         0.1380
     56 H22        -8.4649   -9.5788   -5.8514 H         1 <0>         0.1472
     57 H23        -3.9313   -1.9763    0.9926 H         1 <0>         0.0930
     58 H24        -5.4391   -2.0845    0.0528 H         1 <0>         0.0808
     59 H25        -6.7561   -1.7556    2.1279 H         1 <0>         0.0662
     60 H26        -5.2483   -1.6474    3.0677 H         1 <0>         0.0670
@<TRIPOS>BOND
     1    1    2 1
     2    1   36 1
     3    1   37 1
     4    1   38 1
     5    2    3 1
     6    2    4 am
     7    3   39 1
     8    3   40 1
     9    3   41 1
    10    4    5 2
    11    4    6 1
    12    6    7 1
    13    6   42 1
    14    6   43 1
    15    7    8 1
    16    7   44 1
    17    7   45 1
    18    8    9 1
    19    9   10 1
    20    9   11 1
    21    9   30 1
    22   11   16 ar
    23   11   12 ar
    24   12   13 ar
    25   12   46 1
    26   13   14 ar
    27   13   47 1
    28   14   15 ar
    29   14   48 1
    30   15   16 ar
    31   15   17 1
    32   16   49 1
    33   17   18 2
    34   17   50 1
    35   18   19 1
    36   18   51 1
    37   19   28 ar
    38   19   20 ar
    39   20   21 ar
    40   20   52 1
    41   21   22 ar
    42   21   53 1
    43   22   27 ar
    44   22   23 ar
    45   23   24 ar
    46   23   54 1
    47   24   25 ar
    48   24   55 1
    49   25   26 ar
    50   25   29 1
    51   26   27 ar
    52   26   56 1
    53   27   28 ar
    54   30   31 1
    55   31   32 1
    56   31   57 1
    57   31   58 1
    58   32   33 1
    59   32   59 1
    60   32   60 1
    61   33   34 2
    62   33   35 1
@<TRIPOS>MOLECULE
ZINC13298738
   44    45     0     0     0
SMALL
USER_CHARGES

@<TRIPOS>ATOM
      1 C1         -0.0187    1.5258    0.0104 C.3       1 <0>        -0.1504
      2 C2          0.0021   -0.0041    0.0020 C.3       1 <0>        -0.1155
      3 C3          0.7182   -0.4975   -1.2568 C.3       1 <0>        -0.0626
      4 C4          0.7386   -2.0043   -1.2651 C.ar      1 <0>        -0.1635
      5 C5          1.7913   -2.6880   -0.6730 C.ar      1 <0>         0.1897
      6 C6          1.8163   -4.0801   -0.6766 C.ar      1 <0>        -0.2299
      7 C7          0.8070   -4.7875   -1.2623 C.ar      1 <0>        -0.0201
      8 C8         -0.2639   -4.1142   -1.8655 C.ar      1 <0>        -0.2478
      9 C9         -0.2951   -2.7078   -1.8580 C.ar      1 <0>         0.2080
     10 O1         -1.3291   -2.0453   -2.4333 O.3       1 <0>        -0.4732
     11 C10        -1.3482   -4.8713   -2.4958 C.2       1 <0>         0.3966
     12 O2         -2.2739   -4.2852   -3.0171 O.2       1 <0>        -0.4544
     13 C11        -1.3138   -6.3779   -2.4967 C.3       1 <0>        -0.2009
     14 O3          2.8013   -1.9963   -0.0881 O.3       1 <0>        -0.3016
     15 C12         3.8540   -2.7609    0.5029 C.3       1 <0>         0.0556
     16 C13         4.8935   -1.8152    1.1078 C.3       1 <0>        -0.1151
     17 C14         6.0206   -2.6338    1.7407 C.3       1 <0>        -0.1048
     18 C15         7.0601   -1.6880    2.3455 C.3       1 <0>         0.0023
     19 C16         8.1703   -2.4943    2.9689 C.2       1 <0>         0.0503
     20 N1          8.2225   -2.9335    4.2180 N.2       1 <0>        -0.3893
     21 N2          9.3295   -3.5796    4.3580 N.2       1 <0>        -0.2002
     22 N3          9.9706   -3.5600    3.2415 N.2       1 <0>        -0.2003
     23 N4          9.2794   -2.9055    2.3718 N.2       1 <0>        -0.3895
     24 H1          1.0039    1.9031    0.0027 H         1 <0>         0.0550
     25 H2         -0.5459    1.8868   -0.8726 H         1 <0>         0.0523
     26 H3         -0.5289    1.8773    0.9072 H         1 <0>         0.0532
     27 H4          0.5293   -0.3651    0.8851 H         1 <0>         0.0624
     28 H5         -1.0205   -0.3814    0.0098 H         1 <0>         0.0617
     29 H6          0.1910   -0.1364   -2.1398 H         1 <0>         0.0700
     30 H7          1.7408   -0.1202   -1.2645 H         1 <0>         0.0774
     31 H8          2.6397   -4.6033   -0.2134 H         1 <0>         0.1392
     32 H9          0.8337   -5.8672   -1.2614 H         1 <0>         0.1385
     33 H10        -1.1947   -1.8431   -3.3693 H         1 <0>         0.3948
     34 H11        -1.8156   -6.7533   -1.6048 H         1 <0>         0.0955
     35 H12        -1.8228   -6.7524   -3.3848 H         1 <0>         0.0858
     36 H13        -0.2781   -6.7177   -2.5011 H         1 <0>         0.0845
     37 H14         3.4442   -3.3990    1.2859 H         1 <0>         0.0672
     38 H15         4.3262   -3.3797   -0.2601 H         1 <0>         0.0671
     39 H16         5.3034   -1.1771    0.3249 H         1 <0>         0.0745
     40 H17         4.4213   -1.1963    1.8708 H         1 <0>         0.0747
     41 H18         5.6108   -3.2718    2.5236 H         1 <0>         0.0643
     42 H19         6.4928   -3.2526    0.9776 H         1 <0>         0.0641
     43 H20         7.4700   -1.0500    1.5626 H         1 <0>         0.0671
     44 H21         6.5880   -1.0692    3.1085 H         1 <0>         0.0672
@<TRIPOS>BOND
     1    1    2 1
     2    1   24 1
     3    1   25 1
     4    1   26 1
     5    2    3 1
     6    2   27 1
     7    2   28 1
     8    3    4 1
     9    3   29 1
    10    3   30 1
    11    4    9 ar
    12    4    5 ar
    13    5    6 ar
    14    5   14 1
    15    6    7 ar
    16    6   31 1
    17    7    8 ar
    18    7   32 1
    19    8    9 ar
    20    8   11 1
    21    9   10 1
    22   10   33 1
    23   11   12 2
    24   11   13 1
    25   13   34 1
    26   13   35 1
    27   13   36 1
    28   14   15 1
    29   15   16 1
    30   15   37 1
    31   15   38 1
    32   16   17 1
    33   16   39 1
    34   16   40 1
    35   17   18 1
    36   17   41 1
    37   17   42 1
    38   18   19 1
    39   18   43 1
    40   18   44 1
    41   19   23 2
    42   19   20 1
    43   20   21 1
    44   21   22 2
    45   22   23 1
@<TRIPOS>MOLECULE
ZINC00538316
   39    41     0     0     0
SMALL
USER_CHARGES
1,1,1-trifluoro-N-[3-(2-quinolylmethoxy)phenyl]methanesulfonamide
@<TRIPOS>ATOM
      1 C1          1.1590    3.1683    0.0071 C.ar      1 <0>        -0.1140
      2 C2          1.1549    1.7747    0.0006 C.ar      1 <0>        -0.0984
      3 C3         -0.0126    1.0758    0.0080 C.ar      1 <0>        -0.0931
      4 C4         -1.2381    1.7649    0.0175 C.ar      1 <0>         0.1326
      5 C5         -1.2315    3.1820    0.0295 C.ar      1 <0>        -0.1027
      6 C6         -0.0074    3.8703    0.0211 C.ar      1 <0>        -0.0963
      7 C7         -2.4591    3.8699    0.0436 C.ar      1 <0>        -0.0542
      8 C8         -3.6102    3.1342    0.0506 C.ar      1 <0>        -0.1557
      9 C9         -3.5459    1.7428    0.0439 C.ar      1 <0>         0.1571
     10 N1         -2.4004    1.1052    0.0304 N.ar      1 <0>        -0.4692
     11 C10        -4.8271    0.9493    0.0519 C.3       1 <0>         0.1110
     12 O1         -5.9413    1.8439    0.0658 O.3       1 <0>        -0.3089
     13 C11        -7.1804    1.2858    0.0744 C.ar      1 <0>         0.1490
     14 C12        -7.3201   -0.0953    0.0696 C.ar      1 <0>        -0.2010
     15 C13        -8.5792   -0.6643    0.0793 C.ar      1 <0>        -0.0532
     16 C14        -9.7032    0.1390    0.0938 C.ar      1 <0>        -0.1750
     17 C15        -9.5695    1.5219    0.0988 C.ar      1 <0>         0.1533
     18 C16        -8.3051    2.0952    0.0939 C.ar      1 <0>        -0.1490
     19 N2        -10.7056    2.3342    0.1139 N.pl3     1 <0>        -1.0199
     20 S1        -11.9586    1.9862    1.1392 S.o2      1 <0>         2.6059
     21 O2        -12.9334    2.9852    0.8725 O.2       1 <0>        -0.8746
     22 O3        -12.2458    0.6139    0.9081 O.2       1 <0>        -0.8646
     23 C17       -11.2744    2.2096    2.8043 C.3       1 <0>        -0.0381
     24 F1        -10.8341    3.5290    2.9543 F         1 <0>        -0.1582
     25 F2        -12.2635    1.9371    3.7553 F         1 <0>        -0.1587
     26 F3        -10.1979    1.3351    2.9873 F         1 <0>        -0.1548
     27 H1          2.0999    3.6985    0.0006 H         1 <0>         0.1299
     28 H2          2.0936    1.2408   -0.0109 H         1 <0>         0.1324
     29 H3          0.0021   -0.0041    0.0020 H         1 <0>         0.1372
     30 H4          0.0086    4.9501    0.0260 H         1 <0>         0.1321
     31 H5         -2.4904    4.9494    0.0483 H         1 <0>         0.1428
     32 H6         -4.5691    3.6309    0.0618 H         1 <0>         0.1476
     33 H7         -4.8734    0.3251   -0.8405 H         1 <0>         0.0927
     34 H8         -4.8574    0.3172    0.9394 H         1 <0>         0.0923
     35 H9         -6.4434   -0.7259    0.0586 H         1 <0>         0.1376
     36 H10        -8.6850   -1.7391    0.0758 H         1 <0>         0.1404
     37 H11       -10.6862   -0.3082    0.1018 H         1 <0>         0.1615
     38 H12        -8.1982    3.1698    0.1018 H         1 <0>         0.1428
     39 H13       -10.7606    3.1022   -0.4760 H         1 <0>         0.4413
@<TRIPOS>BOND
     1    1    6 ar
     2    1    2 ar
     3    1   27 1
     4    2    3 ar
     5    2   28 1
     6    3    4 ar
     7    3   29 1
     8    4   10 ar
     9    4    5 ar
    10    5    6 ar
    11    5    7 ar
    12    6   30 1
    13    7    8 ar
    14    7   31 1
    15    8    9 ar
    16    8   32 1
    17    9   10 ar
    18    9   11 1
    19   11   12 1
    20   11   33 1
    21   11   34 1
    22   12   13 1
    23   13   18 ar
    24   13   14 ar
    25   14   15 ar
    26   14   35 1
    27   15   16 ar
    28   15   36 1
    29   16   17 ar
    30   16   37 1
    31   17   18 ar
    32   17   19 1
    33   18   38 1
    34   19   20 1
    35   19   39 1
    36   20   21 2
    37   20   22 2
    38   20   23 1
    39   23   24 1
    40   23   25 1
    41   23   26 1
@<TRIPOS>MOLECULE
ZINC00596951
   45    48     0     0     0
SMALL
USER_CHARGES

@<TRIPOS>ATOM
      1 C1         -0.0074    1.3728   -0.1530 C.ar      1 <0>        -0.1207
      2 C2          1.1705    2.0977   -0.3238 C.ar      1 <0>        -0.1036
      3 C3          2.3763    1.4713   -0.3956 C.ar      1 <0>        -0.0922
      4 C4          2.4417    0.0703   -0.2967 C.ar      1 <0>         0.1322
      5 C5          1.2426   -0.6647   -0.1230 C.ar      1 <0>        -0.1058
      6 C6          0.0159    0.0153   -0.0532 C.ar      1 <0>        -0.0944
      7 C7          1.3101   -2.0669   -0.0241 C.ar      1 <0>        -0.0597
      8 C8          2.5383   -2.6601   -0.1006 C.ar      1 <0>        -0.1486
      9 C9          3.6783   -1.8784   -0.2720 C.ar      1 <0>         0.1682
     10 N1          3.6118   -0.5722   -0.3633 N.ar      1 <0>        -0.4736
     11 C10         5.0240   -2.5518   -0.3535 C.3       1 <0>         0.1118
     12 O1          4.8574   -3.9657   -0.2302 O.3       1 <0>        -0.3167
     13 C11         5.9822   -4.7265   -0.2834 C.ar      1 <0>         0.1656
     14 C12         7.2218   -4.1229   -0.4452 C.ar      1 <0>        -0.2742
     15 C13         8.3665   -4.8949   -0.4995 C.ar      1 <0>        -0.0399
     16 C14         8.2815   -6.2697   -0.3930 C.ar      1 <0>        -0.2081
     17 C15         7.0436   -6.8794   -0.2304 C.ar      1 <0>         0.2998
     18 C16         5.8929   -6.1046   -0.1704 C.ar      1 <0>        -0.2220
     19 N2          6.9573   -8.2698   -0.1227 N.pl3     1 <0>        -0.6650
     20 C17         8.1010   -9.0471   -0.2395 C.ar      1 <0>         0.1636
     21 C18         8.3984   -9.6765   -1.4426 C.ar      1 <0>        -0.1375
     22 C19         9.5357  -10.4485   -1.5562 C.ar      1 <0>        -0.1242
     23 C20        10.3909  -10.6036   -0.4756 C.ar      1 <0>        -0.1370
     24 C21        10.1150   -9.9885    0.7247 C.ar      1 <0>        -0.0838
     25 C22         8.9682   -9.1977    0.8561 C.ar      1 <0>        -0.1339
     26 C23         8.6697   -8.5330    2.1332 C.2       1 <0>         0.5179
     27 O2          9.4755   -8.5841    3.0526 O.co2     1 <0>        -0.6926
     28 O3          7.6154   -7.9287    2.2767 O.co2     1 <0>        -0.6654
     29 H1         -0.9509    1.8952   -0.0947 H         1 <0>         0.1263
     30 H2          1.1256    3.1740   -0.4007 H         1 <0>         0.1290
     31 H3          3.2797    2.0481   -0.5285 H         1 <0>         0.1354
     32 H4         -0.9037   -0.5355    0.0790 H         1 <0>         0.1296
     33 H5          0.4157   -2.6576    0.1089 H         1 <0>         0.1413
     34 H6          2.6253   -3.7341   -0.0280 H         1 <0>         0.1514
     35 H7          5.4873   -2.3229   -1.3132 H         1 <0>         0.0876
     36 H8          5.6612   -2.1893    0.4532 H         1 <0>         0.0889
     37 H9          7.2915   -3.0484   -0.5292 H         1 <0>         0.1173
     38 H10         9.3295   -4.4226   -0.6258 H         1 <0>         0.1167
     39 H11         9.1777   -6.8708   -0.4364 H         1 <0>         0.1146
     40 H12         4.9298   -6.5756   -0.0400 H         1 <0>         0.1225
     41 H13         6.0980   -8.6917    0.0338 H         1 <0>         0.4031
     42 H14         7.7380   -9.5612   -2.2893 H         1 <0>         0.1170
     43 H15         9.7616  -10.9358   -2.4931 H         1 <0>         0.1156
     44 H16        11.2784  -11.2109   -0.5761 H         1 <0>         0.1154
     45 H17        10.7847  -10.1133    1.5628 H         1 <0>         0.1277
@<TRIPOS>BOND
     1    1    6 ar
     2    1    2 ar
     3    1   29 1
     4    2    3 ar
     5    2   30 1
     6    3    4 ar
     7    3   31 1
     8    4   10 ar
     9    4    5 ar
    10    5    6 ar
    11    5    7 ar
    12    6   32 1
    13    7    8 ar
    14    7   33 1
    15    8    9 ar
    16    8   34 1
    17    9   10 ar
    18    9   11 1
    19   11   12 1
    20   11   35 1
    21   11   36 1
    22   12   13 1
    23   13   18 ar
    24   13   14 ar
    25   14   15 ar
    26   14   37 1
    27   15   16 ar
    28   15   38 1
    29   16   17 ar
    30   16   39 1
    31   17   18 ar
    32   17   19 1
    33   18   40 1
    34   19   20 1
    35   19   41 1
    36   20   25 ar
    37   20   21 ar
    38   21   22 ar
    39   21   42 1
    40   22   23 ar
    41   22   43 1
    42   23   24 ar
    43   23   44 1
    44   24   25 ar
    45   24   45 1
    46   25   26 1
    47   26   27 2
    48   26   28 1
@<TRIPOS>MOLECULE
ZINC28221927
   31    33     0     0     0
SMALL
USER_CHARGES
2-(phenoxymethyl)quinoline
@<TRIPOS>ATOM
      1 C1         -0.0167    1.3784    0.0096 C.ar      1 <0>        -0.1567
      2 C2          1.1698    2.0883    0.0021 C.ar      1 <0>        -0.0796
      3 C3          2.3774    1.4175   -0.0131 C.ar      1 <0>        -0.2083
      4 C4          2.3989    0.0304   -0.0208 C.ar      1 <0>         0.1297
      5 C5          1.2070   -0.6796   -0.0132 C.ar      1 <0>        -0.1503
      6 C6          0.0021   -0.0041    0.0020 C.ar      1 <0>        -0.0806
      7 O1          3.5855   -0.6319   -0.0353 O.3       1 <0>        -0.3125
      8 C7          4.7725    0.1638   -0.0424 C.3       1 <0>         0.1090
      9 C8          5.9808   -0.7367   -0.0583 C.ar      1 <0>         0.1593
     10 C9          5.7973   -2.1179   -0.0578 C.ar      1 <0>        -0.1548
     11 C10         6.8807   -2.9493   -0.0774 C.ar      1 <0>        -0.0550
     12 C11         8.1631   -2.3690   -0.0861 C.ar      1 <0>        -0.1032
     13 C12         9.3235   -3.1597   -0.1002 C.ar      1 <0>        -0.0959
     14 C13        10.5459   -2.5605   -0.1081 C.ar      1 <0>        -0.1148
     15 C14        10.6615   -1.1718   -0.1026 C.ar      1 <0>        -0.0989
     16 C15         9.5583   -0.3754   -0.0890 C.ar      1 <0>        -0.0933
     17 C16         8.2782   -0.9568   -0.0805 C.ar      1 <0>         0.1321
     18 N1          7.1765   -0.1997   -0.0668 N.ar      1 <0>        -0.4704
     19 H1         -0.9597    1.9047    0.0170 H         1 <0>         0.1247
     20 H2          1.1525    3.1682    0.0081 H         1 <0>         0.1261
     21 H3          3.3039    1.9724   -0.0187 H         1 <0>         0.1293
     22 H4          1.2211   -1.7595   -0.0195 H         1 <0>         0.1312
     23 H5         -0.9261   -0.5563    0.0076 H         1 <0>         0.1304
     24 H6          4.7799    0.8032   -0.9374 H         1 <0>         0.0907
     25 H7          4.7968    0.7942    0.8587 H         1 <0>         0.0907
     26 H8          4.7993   -2.5306   -0.0461 H         1 <0>         0.1478
     27 H9          6.7569   -4.0222   -0.0813 H         1 <0>         0.1428
     28 H10         9.2466   -4.2370   -0.1050 H         1 <0>         0.1319
     29 H11        11.4378   -3.1695   -0.1186 H         1 <0>         0.1297
     30 H12        11.6426   -0.7203   -0.1087 H         1 <0>         0.1322
     31 H13         9.6655    0.6993   -0.0845 H         1 <0>         0.1368
@<TRIPOS>BOND
     1    1    6 ar
     2    1    2 ar
     3    1   19 1
     4    2    3 ar
     5    2   20 1
     6    3    4 ar
     7    3   21 1
     8    4    5 ar
     9    4    7 1
    10    5    6 ar
    11    5   22 1
    12    6   23 1
    13    7    8 1
    14    8    9 1
    15    8   24 1
    16    8   25 1
    17    9   18 ar
    18    9   10 ar
    19   10   11 ar
    20   10   26 1
    21   11   12 ar
    22   11   27 1
    23   12   17 ar
    24   12   13 ar
    25   13   14 ar
    26   13   28 1
    27   14   15 ar
    28   14   29 1
    29   15   16 ar
    30   15   30 1
    31   16   17 ar
    32   16   31 1
    33   17   18 ar
@<TRIPOS>MOLECULE
ZINC22001688
   60    64     0     0     0
SMALL
USER_CHARGES

@<TRIPOS>ATOM
      1 C1         -0.0695    1.2888    0.0144 C.ar      1 <0>        -0.1226
      2 C2          1.1149    2.0014   -0.0010 C.ar      1 <0>        -0.1175
      3 C3          2.3242    1.3319   -0.0166 C.ar      1 <0>        -0.1183
      4 C4          2.3491   -0.0502   -0.0164 C.ar      1 <0>        -0.0868
      5 C5          1.1647   -0.7628   -0.0001 C.ar      1 <0>        -0.1182
      6 C6         -0.0446   -0.0933    0.0141 C.ar      1 <0>        -0.1174
      7 C7          3.6674   -0.7801   -0.0344 C.3       1 <0>        -0.0793
      8 C8          4.1336   -1.0265    1.4019 C.3       1 <0>        -0.1107
      9 C9          5.4720   -1.7676    1.3836 C.3       1 <0>        -0.1202
     10 C10         5.9382   -2.0140    2.8199 C.3       1 <0>         0.0540
     11 O1          7.1883   -2.7061    2.8028 O.3       1 <0>        -0.3048
     12 C11         7.7441   -3.0040    4.0045 C.ar      1 <0>         0.1799
     13 C12         7.0937   -2.6410    5.1780 C.ar      1 <0>        -0.2170
     14 C13         7.6542   -2.9414    6.3994 C.ar      1 <0>        -0.0017
     15 C14         8.8788   -3.6122    6.4579 C.ar      1 <0>        -0.1969
     16 C15         9.5295   -3.9754    5.2758 C.ar      1 <0>        -0.0438
     17 C16         8.9595   -3.6763    4.0585 C.ar      1 <0>        -0.1600
     18 C17         9.4834   -3.9358    7.7647 C.2       1 <0>         0.5765
     19 O2          8.9159   -3.6186    8.7924 O.2       1 <0>        -0.5047
     20 N1         10.6644   -4.5827    7.8191 N.am      1 <0>        -0.6747
     21 C18        11.2836   -4.8064    9.0542 C.ar      1 <0>         0.1616
     22 C19        10.5188   -5.0571   10.1806 C.ar      1 <0>        -0.0202
     23 C20        11.1220   -5.2802   11.4098 C.ar      1 <0>        -0.0862
     24 C21        12.4828   -5.2565   11.5311 C.ar      1 <0>        -0.0344
     25 C22        13.2770   -5.0058   10.4075 C.ar      1 <0>        -0.1431
     26 C23        12.6765   -4.7836    9.1556 C.ar      1 <0>         0.1275
     27 O3         13.4448   -4.5465    8.0738 O.3       1 <0>        -0.1769
     28 C24        14.7816   -4.5191    8.1461 C.2       1 <0>         0.3497
     29 C25        15.4593   -4.7325    9.3356 C.2       1 <0>        -0.2765
     30 C26        14.7408   -4.9728   10.5026 C.2       1 <0>         0.3889
     31 O4         15.3693   -5.1841   11.6789 O.3       1 <0>        -0.3833
     32 C27        15.5558   -4.2544    6.9229 C.2       1 <0>         0.1616
     33 N2         15.0670   -4.0239    5.7020 N.pl3     1 <0>        -0.3499
     34 H1         14.1295   -3.9996    5.4544 H         1 <0>         0.4712
     35 N3         16.0693   -3.8396    4.9124 N.2       1 <0>        -0.0230
     36 N4         17.1633   -3.9439    5.5821 N.2       1 <0>        -0.0251
     37 N5         16.8852   -4.1916    6.8164 N.2       1 <0>        -0.2121
     38 H2         -1.0142    1.8119    0.0311 H         1 <0>         0.1225
     39 H3          1.0955    3.0813   -0.0011 H         1 <0>         0.1226
     40 H4          3.2496    1.8887   -0.0293 H         1 <0>         0.1206
     41 H5          1.1841   -1.8426   -0.0002 H         1 <0>         0.1208
     42 H6         -0.9700   -0.6500    0.0265 H         1 <0>         0.1227
     43 H7          3.5471   -1.7349   -0.5462 H         1 <0>         0.0751
     44 H8          4.4091   -0.1777   -0.5588 H         1 <0>         0.0749
     45 H9          4.2539   -0.0717    1.9137 H         1 <0>         0.0685
     46 H10         3.3919   -1.6290    1.9263 H         1 <0>         0.0687
     47 H11         5.3517   -2.7224    0.8718 H         1 <0>         0.0781
     48 H12         6.2137   -1.1651    0.8592 H         1 <0>         0.0778
     49 H13         6.0585   -1.0592    3.3317 H         1 <0>         0.0695
     50 H14         5.1965   -2.6164    3.3443 H         1 <0>         0.0699
     51 H15         6.1475   -2.1223    5.1319 H         1 <0>         0.1429
     52 H16         7.1484   -2.6587    7.3107 H         1 <0>         0.1444
     53 H17        10.4760   -4.4940    5.3168 H         1 <0>         0.1269
     54 H18         9.4596   -3.9606    3.1444 H         1 <0>         0.1437
     55 H19        11.0854   -4.8934    7.0023 H         1 <0>         0.4183
     56 H20         9.4419   -5.0788   10.1016 H         1 <0>         0.1829
     57 H21        10.5105   -5.4739   12.2786 H         1 <0>         0.1697
     58 H22        12.9438   -5.4306   12.4921 H         1 <0>         0.1711
     59 H23        16.5386   -4.7037    9.3584 H         1 <0>         0.2134
     60 H24        16.3337   -5.1389   11.6232 H         1 <0>         0.4496
@<TRIPOS>BOND
     1    1    6 ar
     2    1    2 ar
     3    1   38 1
     4    2    3 ar
     5    2   39 1
     6    3    4 ar
     7    3   40 1
     8    4    5 ar
     9    4    7 1
    10    5    6 ar
    11    5   41 1
    12    6   42 1
    13    7    8 1
    14    7   43 1
    15    7   44 1
    16    8    9 1
    17    8   45 1
    18    8   46 1
    19    9   10 1
    20    9   47 1
    21    9   48 1
    22   10   11 1
    23   10   49 1
    24   10   50 1
    25   11   12 1
    26   12   17 ar
    27   12   13 ar
    28   13   14 ar
    29   13   51 1
    30   14   15 ar
    31   14   52 1
    32   15   16 ar
    33   15   18 1
    34   16   17 ar
    35   16   53 1
    36   17   54 1
    37   18   19 2
    38   18   20 am
    39   20   21 1
    40   20   55 1
    41   21   26 ar
    42   21   22 ar
    43   22   23 ar
    44   22   56 1
    45   23   24 ar
    46   23   57 1
    47   24   25 ar
    48   24   58 1
    49   25   30 1
    50   25   26 ar
    51   26   27 1
    52   27   28 1
    53   28   29 1
    54   28   32 2
    55   29   30 2
    56   29   59 1
    57   30   31 1
    58   31   60 1
    59   32   37 1
    60   32   33 1
    61   33   34 1
    62   33   35 2
    63   35   36 1
    64   36   37 2
@<TRIPOS>MOLECULE
ZINC22001688
   60    64     0     0     0
SMALL
USER_CHARGES

@<TRIPOS>ATOM
      1 C1         -0.0695    1.2888    0.0144 C.ar      1 <0>        -0.1228
      2 C2          1.1149    2.0014   -0.0010 C.ar      1 <0>        -0.1176
      3 C3          2.3242    1.3319   -0.0166 C.ar      1 <0>        -0.1184
      4 C4          2.3491   -0.0502   -0.0164 C.ar      1 <0>        -0.0866
      5 C5          1.1647   -0.7628   -0.0001 C.ar      1 <0>        -0.1181
      6 C6         -0.0446   -0.0933    0.0141 C.ar      1 <0>        -0.1174
      7 C7          3.6674   -0.7801   -0.0344 C.3       1 <0>        -0.0793
      8 C8          4.1336   -1.0265    1.4019 C.3       1 <0>        -0.1108
      9 C9          5.4720   -1.7676    1.3836 C.3       1 <0>        -0.1200
     10 C10         5.9382   -2.0140    2.8199 C.3       1 <0>         0.0542
     11 O1          7.1883   -2.7061    2.8028 O.3       1 <0>        -0.3058
     12 C11         7.7441   -3.0040    4.0045 C.ar      1 <0>         0.1779
     13 C12         7.0937   -2.6410    5.1780 C.ar      1 <0>        -0.2182
     14 C13         7.6542   -2.9414    6.3994 C.ar      1 <0>        -0.0027
     15 C14         8.8788   -3.6122    6.4579 C.ar      1 <0>        -0.1955
     16 C15         9.5295   -3.9754    5.2758 C.ar      1 <0>        -0.0405
     17 C16         8.9595   -3.6763    4.0585 C.ar      1 <0>        -0.1602
     18 C17         9.4834   -3.9358    7.7647 C.2       1 <0>         0.5768
     19 O2          8.9159   -3.6186    8.7924 O.2       1 <0>        -0.5078
     20 N1         10.6644   -4.5827    7.8191 N.am      1 <0>        -0.6725
     21 C18        11.2836   -4.8064    9.0542 C.ar      1 <0>         0.1635
     22 C19        10.5188   -5.0571   10.1806 C.ar      1 <0>        -0.0244
     23 C20        11.1220   -5.2802   11.4098 C.ar      1 <0>        -0.0869
     24 C21        12.4828   -5.2565   11.5311 C.ar      1 <0>        -0.0383
     25 C22        13.2770   -5.0058   10.4075 C.ar      1 <0>        -0.1430
     26 C23        12.6765   -4.7836    9.1556 C.ar      1 <0>         0.1247
     27 O3         13.4448   -4.5465    8.0738 O.3       1 <0>        -0.1558
     28 C24        14.7816   -4.5191    8.1461 C.2       1 <0>         0.3785
     29 C25        15.4593   -4.7325    9.3356 C.2       1 <0>        -0.2906
     30 C26        14.7408   -4.9728   10.5026 C.2       1 <0>         0.3838
     31 O4         15.3693   -5.1841   11.6789 O.3       1 <0>        -0.3874
     32 C27        15.5558   -4.2544    6.9229 C.2       1 <0>         0.1448
     33 N2         15.0670   -4.0239    5.7020 N.2       1 <0>        -0.2207
     34 N3         16.0693   -3.8396    4.9124 N.pl3     1 <0>        -0.1848
     35 H1         16.0085   -3.6513    3.9628 H         1 <0>         0.4946
     36 N4         17.1633   -3.9439    5.5821 N.2       1 <0>        -0.0072
     37 N5         16.8852   -4.1916    6.8164 N.2       1 <0>        -0.2118
     38 H2         -1.0142    1.8119    0.0311 H         1 <0>         0.1224
     39 H3          1.0955    3.0813   -0.0011 H         1 <0>         0.1225
     40 H4          3.2496    1.8887   -0.0293 H         1 <0>         0.1205
     41 H5          1.1841   -1.8426   -0.0002 H         1 <0>         0.1208
     42 H6         -0.9700   -0.6500    0.0265 H         1 <0>         0.1227
     43 H7          3.5471   -1.7349   -0.5462 H         1 <0>         0.0750
     44 H8          4.4091   -0.1777   -0.5588 H         1 <0>         0.0747
     45 H9          4.2539   -0.0717    1.9137 H         1 <0>         0.0684
     46 H10         3.3919   -1.6290    1.9263 H         1 <0>         0.0687
     47 H11         5.3517   -2.7224    0.8718 H         1 <0>         0.0778
     48 H12         6.2137   -1.1651    0.8592 H         1 <0>         0.0773
     49 H13         6.0585   -1.0592    3.3317 H         1 <0>         0.0690
     50 H14         5.1965   -2.6164    3.3443 H         1 <0>         0.0695
     51 H15         6.1475   -2.1223    5.1319 H         1 <0>         0.1420
     52 H16         7.1484   -2.6587    7.3107 H         1 <0>         0.1439
     53 H17        10.4760   -4.4940    5.3168 H         1 <0>         0.1300
     54 H18         9.4596   -3.9606    3.1444 H         1 <0>         0.1426
     55 H19        11.0854   -4.8934    7.0023 H         1 <0>         0.4214
     56 H20         9.4419   -5.0788   10.1016 H         1 <0>         0.1817
     57 H21        10.5105   -5.4739   12.2786 H         1 <0>         0.1680
     58 H22        12.9438   -5.4306   12.4921 H         1 <0>         0.1695
     59 H23        16.5386   -4.7037    9.3584 H         1 <0>         0.2102
     60 H24        16.3337   -5.1389   11.6232 H         1 <0>         0.4473
@<TRIPOS>BOND
     1    1    6 ar
     2    1    2 ar
     3    1   38 1
     4    2    3 ar
     5    2   39 1
     6    3    4 ar
     7    3   40 1
     8    4    5 ar
     9    4    7 1
    10    5    6 ar
    11    5   41 1
    12    6   42 1
    13    7    8 1
    14    7   43 1
    15    7   44 1
    16    8    9 1
    17    8   45 1
    18    8   46 1
    19    9   10 1
    20    9   47 1
    21    9   48 1
    22   10   11 1
    23   10   49 1
    24   10   50 1
    25   11   12 1
    26   12   17 ar
    27   12   13 ar
    28   13   14 ar
    29   13   51 1
    30   14   15 ar
    31   14   52 1
    32   15   16 ar
    33   15   18 1
    34   16   17 ar
    35   16   53 1
    36   17   54 1
    37   18   19 2
    38   18   20 am
    39   20   21 1
    40   20   55 1
    41   21   26 ar
    42   21   22 ar
    43   22   23 ar
    44   22   56 1
    45   23   24 ar
    46   23   57 1
    47   24   25 ar
    48   24   58 1
    49   25   30 1
    50   25   26 ar
    51   26   27 1
    52   27   28 1
    53   28   29 1
    54   28   32 2
    55   29   30 2
    56   29   59 1
    57   30   31 1
    58   31   60 1
    59   32   37 1
    60   32   33 1
    61   33   34 2
    62   34   35 1
    63   34   36 1
    64   36   37 2
@<TRIPOS>MOLECULE
ZINC04172316
   69    71     0     0     0
SMALL
USER_CHARGES
6-acetyl-7-[5-(4-acetyl-3-hydroxy-2-propyl-phenoxy)pentoxy]chroman-2-carboxylic acid
@<TRIPOS>ATOM
      1 C1         -6.0853    2.3109    5.6418 C.3       1 <0>        -0.1508
      2 C2         -5.3550    1.8190    4.3906 C.3       1 <0>        -0.1152
      3 C3         -4.9027    3.0207    3.5586 C.3       1 <0>        -0.0631
      4 C4         -4.1833    2.5361    2.3262 C.ar      1 <0>        -0.1616
      5 C5         -4.8931    2.2900    1.1592 C.ar      1 <0>         0.1859
      6 C6         -4.2347    1.8426    0.0168 C.ar      1 <0>        -0.2293
      7 C7         -2.8851    1.6412    0.0317 C.ar      1 <0>        -0.0201
      8 C8         -2.1520    1.8840    1.2010 C.ar      1 <0>        -0.2440
      9 C9         -2.8152    2.3305    2.3586 C.ar      1 <0>         0.2088
     10 O1         -2.1173    2.5630    3.4978 O.3       1 <0>        -0.4726
     11 C10        -0.7032    1.6681    1.2197 C.2       1 <0>         0.3952
     12 O2         -0.0714    1.8792    2.2339 O.2       1 <0>        -0.4511
     13 C11         0.0025    1.1838   -0.0206 C.3       1 <0>        -0.1924
     14 O3         -6.2351    2.4868    1.1313 O.3       1 <0>        -0.3022
     15 C12        -6.9051    2.2152   -0.1013 C.3       1 <0>         0.0548
     16 C13        -8.4011    2.4928    0.0595 C.3       1 <0>        -0.1165
     17 C14        -9.1185    2.2020   -1.2602 C.3       1 <0>        -0.1147
     18 C15       -10.6145    2.4796   -1.0994 C.3       1 <0>        -0.1135
     19 C16       -11.3319    2.1888   -2.4192 C.3       1 <0>         0.0497
     20 O4        -12.7291    2.4481   -2.2690 O.3       1 <0>        -0.2820
     21 C17       -13.5143    2.2387   -3.3546 C.ar      1 <0>         0.2199
     22 C18       -12.9588    1.7995   -4.5419 C.ar      1 <0>        -0.2692
     23 C19       -13.7649    1.5785   -5.6547 C.ar      1 <0>         0.2221
     24 C20       -15.1344    1.8060   -5.5795 C.ar      1 <0>        -0.2121
     25 C21       -15.6957    2.2485   -4.4129 C.ar      1 <0>        -0.0010
     26 C22       -14.8994    2.4722   -3.2833 C.ar      1 <0>        -0.2573
     27 C23       -15.5046    2.9455   -2.0361 C.2       1 <0>         0.3977
     28 O5        -14.8288    3.0442   -1.0331 O.2       1 <0>        -0.4577
     29 C24       -16.9664    3.3098   -1.9986 C.3       1 <0>        -0.1904
     30 C25       -16.0345    1.5689   -6.7667 C.3       1 <0>        -0.0717
     31 C26       -15.1964    1.5124   -8.0460 C.3       1 <0>        -0.1382
     32 C27       -14.0100    0.5706   -7.8036 C.3       1 <0>         0.0450
     33 H1        -14.3740   -0.3999   -7.4663 H         1 <0>         0.0779
     34 O6        -13.1756    1.1471   -6.7984 O.3       1 <0>        -0.2799
     35 C28       -13.2259    0.4032   -9.0796 C.2       1 <0>         0.4762
     36 O7        -12.0961    0.8250   -9.1541 O.co2     1 <0>        -0.6124
     37 H2         -5.4130    2.9311    6.2348 H         1 <0>         0.0533
     38 H3         -6.9557    2.8974    5.3475 H         1 <0>         0.0544
     39 H4         -6.4075    1.4549    6.2346 H         1 <0>         0.0538
     40 H5         -6.0273    1.1989    3.7977 H         1 <0>         0.0611
     41 H6         -4.4846    1.2326    4.6850 H         1 <0>         0.0627
     42 H7         -4.2304    3.6408    4.1515 H         1 <0>         0.0711
     43 H8         -5.7731    3.6071    3.2642 H         1 <0>         0.0767
     44 H9         -4.7956    1.6535   -0.8865 H         1 <0>         0.1384
     45 H10        -2.3816    1.2940   -0.8585 H         1 <0>         0.1397
     46 H11        -1.7865    3.4680    3.5786 H         1 <0>         0.3960
     47 H12         0.0221    0.1840   -0.0240 H         1 <0>         0.0861
     48 H13         1.0228    1.5672   -0.0313 H         1 <0>         0.0871
     49 H14        -0.5287    1.5398   -0.9033 H         1 <0>         0.0846
     50 H15        -6.4989    2.8554   -0.8844 H         1 <0>         0.0681
     51 H16        -6.7567    1.1701   -0.3729 H         1 <0>         0.0681
     52 H17        -8.8073    1.8526    0.8426 H         1 <0>         0.0776
     53 H18        -8.5496    3.5379    0.3311 H         1 <0>         0.0774
     54 H19        -8.7123    2.8422   -2.0433 H         1 <0>         0.0712
     55 H20        -8.9700    1.1569   -1.5319 H         1 <0>         0.0710
     56 H21       -11.0207    1.8394   -0.3163 H         1 <0>         0.0767
     57 H22       -10.7630    3.5247   -0.8278 H         1 <0>         0.0763
     58 H23       -10.9257    2.8290   -3.2023 H         1 <0>         0.0661
     59 H24       -11.1834    1.1437   -2.6908 H         1 <0>         0.0658
     60 H25       -11.8952    1.6229   -4.6048 H         1 <0>         0.1404
     61 H26       -16.7599    2.4260   -4.3629 H         1 <0>         0.1383
     62 H27       -17.3867    3.0928   -2.8797 H         1 <0>         0.0718
     63 H28       -17.4620    2.7432   -1.2103 H         1 <0>         0.0875
     64 H29       -17.0700    4.3765   -1.7994 H         1 <0>         0.0898
     65 H30       -16.5637    0.6248   -6.6377 H         1 <0>         0.0758
     66 H31       -16.7570    2.3816   -6.8420 H         1 <0>         0.0793
     67 H32       -14.8300    2.5097   -8.2896 H         1 <0>         0.0724
     68 H33       -15.8043    1.1335   -8.8677 H         1 <0>         0.0948
     69 O8        -13.7826   -0.2146  -10.1332 O.co2     1 <0>        -0.7477
@<TRIPOS>BOND
     1    1    2 1
     2    1   37 1
     3    1   38 1
     4    1   39 1
     5    2    3 1
     6    2   40 1
     7    2   41 1
     8    3    4 1
     9    3   42 1
    10    3   43 1
    11    4    9 ar
    12    4    5 ar
    13    5    6 ar
    14    5   14 1
    15    6    7 ar
    16    6   44 1
    17    7    8 ar
    18    7   45 1
    19    8    9 ar
    20    8   11 1
    21    9   10 1
    22   10   46 1
    23   11   12 2
    24   11   13 1
    25   13   47 1
    26   13   48 1
    27   13   49 1
    28   14   15 1
    29   15   16 1
    30   15   50 1
    31   15   51 1
    32   16   17 1
    33   16   52 1
    34   16   53 1
    35   17   18 1
    36   17   54 1
    37   17   55 1
    38   18   19 1
    39   18   56 1
    40   18   57 1
    41   19   20 1
    42   19   58 1
    43   19   59 1
    44   20   21 1
    45   21   26 ar
    46   21   22 ar
    47   22   23 ar
    48   22   60 1
    49   23   34 1
    50   23   24 ar
    51   24   25 ar
    52   24   30 1
    53   25   26 ar
    54   25   61 1
    55   26   27 1
    56   27   28 2
    57   27   29 1
    58   29   62 1
    59   29   63 1
    60   29   64 1
    61   30   31 1
    62   30   65 1
    63   30   66 1
    64   31   32 1
    65   31   67 1
    66   31   68 1
    67   32   33 1
    68   32   34 1
    69   32   35 1
    70   35   36 2
    71   35   69 1
@<TRIPOS>MOLECULE
ZINC11676975
   69    71     0     0     0
SMALL
USER_CHARGES
(2R)-6-acetyl-7-[5-(4-acetyl-3-hydroxy-2-propyl-phenoxy)pentoxy]chroman-2-carboxylic acid
@<TRIPOS>ATOM
      1 C1         -9.1090    6.0701  -12.0744 C.3       1 <0>        -0.1520
      2 C2         -9.4546    6.8248  -10.7892 C.3       1 <0>        -0.1148
      3 C3         -8.4939    8.0029  -10.6155 C.3       1 <0>        -0.0689
      4 C4         -8.8343    8.7463   -9.3496 C.ar      1 <0>        -0.1606
      5 C5         -8.2382    8.3841   -8.1498 C.ar      1 <0>         0.1855
      6 C6         -8.5518    9.0634   -6.9755 C.ar      1 <0>        -0.2292
      7 C7         -9.4401   10.0992   -6.9930 C.ar      1 <0>        -0.0192
      8 C8        -10.0519   10.4789   -8.1952 C.ar      1 <0>        -0.2441
      9 C9         -9.7412    9.7910   -9.3823 C.ar      1 <0>         0.2087
     10 O1        -10.3272   10.1492  -10.5516 O.3       1 <0>        -0.4733
     11 C10       -11.0099   11.5871   -8.2157 C.2       1 <0>         0.3944
     12 O2        -11.5375   11.9137   -9.2584 O.2       1 <0>        -0.4502
     13 C11       -11.3400   12.3214   -6.9418 C.3       1 <0>        -0.1920
     14 O3         -7.3498    7.3593   -8.1199 O.3       1 <0>        -0.3023
     15 C12        -6.7727    7.0377   -6.8528 C.3       1 <0>         0.0549
     16 C13        -5.8033    5.8654   -7.0166 C.3       1 <0>        -0.1164
     17 C14        -5.1854    5.5211   -5.6599 C.3       1 <0>        -0.1147
     18 C15        -4.2160    4.3488   -5.8237 C.3       1 <0>        -0.1135
     19 C16        -3.5981    4.0045   -4.4671 C.3       1 <0>         0.0496
     20 O4         -2.6927    2.9096   -4.6201 O.3       1 <0>        -0.2818
     21 C17        -2.0557    2.4768   -3.5039 C.ar      1 <0>         0.2199
     22 C18        -2.2918    3.0871   -2.2862 C.ar      1 <0>        -0.2693
     23 C19        -1.6384    2.6436   -1.1402 C.ar      1 <0>         0.2222
     24 C20        -0.7406    1.5847   -1.2155 C.ar      1 <0>        -0.2121
     25 C21        -0.4992    0.9708   -2.4142 C.ar      1 <0>        -0.0004
     26 C22        -1.1501    1.4032   -3.5758 C.ar      1 <0>        -0.2576
     27 C23        -0.8893    0.7425   -4.8570 C.2       1 <0>         0.3979
     28 O5         -1.4555    1.1211   -5.8612 O.2       1 <0>        -0.4570
     29 C24         0.0822   -0.4074   -4.9279 C.3       1 <0>        -0.1904
     30 C25        -0.0127    1.0858    0.0080 C.3       1 <0>        -0.0717
     31 C26        -0.7273    1.5785    1.2686 C.3       1 <0>        -0.1383
     32 C27        -0.9939    3.0813    1.1152 C.3       1 <0>         0.0450
     33 H1         -0.0603    3.6009    0.8997 H         1 <0>         0.0780
     34 O6         -1.9084    3.2672    0.0344 O.3       1 <0>        -0.2799
     35 C28        -1.5942    3.6228    2.3870 C.2       1 <0>         0.4762
     36 O7         -2.7294    4.0365    2.3908 O.co2     1 <0>        -0.6124
     37 H2         -9.7934    5.2308  -12.1981 H         1 <0>         0.0541
     38 H3         -9.2015    6.7431  -12.9269 H         1 <0>         0.0543
     39 H4         -8.0860    5.6989  -12.0139 H         1 <0>         0.0559
     40 H5         -9.3621    6.1519   -9.9367 H         1 <0>         0.0629
     41 H6        -10.4776    7.1961  -10.8497 H         1 <0>         0.0555
     42 H7         -8.5864    8.6758  -11.4680 H         1 <0>         0.0780
     43 H8         -7.4709    7.6317  -10.5550 H         1 <0>         0.0783
     44 H9         -8.0859    8.7717   -6.0459 H         1 <0>         0.1384
     45 H10        -9.6754   10.6237   -6.0787 H         1 <0>         0.1386
     46 H11       -11.1562    9.6859  -10.7342 H         1 <0>         0.3964
     47 H12       -10.5074   12.7287   -6.5665 H         1 <0>         0.0824
     48 H13       -12.0655   13.1070   -7.1529 H         1 <0>         0.0839
     49 H14       -11.7607   11.6230   -6.2184 H         1 <0>         0.0920
     50 H15        -7.5620    6.7615   -6.1536 H         1 <0>         0.0681
     51 H16        -6.2338    7.9038   -6.4686 H         1 <0>         0.0679
     52 H17        -5.0139    6.1416   -7.7157 H         1 <0>         0.0774
     53 H18        -6.3422    4.9993   -7.4007 H         1 <0>         0.0775
     54 H19        -5.9747    5.2449   -4.9608 H         1 <0>         0.0712
     55 H20        -4.6465    6.3872   -5.2758 H         1 <0>         0.0710
     56 H21        -3.4267    4.6250   -6.5229 H         1 <0>         0.0765
     57 H22        -4.7549    3.4827   -6.2079 H         1 <0>         0.0766
     58 H23        -4.3874    3.7283   -3.7679 H         1 <0>         0.0662
     59 H24        -3.0592    4.8706   -4.0830 H         1 <0>         0.0657
     60 H25        -2.9861    3.9120   -2.2239 H         1 <0>         0.1403
     61 H26         0.1979    0.1474   -2.4646 H         1 <0>         0.1376
     62 H27        -0.4064   -1.2664   -4.7749 H         1 <0>         0.0833
     63 H28         0.5515   -0.4265   -5.9115 H         1 <0>         0.0827
     64 H29         0.8481   -0.2837   -4.1623 H         1 <0>         0.0827
     65 H30         0.0021   -0.0041    0.0020 H         1 <0>         0.0793
     66 H31         1.0101    1.4625    0.0003 H         1 <0>         0.0760
     67 H32        -1.6718    1.0475    1.3868 H         1 <0>         0.0724
     68 H33        -0.0962    1.4051    2.1402 H         1 <0>         0.0947
     69 O8         -0.8678    3.6455    3.5155 O.co2     1 <0>        -0.7477
@<TRIPOS>BOND
     1    1    2 1
     2    1   37 1
     3    1   38 1
     4    1   39 1
     5    2    3 1
     6    2   40 1
     7    2   41 1
     8    3    4 1
     9    3   42 1
    10    3   43 1
    11    4    9 ar
    12    4    5 ar
    13    5    6 ar
    14    5   14 1
    15    6    7 ar
    16    6   44 1
    17    7    8 ar
    18    7   45 1
    19    8    9 ar
    20    8   11 1
    21    9   10 1
    22   10   46 1
    23   11   12 2
    24   11   13 1
    25   13   47 1
    26   13   48 1
    27   13   49 1
    28   14   15 1
    29   15   16 1
    30   15   50 1
    31   15   51 1
    32   16   17 1
    33   16   52 1
    34   16   53 1
    35   17   18 1
    36   17   54 1
    37   17   55 1
    38   18   19 1
    39   18   56 1
    40   18   57 1
    41   19   20 1
    42   19   58 1
    43   19   59 1
    44   20   21 1
    45   21   26 ar
    46   21   22 ar
    47   22   23 ar
    48   22   60 1
    49   23   34 1
    50   23   24 ar
    51   24   25 ar
    52   24   30 1
    53   25   26 ar
    54   25   61 1
    55   26   27 1
    56   27   28 2
    57   27   29 1
    58   29   62 1
    59   29   63 1
    60   29   64 1
    61   30   31 1
    62   30   65 1
    63   30   66 1
    64   31   32 1
    65   31   67 1
    66   31   68 1
    67   32   33 1
    68   32   34 1
    69   32   35 1
    70   35   36 2
    71   35   69 1
@<TRIPOS>MOLECULE
ZINC13741955
   65    67     0     0     0
SMALL
USER_CHARGES

@<TRIPOS>ATOM
      1 C1         -0.0063    1.5352   -0.0203 C.3       1 <0>        -0.1508
      2 C2          0.0098    0.0052   -0.0204 C.3       1 <0>        -0.1140
      3 C3          0.7280   -0.4972   -1.2745 C.3       1 <0>        -0.0644
      4 C4          0.7439   -2.0041   -1.2746 C.ar      1 <0>        -0.1560
      5 C5          1.7927   -2.6877   -0.6758 C.ar      1 <0>         0.1821
      6 C6          1.8134   -4.0799   -0.6718 C.ar      1 <0>        -0.2305
      7 C7          0.8037   -4.7874   -1.2566 C.ar      1 <0>        -0.0220
      8 C8         -0.2634   -4.1141   -1.8665 C.ar      1 <0>        -0.2412
      9 C9         -0.2903   -2.7076   -1.8667 C.ar      1 <0>         0.2093
     10 O1         -1.3206   -2.0451   -2.4485 O.3       1 <0>        -0.4711
     11 C10        -1.3482   -4.8713   -2.4958 C.2       1 <0>         0.3944
     12 O2         -2.3180   -4.2898   -2.9358 O.2       1 <0>        -0.4493
     13 C11        -1.2596   -6.3723   -2.5967 C.3       1 <0>        -0.2017
     14 O3          2.8032   -1.9960   -0.0918 O.3       1 <0>        -0.2873
     15 C12         3.8518   -2.7605    0.5065 C.3       1 <0>         0.0273
     16 C13         4.8925   -1.8147    1.1092 C.3       1 <0>         0.1148
     17 H1          5.2418   -1.1229    0.3428 H         1 <0>         0.1230
     18 C14         6.0749   -2.6284    1.6390 C.3       1 <0>         0.0288
     19 O4          7.0974   -1.7408    2.0959 O.3       1 <0>        -0.2875
     20 C15         8.2235   -2.3057    2.6004 C.ar      1 <0>         0.1810
     21 C16         8.3377   -3.6949    2.6463 C.ar      1 <0>        -0.2442
     22 C17         9.4629   -4.2772    3.1550 C.ar      1 <0>         0.0033
     23 C18        10.5016   -3.4754    3.6298 C.ar      1 <0>        -0.2603
     24 C19        11.7278   -4.0620    4.2007 C.2       1 <0>         0.4243
     25 O5         11.9934   -5.2450    4.0816 O.2       1 <0>        -0.4839
     26 C20        12.6146   -3.1306    4.9247 C.2       1 <0>        -0.3009
     27 C21        12.3913   -1.8007    4.7940 C.2       1 <0>         0.0963
     28 O6         11.4113   -1.3019    4.0267 O.3       1 <0>        -0.1917
     29 C22        10.4007   -2.0719    3.5813 C.ar      1 <0>         0.1887
     30 C23         9.2493   -1.4971    3.0588 C.ar      1 <0>        -0.1397
     31 C24         9.1147    0.0026    2.9964 C.3       1 <0>        -0.0644
     32 C25         8.4794    0.5120    4.2917 C.3       1 <0>        -0.1138
     33 C26         8.3428    2.0345    4.2283 C.3       1 <0>        -0.1483
     34 C27        13.2654   -0.8591    5.5293 C.2       1 <0>         0.5391
     35 O7         14.1662   -1.2865    6.2363 O.co2     1 <0>        -0.6427
     36 O8         13.0863    0.3459    5.4295 O.co2     1 <0>        -0.6456
     37 O9          4.3021   -1.0784    2.1822 O.3       1 <0>        -0.5360
     38 H2          1.0175    1.9093   -0.0272 H         1 <0>         0.0559
     39 H3         -0.5298    1.8931   -0.9068 H         1 <0>         0.0524
     40 H4         -0.5180    1.8931    0.8731 H         1 <0>         0.0540
     41 H5          0.5333   -0.3527    0.8661 H         1 <0>         0.0626
     42 H6         -1.0140   -0.3689   -0.0136 H         1 <0>         0.0615
     43 H7          0.2045   -0.1393   -2.1610 H         1 <0>         0.0714
     44 H8          1.7518   -0.1230   -1.2813 H         1 <0>         0.0780
     45 H9          2.6339   -4.6031   -0.2033 H         1 <0>         0.1365
     46 H10         0.8271   -5.8671   -1.2497 H         1 <0>         0.1409
     47 H11        -1.1829   -1.8484   -3.3852 H         1 <0>         0.3960
     48 H12        -0.3693   -6.7197   -2.0725 H         1 <0>         0.0810
     49 H13        -2.1450   -6.8197   -2.1449 H         1 <0>         0.0922
     50 H14        -1.2005   -6.6631   -3.6455 H         1 <0>         0.0943
     51 H15         3.4378   -3.3931    1.2916 H         1 <0>         0.0749
     52 H16         4.3243   -3.3849   -0.2518 H         1 <0>         0.0803
     53 H17         5.7426   -3.2562    2.4658 H         1 <0>         0.0729
     54 H18         6.4697   -3.2574    0.8412 H         1 <0>         0.0777
     55 H19         7.5321   -4.3128    2.2780 H         1 <0>         0.1327
     56 H20         9.5485   -5.3533    3.1900 H         1 <0>         0.1394
     57 H21        13.4200   -3.4993    5.5425 H         1 <0>         0.1665
     58 H22        10.1007    0.4511    2.8745 H         1 <0>         0.0816
     59 H23         8.4841    0.2759    2.1504 H         1 <0>         0.0754
     60 H24         7.4934    0.0635    4.4136 H         1 <0>         0.0581
     61 H25         9.1100    0.2387    5.1377 H         1 <0>         0.0637
     62 H26         9.3287    2.4830    4.1064 H         1 <0>         0.0584
     63 H27         7.7121    2.3079    3.3823 H         1 <0>         0.0505
     64 H28         7.8901    2.3974    5.1511 H         1 <0>         0.0511
     65 H29         3.9683   -1.6313    2.9018 H         1 <0>         0.3752
@<TRIPOS>BOND
     1    1    2 1
     2    1   38 1
     3    1   39 1
     4    1   40 1
     5    2    3 1
     6    2   41 1
     7    2   42 1
     8    3    4 1
     9    3   43 1
    10    3   44 1
    11    4    9 ar
    12    4    5 ar
    13    5    6 ar
    14    5   14 1
    15    6    7 ar
    16    6   45 1
    17    7    8 ar
    18    7   46 1
    19    8    9 ar
    20    8   11 1
    21    9   10 1
    22   10   47 1
    23   11   12 2
    24   11   13 1
    25   13   48 1
    26   13   49 1
    27   13   50 1
    28   14   15 1
    29   15   16 1
    30   15   51 1
    31   15   52 1
    32   16   17 1
    33   16   18 1
    34   16   37 1
    35   18   19 1
    36   18   53 1
    37   18   54 1
    38   19   20 1
    39   20   30 ar
    40   20   21 ar
    41   21   22 ar
    42   21   55 1
    43   22   23 ar
    44   22   56 1
    45   23   29 ar
    46   23   24 1
    47   24   25 2
    48   24   26 1
    49   26   27 2
    50   26   57 1
    51   27   28 1
    52   27   34 1
    53   28   29 1
    54   29   30 ar
    55   30   31 1
    56   31   32 1
    57   31   58 1
    58   31   59 1
    59   32   33 1
    60   32   60 1
    61   32   61 1
    62   33   62 1
    63   33   63 1
    64   33   64 1
    65   34   35 2
    66   34   36 1
    67   37   65 1
@<TRIPOS>MOLECULE
ZINC13741956
   65    67     0     0     0
SMALL
USER_CHARGES

@<TRIPOS>ATOM
      1 C1         -0.0063    1.5352   -0.0203 C.3       1 <0>        -0.1514
      2 C2          0.0098    0.0052   -0.0204 C.3       1 <0>        -0.1144
      3 C3          0.7280   -0.4972   -1.2745 C.3       1 <0>        -0.0652
      4 C4          0.7439   -2.0041   -1.2746 C.ar      1 <0>        -0.1559
      5 C5          1.7927   -2.6877   -0.6758 C.ar      1 <0>         0.1821
      6 C6          1.8134   -4.0799   -0.6718 C.ar      1 <0>        -0.2305
      7 C7          0.8037   -4.7874   -1.2566 C.ar      1 <0>        -0.0220
      8 C8         -0.2634   -4.1141   -1.8665 C.ar      1 <0>        -0.2412
      9 C9         -0.2903   -2.7076   -1.8667 C.ar      1 <0>         0.2093
     10 O1         -1.3206   -2.0451   -2.4485 O.3       1 <0>        -0.4711
     11 C10        -1.3482   -4.8713   -2.4958 C.2       1 <0>         0.3943
     12 O2         -2.3180   -4.2898   -2.9358 O.2       1 <0>        -0.4493
     13 C11        -1.2596   -6.3723   -2.5967 C.3       1 <0>        -0.2017
     14 O3          2.8032   -1.9960   -0.0918 O.3       1 <0>        -0.2873
     15 C12         3.8518   -2.7605    0.5065 C.3       1 <0>         0.0274
     16 C13         4.8925   -1.8147    1.1092 C.3       1 <0>         0.1145
     17 H1          4.4033   -1.1307    1.8027 H         1 <0>         0.1236
     18 C14         5.9497   -2.6296    1.8571 C.3       1 <0>         0.0288
     19 O4          6.8555   -1.7430    2.5171 O.3       1 <0>        -0.2874
     20 C15         7.8612   -2.3091    3.2311 C.ar      1 <0>         0.1810
     21 C16         7.9715   -3.6982    3.2862 C.ar      1 <0>        -0.2442
     22 C17         8.9756   -4.2817    4.0040 C.ar      1 <0>         0.0034
     23 C18         9.8942   -3.4811    4.6841 C.ar      1 <0>        -0.2603
     24 C19        10.9848   -4.0691    5.4830 C.2       1 <0>         0.4242
     25 O5         11.2752   -5.2500    5.4086 O.2       1 <0>        -0.4840
     26 C20        11.7041   -3.1419    6.3780 C.2       1 <0>        -0.3009
     27 C21        11.5042   -1.8116    6.2176 C.2       1 <0>         0.0962
     28 O6         10.6944   -1.3086    5.2746 O.3       1 <0>        -0.1917
     29 C22         9.7974   -2.0775    4.6292 C.ar      1 <0>         0.1887
     30 C23         8.7704   -1.5015    3.8926 C.ar      1 <0>        -0.1396
     31 C24         8.6429   -0.0018    3.8183 C.3       1 <0>        -0.0654
     32 C25         7.7589    0.4924    4.9652 C.3       1 <0>        -0.1141
     33 C26         7.6294    2.0150    4.8897 C.3       1 <0>        -0.1489
     34 C27        12.2087   -0.8744    7.1213 C.2       1 <0>         0.5392
     35 O7         12.9525   -1.3058    7.9900 O.co2     1 <0>        -0.6427
     36 O8         12.0466    0.3309    6.9987 O.co2     1 <0>        -0.6456
     37 O9          5.5184   -1.0671    0.0645 O.3       1 <0>        -0.5369
     38 H2          1.0175    1.9093   -0.0272 H         1 <0>         0.0559
     39 H3         -0.5298    1.8931   -0.9068 H         1 <0>         0.0532
     40 H4         -0.5180    1.8931    0.8731 H         1 <0>         0.0542
     41 H5          0.5333   -0.3527    0.8661 H         1 <0>         0.0609
     42 H6         -1.0140   -0.3689   -0.0136 H         1 <0>         0.0622
     43 H7          0.2045   -0.1393   -2.1610 H         1 <0>         0.0717
     44 H8          1.7518   -0.1230   -1.2813 H         1 <0>         0.0796
     45 H9          2.6339   -4.6031   -0.2033 H         1 <0>         0.1365
     46 H10         0.8271   -5.8671   -1.2497 H         1 <0>         0.1409
     47 H11        -1.1829   -1.8484   -3.3852 H         1 <0>         0.3959
     48 H12        -0.3693   -6.7197   -2.0725 H         1 <0>         0.0810
     49 H13        -2.1450   -6.8197   -2.1449 H         1 <0>         0.0923
     50 H14        -1.2005   -6.6631   -3.6455 H         1 <0>         0.0942
     51 H15         3.4378   -3.3931    1.2916 H         1 <0>         0.0805
     52 H16         4.3243   -3.3849   -0.2518 H         1 <0>         0.0747
     53 H17         5.4623   -3.2667    2.5951 H         1 <0>         0.0781
     54 H18         6.4993   -3.2491    1.1484 H         1 <0>         0.0727
     55 H19         7.2590   -4.3153    2.7588 H         1 <0>         0.1327
     56 H20         9.0583   -5.3577    4.0456 H         1 <0>         0.1394
     57 H21        12.3719   -3.5141    7.1409 H         1 <0>         0.1665
     58 H22         9.6309    0.4513    3.8999 H         1 <0>         0.0819
     59 H23         8.1924    0.2778    2.8659 H         1 <0>         0.0771
     60 H24         6.7709    0.0392    4.8836 H         1 <0>         0.0562
     61 H25         8.2094    0.2127    5.9175 H         1 <0>         0.0644
     62 H26         8.6174    2.4681    4.9713 H         1 <0>         0.0592
     63 H27         7.1790    2.2946    3.9373 H         1 <0>         0.0507
     64 H28         6.9997    2.3670    5.7068 H         1 <0>         0.0511
     65 H29         5.9743   -1.6127   -0.5908 H         1 <0>         0.3749
@<TRIPOS>BOND
     1    1    2 1
     2    1   38 1
     3    1   39 1
     4    1   40 1
     5    2    3 1
     6    2   41 1
     7    2   42 1
     8    3    4 1
     9    3   43 1
    10    3   44 1
    11    4    9 ar
    12    4    5 ar
    13    5    6 ar
    14    5   14 1
    15    6    7 ar
    16    6   45 1
    17    7    8 ar
    18    7   46 1
    19    8    9 ar
    20    8   11 1
    21    9   10 1
    22   10   47 1
    23   11   12 2
    24   11   13 1
    25   13   48 1
    26   13   49 1
    27   13   50 1
    28   14   15 1
    29   15   16 1
    30   15   51 1
    31   15   52 1
    32   16   17 1
    33   16   18 1
    34   16   37 1
    35   18   19 1
    36   18   53 1
    37   18   54 1
    38   19   20 1
    39   20   30 ar
    40   20   21 ar
    41   21   22 ar
    42   21   55 1
    43   22   23 ar
    44   22   56 1
    45   23   29 ar
    46   23   24 1
    47   24   25 2
    48   24   26 1
    49   26   27 2
    50   26   57 1
    51   27   28 1
    52   27   34 1
    53   28   29 1
    54   29   30 ar
    55   30   31 1
    56   31   32 1
    57   31   58 1
    58   31   59 1
    59   32   33 1
    60   32   60 1
    61   32   61 1
    62   33   62 1
    63   33   63 1
    64   33   64 1
    65   34   35 2
    66   34   36 1
    67   37   65 1
@<TRIPOS>MOLECULE
ZINC03803377
   56    58     0     0     0
SMALL
USER_CHARGES

@<TRIPOS>ATOM
      1 C1         -2.9540   -6.7500    0.5236 C.3       1 <0>        -0.1513
      2 C2         -2.4270   -5.4584    1.1520 C.3       1 <0>        -0.0915
      3 C3         -1.0908   -5.0855    0.5066 C.3       1 <0>        -0.1158
      4 C4         -1.2908   -4.8770   -0.9959 C.3       1 <0>        -0.0989
      5 C5         -2.2999   -3.7499   -1.2246 C.3       1 <0>        -0.1524
      6 C6         -0.5638   -3.7938    1.1350 C.3       1 <0>        -0.1095
      7 C7         -0.2632   -4.0306    2.5926 C.2       1 <0>         0.4972
      8 O1         -0.3894   -5.1404    3.0653 O.2       1 <0>        -0.4598
      9 N1          0.1459   -3.0091    3.3709 N.am      1 <0>        -0.6897
     10 C8          0.3442   -3.2097    4.7416 C.ar      1 <0>         0.1581
     11 C9          0.0310   -2.1996    5.6442 C.ar      1 <0>        -0.1409
     12 C10         0.2241   -2.3917    6.9996 C.ar      1 <0>        -0.1053
     13 C11         0.7297   -3.5873    7.4669 C.ar      1 <0>        -0.1253
     14 C12         1.0481   -4.6099    6.5682 C.ar      1 <0>        -0.0541
     15 C13         0.8471   -4.4167    5.1992 C.ar      1 <0>        -0.0938
     16 C14         1.5880   -5.8876    7.0632 C.2       1 <0>        -0.0386
     17 C15         1.7759   -6.0727    8.3834 C.2       1 <0>        -0.0934
     18 C16         2.3135   -7.3447    8.8762 C.2       1 <0>         0.1561
     19 N2          2.5658   -7.7271   10.1241 N.2       1 <0>        -0.5027
     20 C17         3.0518   -8.9162   10.3850 C.2       1 <0>         0.0734
     21 C18         3.3067   -9.7834    9.3674 C.2       1 <0>        -0.2156
     22 S1          2.7988   -8.8022    7.9611 S.3       1 <0>         0.0140
     23 C19         3.3286   -9.3222   11.8096 C.3       1 <0>        -0.0417
     24 C20         4.1685  -10.6045   11.9326 C.3       1 <0>        -0.1354
     25 C21         3.2542  -10.9970   13.1051 C.3       1 <0>        -0.1412
     26 C22         2.1779  -10.1074   12.4609 C.3       1 <0>        -0.1275
     27 C23        -0.0969   -6.1956    0.7318 C.2       1 <0>         0.5131
     28 O2         -0.3800   -7.1278    1.4649 O.co2     1 <0>        -0.6675
     29 O3          0.9902   -6.1616    0.1809 O.co2     1 <0>        -0.7143
     30 H1         -2.2351   -7.5530    0.6865 H         1 <0>         0.0865
     31 H2         -3.9059   -7.0157    0.9834 H         1 <0>         0.0297
     32 H3         -3.0965   -6.6015   -0.5468 H         1 <0>         0.0352
     33 H4         -3.1458   -4.6554    0.9891 H         1 <0>         0.0298
     34 H5         -2.2845   -5.6069    2.2224 H         1 <0>         0.0719
     35 H6         -0.3389   -4.6113   -1.4557 H         1 <0>         0.0618
     36 H7         -1.6663   -5.7972   -1.4436 H         1 <0>         0.0588
     37 H8         -2.4423   -3.6013   -2.2949 H         1 <0>         0.0431
     38 H9         -3.2517   -4.0155   -0.7647 H         1 <0>         0.0530
     39 H10        -1.9244   -2.8297   -0.7769 H         1 <0>         0.0480
     40 H11         0.3469   -3.4853    0.6217 H         1 <0>         0.0919
     41 H12        -1.3164   -3.0110    1.0417 H         1 <0>         0.0790
     42 H13         0.3028   -2.1350    2.9809 H         1 <0>         0.4054
     43 H14        -0.3645   -1.2610    5.2850 H         1 <0>         0.1242
     44 H15        -0.0213   -1.6028    7.6951 H         1 <0>         0.1256
     45 H16         0.8798   -3.7331    8.5264 H         1 <0>         0.1255
     46 H17         1.0871   -5.2039    4.4998 H         1 <0>         0.1490
     47 H18         1.8333   -6.6761    6.3671 H         1 <0>         0.1281
     48 H19         1.5307   -5.2842    9.0795 H         1 <0>         0.1504
     49 H20         3.7021  -10.7879    9.4005 H         1 <0>         0.1957
     50 H21         3.6957   -8.4979   12.4210 H         1 <0>         0.1030
     51 H22         4.0827  -11.2670   11.0712 H         1 <0>         0.0850
     52 H23         5.2022  -10.4228   12.2268 H         1 <0>         0.0714
     53 H24         2.9940  -12.0554   13.1205 H         1 <0>         0.0698
     54 H25         3.6019  -10.6315   14.0713 H         1 <0>         0.0815
     55 H26         1.6045   -9.5244   13.1817 H         1 <0>         0.0700
     56 H27         1.5479  -10.6340   11.7440 H         1 <0>         0.0809
@<TRIPOS>BOND
     1    1    2 1
     2    1   30 1
     3    1   31 1
     4    1   32 1
     5    2    3 1
     6    2   33 1
     7    2   34 1
     8    3    4 1
     9    3    6 1
    10    3   27 1
    11    4    5 1
    12    4   35 1
    13    4   36 1
    14    5   37 1
    15    5   38 1
    16    5   39 1
    17    6    7 1
    18    6   40 1
    19    6   41 1
    20    7    8 2
    21    7    9 am
    22    9   10 1
    23    9   42 1
    24   10   15 ar
    25   10   11 ar
    26   11   12 ar
    27   11   43 1
    28   12   13 ar
    29   12   44 1
    30   13   14 ar
    31   13   45 1
    32   14   15 ar
    33   14   16 1
    34   15   46 1
    35   16   17 2
    36   16   47 1
    37   17   18 1
    38   17   48 1
    39   18   22 1
    40   18   19 2
    41   19   20 1
    42   20   21 2
    43   20   23 1
    44   21   22 1
    45   21   49 1
    46   23   26 1
    47   23   24 1
    48   23   50 1
    49   24   25 1
    50   24   51 1
    51   24   52 1
    52   25   26 1
    53   25   53 1
    54   25   54 1
    55   26   55 1
    56   26   56 1
    57   27   28 2
    58   27   29 1
@<TRIPOS>MOLECULE
ZINC04632133
   73    72     0     0     0
SMALL
USER_CHARGES

@<TRIPOS>ATOM
      1 C1         -0.1767    3.2819   -1.8515 C.3       1 <0>        -0.1548
      2 C2          0.0573    1.8078   -1.5150 C.3       1 <0>        -0.1254
      3 C3          0.5420    1.0701   -2.7647 C.3       1 <0>        -0.1221
      4 C4          0.7760   -0.4040   -2.4281 C.3       1 <0>        -0.1143
      5 C5          1.2606   -1.1417   -3.6778 C.3       1 <0>        -0.1035
      6 C6          1.4911   -2.5936   -3.3464 C.2       1 <0>        -0.1551
      7 C7          0.9312   -3.5283   -4.0736 C.2       1 <0>        -0.1547
      8 C8          0.1815   -3.1595   -5.3278 C.3       1 <0>        -0.0854
      9 C9          0.7049   -3.9730   -6.4834 C.2       1 <0>        -0.1229
     10 C10        -0.1367   -4.6859   -7.2318 C.2       1 <0>        -0.1439
     11 C11        -1.5816   -4.5697   -7.0221 C.2       1 <0>        -0.1059
     12 C12        -2.4296   -5.3538   -7.7192 C.2       1 <0>        -0.1290
     13 C13        -3.8746   -5.2375   -7.5095 C.2       1 <0>        -0.1018
     14 C14        -4.7125   -6.0122   -8.1983 C.2       1 <0>        -0.1476
     15 C15        -6.1991   -5.8926   -7.9825 C.3       1 <0>        -0.0413
     16 H1         -6.3970   -5.1270   -7.2323 H         1 <0>         0.1043
     17 C16        -6.7541   -7.2344   -7.5004 C.3       1 <0>         0.1329
     18 H2         -6.6087   -7.9872   -8.2752 H         1 <0>         0.1075
     19 C17        -8.2479   -7.0911   -7.2025 C.3       1 <0>        -0.1551
     20 C18        -8.8311   -8.4606   -6.8483 C.3       1 <0>        -0.0870
     21 C19       -10.3249   -8.3172   -6.5504 C.3       1 <0>        -0.1832
     22 C20       -10.8993   -9.6661   -6.2015 C.2       1 <0>         0.4868
     23 O1        -10.1804  -10.6508   -6.1920 O.co2     1 <0>        -0.6985
     24 O2        -12.0828   -9.7727   -5.9287 O.co2     1 <0>        -0.7071
     25 O3         -6.0678   -7.6347   -6.3126 O.3       1 <0>        -0.5375
     26 S1         -7.0015   -5.4319   -9.5428 S.3       1 <0>        -0.2322
     27 C21        -6.3440   -3.7801   -9.9034 C.3       1 <0>        -0.1317
     28 C22        -7.0408   -3.2130  -11.1418 C.3       1 <0>         0.0325
     29 H3         -8.1128   -3.1449  -10.9564 H         1 <0>         0.1722
     30 C23        -6.4946   -1.8408  -11.4413 C.2       1 <0>         0.4903
     31 O4         -5.6585   -1.6968  -12.3080 O.2       1 <0>        -0.5445
     32 N1         -6.9354   -0.7736  -10.7461 N.am      1 <0>        -0.6584
     33 C24        -6.4044    0.5604  -11.0373 C.3       1 <0>         0.0426
     34 C25        -7.0561    1.5700  -10.1279 C.2       1 <0>         0.4885
     35 O5         -7.8871    1.2087   -9.3121 O.co2     1 <0>        -0.6858
     36 O6         -6.7524    2.7481  -10.2078 O.co2     1 <0>        -0.6730
     37 N2         -6.7976   -4.0980  -12.2888 N.4       1 <0>        -0.6167
     38 H4          0.7556    3.7279   -2.1980 H         1 <0>         0.0526
     39 H5         -0.9304    3.3605   -2.6351 H         1 <0>         0.0553
     40 H6         -0.5220    3.8075   -0.9612 H         1 <0>         0.0533
     41 H7          0.8109    1.7292   -0.7314 H         1 <0>         0.0594
     42 H8         -0.8750    1.3619   -1.1685 H         1 <0>         0.0612
     43 H9         -0.2117    1.1487   -3.5482 H         1 <0>         0.0625
     44 H10         1.4742    1.5161   -3.1112 H         1 <0>         0.0608
     45 H11         1.5296   -0.4826   -1.6446 H         1 <0>         0.0611
     46 H12        -0.1563   -0.8499   -2.0816 H         1 <0>         0.0627
     47 H13         0.5070   -1.0631   -4.4614 H         1 <0>         0.0761
     48 H14         2.1929   -0.6957   -4.0244 H         1 <0>         0.0691
     49 H15         2.1179   -2.8635   -2.5093 H         1 <0>         0.1095
     50 H16         1.0068   -4.5633   -3.7743 H         1 <0>         0.1098
     51 H17        -0.8801   -3.3649   -5.1902 H         1 <0>         0.0816
     52 H18         0.3223   -2.0990   -5.5367 H         1 <0>         0.0884
     53 H19         1.7619   -3.9782   -6.7052 H         1 <0>         0.1153
     54 H20         0.2469   -5.3493   -7.9928 H         1 <0>         0.1158
     55 H21        -1.9682   -3.8563   -6.3093 H         1 <0>         0.1202
     56 H22        -2.0431   -6.0672   -8.4319 H         1 <0>         0.1157
     57 H23        -4.2611   -4.5241   -6.7967 H         1 <0>         0.1140
     58 H24        -4.3259   -6.7256   -8.9110 H         1 <0>         0.1246
     59 H25        -8.3874   -6.4089   -6.3639 H         1 <0>         0.0643
     60 H26        -8.7573   -6.6956   -8.0812 H         1 <0>         0.0757
     61 H27        -8.6916   -9.1428   -7.6869 H         1 <0>         0.0573
     62 H28        -8.3217   -8.8561   -5.9696 H         1 <0>         0.0667
     63 H29       -10.4643   -7.6350   -5.7118 H         1 <0>         0.0548
     64 H30       -10.8343   -7.9217   -7.4291 H         1 <0>         0.0535
     65 H31        -6.1539   -7.0103   -5.5793 H         1 <0>         0.3750
     66 H32        -6.5245   -3.1235   -9.0523 H         1 <0>         0.1340
     67 H33        -5.2721   -3.8482  -10.0888 H         1 <0>         0.1144
     68 H34        -7.6041   -0.8887  -10.0530 H         1 <0>         0.4181
     69 H35        -5.3268    0.5663  -10.8736 H         1 <0>         0.0783
     70 H36        -6.6156    0.8169  -12.0754 H         1 <0>         0.0787
     71 H37        -7.1632   -5.0167  -12.0883 H         1 <0>         0.4410
     72 H38        -7.2571   -3.7240  -13.1056 H         1 <0>         0.4400
     73 H39        -5.8053   -4.1610  -12.4605 H         1 <0>         0.4399
@<TRIPOS>BOND
     1    1    2 1
     2    1   38 1
     3    1   39 1
     4    1   40 1
     5    2    3 1
     6    2   41 1
     7    2   42 1
     8    3    4 1
     9    3   43 1
    10    3   44 1
    11    4    5 1
    12    4   45 1
    13    4   46 1
    14    5    6 1
    15    5   47 1
    16    5   48 1
    17    6    7 2
    18    6   49 1
    19    7    8 1
    20    7   50 1
    21    8    9 1
    22    8   51 1
    23    8   52 1
    24    9   10 2
    25    9   53 1
    26   10   11 1
    27   10   54 1
    28   11   12 2
    29   11   55 1
    30   12   13 1
    31   12   56 1
    32   13   14 2
    33   13   57 1
    34   14   15 1
    35   14   58 1
    36   15   16 1
    37   15   17 1
    38   15   26 1
    39   17   18 1
    40   17   19 1
    41   17   25 1
    42   19   20 1
    43   19   59 1
    44   19   60 1
    45   20   21 1
    46   20   61 1
    47   20   62 1
    48   21   22 1
    49   21   63 1
    50   21   64 1
    51   22   23 2
    52   22   24 1
    53   25   65 1
    54   26   27 1
    55   27   28 1
    56   27   66 1
    57   27   67 1
    58   28   29 1
    59   28   30 1
    60   28   37 1
    61   30   31 2
    62   30   32 am
    63   32   33 1
    64   32   68 1
    65   33   34 1
    66   33   69 1
    67   33   70 1
    68   34   35 2
    69   34   36 1
    70   37   71 1
    71   37   72 1
    72   37   73 1
@<TRIPOS>MOLECULE
ZINC13650712
   56    59     0     0     0
SMALL
USER_CHARGES
4-[[5-(cyclopentoxycarbonylamino)-1-methyl-indol-3-yl]methyl]-3-methoxy-benzoic acid
@<TRIPOS>ATOM
      1 C1          4.2001   -1.7520   -0.0744 C.3       1 <0>         0.0826
      2 N1          3.7290   -0.3649   -0.0633 N.pl3     1 <0>        -0.4907
      3 C2          4.5361    0.7395   -0.0735 C.2       1 <0>         0.0603
      4 C3          3.7878    1.8539   -0.0581 C.2       1 <0>        -0.1470
      5 C4          2.3859    1.4287   -0.0361 C.ar      1 <0>        -0.0796
      6 C5          2.4057    0.0222   -0.0404 C.ar      1 <0>         0.0886
      7 C6          1.2056   -0.6806   -0.0230 C.ar      1 <0>        -0.1145
      8 C7          0.0090    0.0002   -0.0018 C.ar      1 <0>        -0.1163
      9 C8         -0.0146    1.3935    0.0029 C.ar      1 <0>         0.1159
     10 C9          1.1674    2.1097   -0.0141 C.ar      1 <0>        -0.0592
     11 N2         -1.2416    2.0711    0.0192 N.am      1 <0>        -0.6489
     12 C10        -1.3622    3.2306    0.6956 C.2       1 <0>         0.6407
     13 O1         -0.3878    3.7317    1.2210 O.2       1 <0>        -0.5406
     14 O2         -2.5624    3.8339    0.7891 O.3       1 <0>        -0.3645
     15 C11        -2.6179    5.0798    1.5327 C.3       1 <0>         0.1021
     16 C12        -2.9842    4.8006    3.0049 C.3       1 <0>        -0.1433
     17 C13        -3.8984    5.9868    3.4004 C.3       1 <0>        -0.1240
     18 C14        -4.7307    6.2201    2.1151 C.3       1 <0>        -0.1224
     19 C15        -3.7283    5.9823    0.9669 C.3       1 <0>        -0.1231
     20 C16         4.2938    3.2734   -0.0620 C.3       1 <0>         0.0092
     21 C17         4.3693    3.7837    1.3540 C.ar      1 <0>        -0.1123
     22 C18         3.3191    4.5136    1.8800 C.ar      1 <0>        -0.0887
     23 C19         3.3788    4.9800    3.1770 C.ar      1 <0>        -0.1059
     24 C20         4.5073    4.7240    3.9589 C.ar      1 <0>        -0.0816
     25 C21         5.5683    3.9919    3.4248 C.ar      1 <0>        -0.1721
     26 C22         5.4952    3.5241    2.1234 C.ar      1 <0>         0.1073
     27 O3          6.5262    2.8102    1.5993 O.3       1 <0>        -0.3207
     28 C23         7.6533    2.5805    2.4472 C.3       1 <0>         0.0286
     29 C24         4.5776    5.2270    5.3463 C.2       1 <0>         0.4895
     30 O4          5.5604    5.0034    6.0242 O.co2     1 <0>        -0.6348
     31 H1          4.3000   -2.0936   -1.1047 H         1 <0>         0.0655
     32 H2          5.1681   -1.8110    0.4233 H         1 <0>         0.0807
     33 H3          3.4830   -2.3836    0.4498 H         1 <0>         0.0770
     34 H4          5.6158    0.7181   -0.0910 H         1 <0>         0.1684
     35 H5          1.2124   -1.7606   -0.0265 H         1 <0>         0.1208
     36 H6         -0.9198   -0.5508    0.0117 H         1 <0>         0.1266
     37 H7          1.1485    3.1896   -0.0107 H         1 <0>         0.1413
     38 H8         -2.0039    1.7055   -0.4564 H         1 <0>         0.4123
     39 H9         -1.6567    5.5907    1.4768 H         1 <0>         0.0960
     40 H10        -3.5240    3.8576    3.0915 H         1 <0>         0.0757
     41 H11        -2.0879    4.7865    3.6250 H         1 <0>         0.0811
     42 H12        -3.3046    6.8685    3.6414 H         1 <0>         0.0740
     43 H13        -4.5446    5.7149    4.2350 H         1 <0>         0.0721
     44 H14        -5.1089    7.2420    2.0858 H         1 <0>         0.0702
     45 H15        -5.5525    5.5064    2.0580 H         1 <0>         0.0681
     46 H16        -3.3061    6.9316    0.6372 H         1 <0>         0.0797
     47 H17        -4.2250    5.4854    0.1335 H         1 <0>         0.0794
     48 H18         5.2858    3.3042   -0.5127 H         1 <0>         0.0779
     49 H19         3.6132    3.9001   -0.6383 H         1 <0>         0.0727
     50 H20         2.4478    4.7160    1.2748 H         1 <0>         0.1233
     51 H21         2.5552    5.5463    3.5860 H         1 <0>         0.1288
     52 H22         6.4439    3.7909    4.0243 H         1 <0>         0.1293
     53 H23         8.0822    3.5362    2.7484 H         1 <0>         0.0535
     54 H24         7.3357    2.0296    3.3325 H         1 <0>         0.0520
     55 H25         8.4018    2.0004    1.9074 H         1 <0>         0.0907
     56 O5          3.5519    5.9336    5.8594 O.co2     1 <0>        -0.7519
@<TRIPOS>BOND
     1    1    2 1
     2    1   31 1
     3    1   32 1
     4    1   33 1
     5    2    6 1
     6    2    3 1
     7    3    4 2
     8    3   34 1
     9    4    5 1
    10    4   20 1
    11    5   10 ar
    12    5    6 ar
    13    6    7 ar
    14    7    8 ar
    15    7   35 1
    16    8    9 ar
    17    8   36 1
    18    9   10 ar
    19    9   11 1
    20   10   37 1
    21   11   12 am
    22   11   38 1
    23   12   13 2
    24   12   14 1
    25   14   15 1
    26   15   19 1
    27   15   16 1
    28   15   39 1
    29   16   17 1
    30   16   40 1
    31   16   41 1
    32   17   18 1
    33   17   42 1
    34   17   43 1
    35   18   19 1
    36   18   44 1
    37   18   45 1
    38   19   46 1
    39   19   47 1
    40   20   21 1
    41   20   48 1
    42   20   49 1
    43   21   26 ar
    44   21   22 ar
    45   22   23 ar
    46   22   50 1
    47   23   24 ar
    48   23   51 1
    49   24   25 ar
    50   24   29 1
    51   25   26 ar
    52   25   52 1
    53   26   27 1
    54   27   28 1
    55   28   53 1
    56   28   54 1
    57   28   55 1
    58   29   30 2
    59   29   56 1
@<TRIPOS>MOLECULE
ZINC00896717
   73    77     0     0     0
SMALL
USER_CHARGES

@<TRIPOS>ATOM
      1 C1         -0.1009    0.1147    0.5514 C.3       1 <0>        -0.1663
      2 C2          0.1265   -1.3751    0.5622 C.ar      1 <0>         0.0270
      3 C3          0.1604   -2.0779   -0.6279 C.ar      1 <0>        -0.1516
      4 C4          0.3689   -3.4441   -0.6179 C.ar      1 <0>        -0.0776
      5 C5          0.5441   -4.1080    0.5822 C.ar      1 <0>        -0.1558
      6 C6          0.5112   -3.4052    1.7719 C.ar      1 <0>        -0.0261
      7 C7          0.3068   -2.0379    1.7616 C.ar      1 <0>        -0.6366
      8 S1          0.2710   -1.1410    3.2779 S.o2      1 <0>         2.6523
      9 O1         -0.8945   -0.3289    3.2419 O.2       1 <0>        -1.0028
     10 O2          0.5105   -2.0842    4.3134 O.2       1 <0>        -1.0081
     11 N1          1.5668   -0.1100    3.2677 N.2       1 <0>        -1.0505
     12 C8          1.7788    0.6775    4.2799 C.2       1 <0>         0.5206
     13 O3          0.9410    0.6548    5.3414 O.3       1 <0>        -0.7138
     14 C9          2.9370    1.5989    4.2708 C.ar      1 <0>        -0.0229
     15 C10         3.7994    1.6283    3.1744 C.ar      1 <0>        -0.0980
     16 C11         4.8781    2.4888    3.1687 C.ar      1 <0>        -0.0981
     17 C12         5.1078    3.3233    4.2470 C.ar      1 <0>        -0.0987
     18 C13         4.2550    3.3009    5.3419 C.ar      1 <0>         0.1102
     19 C14         3.1664    2.4445    5.3551 C.ar      1 <0>        -0.1594
     20 O4          4.4855    4.1229    6.3995 O.3       1 <0>        -0.3182
     21 C15         3.5677    4.0470    7.4922 C.3       1 <0>         0.0266
     22 C16         6.2882    4.2601    4.2336 C.3       1 <0>         0.0056
     23 C17         7.4498    3.6146    4.9444 C.2       1 <0>        -0.1496
     24 C18         7.7842    3.7735    6.2347 C.2       1 <0>         0.0632
     25 N2          8.8964    3.0311    6.5234 N.pl3     1 <0>        -0.4902
     26 C19         9.3161    2.3581    5.3954 C.ar      1 <0>         0.0883
     27 C20         8.4241    2.6899    4.3596 C.ar      1 <0>        -0.0769
     28 C21         8.5989    2.1448    3.0863 C.ar      1 <0>        -0.0597
     29 C22         9.6493    1.2770    2.8537 C.ar      1 <0>         0.1187
     30 C23        10.5285    0.9474    3.8834 C.ar      1 <0>        -0.1168
     31 C24        10.3700    1.4872    5.1402 C.ar      1 <0>        -0.1123
     32 N3          9.8306    0.7261    1.5775 N.am      1 <0>        -0.6462
     33 C25         9.5105    1.4433    0.4822 C.2       1 <0>         0.6453
     34 O5          9.1565    2.6002    0.5956 O.2       1 <0>        -0.5504
     35 O6          9.5828    0.8778   -0.7377 O.3       1 <0>        -0.3566
     36 C26         9.2290    1.6964   -1.8542 C.3       1 <0>         0.1002
     37 C27         7.7352    1.5118   -2.1925 C.3       1 <0>        -0.1447
     38 C28         7.6859    1.5716   -3.7395 C.3       1 <0>        -0.1232
     39 C29         8.9780    0.8237   -4.1519 C.3       1 <0>        -0.1232
     40 C30        10.0191    1.2589   -3.1000 C.3       1 <0>        -0.1234
     41 C31         9.5448    2.9614    7.8353 C.3       1 <0>         0.0820
     42 H1          0.8581    0.6281    0.4816 H         1 <0>         0.0901
     43 H2         -0.7192    0.3816   -0.3057 H         1 <0>         0.0696
     44 H3         -0.6061    0.4118    1.4704 H         1 <0>         0.1079
     45 H4          0.0235   -1.5593   -1.5653 H         1 <0>         0.1250
     46 H5          0.3947   -3.9933   -1.5475 H         1 <0>         0.1224
     47 H6          0.7064   -5.1757    0.5900 H         1 <0>         0.1247
     48 H7          0.6477   -3.9238    2.7093 H         1 <0>         0.1377
     49 H8          3.6231    0.9775    2.3307 H         1 <0>         0.1386
     50 H9          5.5452    2.5104    2.3196 H         1 <0>         0.1225
     51 H10         2.4998    2.4289    6.2046 H         1 <0>         0.1369
     52 H11         3.8663    4.7531    8.2670 H         1 <0>         0.0925
     53 H12         2.5653    4.2938    7.1425 H         1 <0>         0.0557
     54 H13         3.5716    3.0364    7.9005 H         1 <0>         0.0542
     55 H14         6.5682    4.4770    3.2028 H         1 <0>         0.0767
     56 H15         6.0219    5.1875    4.7407 H         1 <0>         0.0801
     57 H16         7.2539    4.3958    6.9404 H         1 <0>         0.1689
     58 H17         7.9175    2.3993    2.2881 H         1 <0>         0.1365
     59 H18        11.3461    0.2682    3.6921 H         1 <0>         0.1272
     60 H19        11.0563    1.2237    5.9314 H         1 <0>         0.1214
     61 H20        10.1864   -0.1713    1.4827 H         1 <0>         0.4143
     62 H21         9.4351    2.7429   -1.6298 H         1 <0>         0.0909
     63 H22         7.3802    0.5446   -1.8367 H         1 <0>         0.0795
     64 H23         7.1436    2.3189   -1.7604 H         1 <0>         0.0779
     65 H24         6.8034    1.0558   -4.1181 H         1 <0>         0.0733
     66 H25         7.7097    2.6045   -4.0870 H         1 <0>         0.0706
     67 H26         8.8237   -0.2546   -4.1124 H         1 <0>         0.0701
     68 H27         9.2933    1.1286   -5.1497 H         1 <0>         0.0698
     69 H28        10.6081    2.0934   -3.4807 H         1 <0>         0.0777
     70 H29        10.6725    0.4222   -2.8529 H         1 <0>         0.0800
     71 H30         9.1082    2.1470    8.4135 H         1 <0>         0.0670
     72 H31        10.6119    2.7825    7.7041 H         1 <0>         0.0770
     73 H32         9.3965    3.9028    8.3643 H         1 <0>         0.0807
@<TRIPOS>BOND
     1    1    2 1
     2    1   42 1
     3    1   43 1
     4    1   44 1
     5    2    7 ar
     6    2    3 ar
     7    3    4 ar
     8    3   45 1
     9    4    5 ar
    10    4   46 1
    11    5    6 ar
    12    5   47 1
    13    6    7 ar
    14    6   48 1
    15    7    8 1
    16    8    9 2
    17    8   10 2
    18    8   11 1
    19   11   12 2
    20   12   13 1
    21   12   14 1
    22   14   19 ar
    23   14   15 ar
    24   15   16 ar
    25   15   49 1
    26   16   17 ar
    27   16   50 1
    28   17   18 ar
    29   17   22 1
    30   18   19 ar
    31   18   20 1
    32   19   51 1
    33   20   21 1
    34   21   52 1
    35   21   53 1
    36   21   54 1
    37   22   23 1
    38   22   55 1
    39   22   56 1
    40   23   27 1
    41   23   24 2
    42   24   25 1
    43   24   57 1
    44   25   26 1
    45   25   41 1
    46   26   31 ar
    47   26   27 ar
    48   27   28 ar
    49   28   29 ar
    50   28   58 1
    51   29   30 ar
    52   29   32 1
    53   30   31 ar
    54   30   59 1
    55   31   60 1
    56   32   33 am
    57   32   61 1
    58   33   34 2
    59   33   35 1
    60   35   36 1
    61   36   40 1
    62   36   37 1
    63   36   62 1
    64   37   38 1
    65   37   63 1
    66   37   64 1
    67   38   39 1
    68   38   65 1
    69   38   66 1
    70   39   40 1
    71   39   67 1
    72   39   68 1
    73   40   69 1
    74   40   70 1
    75   41   71 1
    76   41   72 1
    77   41   73 1
@<TRIPOS>MOLECULE
ZINC03831151
   76    80     0     0     0
SMALL
USER_CHARGES
2-[1-[[1-[3-[2-(7-chloro-2-quinolyl)vinyl]phenyl]-3-[2-(1-hydroxy-1-methyl-ethyl)phenyl]-propyl]sulfanylmethyl]cyclopropyl]acetic acid
@<TRIPOS>ATOM
      1 C1         10.8500    1.0504   -0.0606 C.3       1 <0>        -0.1402
      2 C2         10.3952   -0.0837    0.8602 C.3       1 <0>         0.1689
      3 C3         11.5237   -1.1066    1.0053 C.3       1 <0>        -0.1784
      4 C4         10.0488    0.4777    2.2152 C.ar      1 <0>        -0.1143
      5 C5         10.8910    0.2595    3.2897 C.ar      1 <0>        -0.1126
      6 C6         10.5735    0.7748    4.5323 C.ar      1 <0>        -0.1317
      7 C7          9.4138    1.5084    4.7008 C.ar      1 <0>        -0.1177
      8 C8          8.5745    1.7309    3.6254 C.ar      1 <0>        -0.1225
      9 C9          8.8894    1.2110    2.3836 C.ar      1 <0>        -0.0518
     10 C10         7.9717    1.4492    1.2122 C.3       1 <0>        -0.0932
     11 C11         6.8309    0.4300    1.2426 C.3       1 <0>        -0.0756
     12 C12         5.8318    0.7495    0.1288 C.3       1 <0>        -0.0298
     13 H1          5.4953    1.7815    0.2275 H         1 <0>         0.0817
     14 C13         4.6481   -0.1772    0.2348 C.ar      1 <0>        -0.0811
     15 C14         4.8319   -1.5456    0.1383 C.ar      1 <0>        -0.0649
     16 C15         3.7512   -2.4042    0.2349 C.ar      1 <0>        -0.1139
     17 C16         2.4815   -1.9012    0.4283 C.ar      1 <0>        -0.0997
     18 C17         2.2881   -0.5208    0.5267 C.ar      1 <0>        -0.0832
     19 C18         3.3840    0.3406    0.4229 C.ar      1 <0>        -0.0921
     20 C19         0.9348    0.0244    0.7328 C.2       1 <0>        -0.0223
     21 C20        -0.1172   -0.8064    0.8266 C.2       1 <0>        -0.1577
     22 C21        -1.4699   -0.2614    1.0265 C.ar      1 <0>         0.2128
     23 C22        -2.5618   -1.1448    1.1169 C.ar      1 <0>        -0.1576
     24 C23        -3.8179   -0.6521    1.3018 C.ar      1 <0>        -0.0550
     25 C24        -3.9818    0.7451    1.3973 C.ar      1 <0>        -0.1145
     26 C25        -5.2492    1.3169    1.5875 C.ar      1 <0>        -0.0751
     27 C26        -5.3722    2.6703    1.6750 C.ar      1 <0>        -0.1204
     28 C27        -4.2541    3.4981    1.5778 C.ar      1 <0>        -0.0149
     29 C28        -3.0091    2.9770    1.3937 C.ar      1 <0>        -0.0860
     30 C29        -2.8429    1.5836    1.2986 C.ar      1 <0>         0.1489
     31 N1         -1.6325    1.0475    1.1226 N.ar      1 <0>        -0.4785
     32 Cl1        -4.4518    5.2189    1.6938 Cl        1 <0>        -0.0640
     33 S1          6.6322    0.5260   -1.4837 S.3       1 <0>        -0.1872
     34 C30         5.3826    1.0833   -2.6748 C.3       1 <0>        -0.0478
     35 C31         5.9349    0.9464   -4.0950 C.3       1 <0>        -0.0667
     36 C32         6.3381    2.2302   -4.8231 C.3       1 <0>        -0.1890
     37 C33         5.0735    1.4779   -5.2423 C.3       1 <0>        -0.1558
     38 C34         6.7690   -0.3085   -4.3606 C.3       1 <0>        -0.1249
     39 C35         5.8987   -1.5302   -4.2151 C.2       1 <0>         0.4741
     40 O1          4.7084   -1.4075   -4.0477 O.co2     1 <0>        -0.6335
     41 O2          9.2448   -0.7199    0.2999 O.3       1 <0>        -0.5290
     42 H2         11.6890    1.5751    0.3963 H         1 <0>         0.0632
     43 H3         11.1592    0.6370   -1.0206 H         1 <0>         0.0682
     44 H4         10.0257    1.7469   -0.2136 H         1 <0>         0.0728
     45 H5         11.1994   -1.9149    1.6606 H         1 <0>         0.0585
     46 H6         11.7748   -1.5120    0.0251 H         1 <0>         0.0691
     47 H7         12.4009   -0.6215    1.4334 H         1 <0>         0.0636
     48 H8         11.7971   -0.3132    3.1580 H         1 <0>         0.1242
     49 H9         11.2316    0.6046    5.3716 H         1 <0>         0.1174
     50 H10         9.1660    1.9113    5.6716 H         1 <0>         0.1174
     51 H11         7.6709    2.3077    3.7560 H         1 <0>         0.1195
     52 H12         8.5319    1.3399    0.2836 H         1 <0>         0.1122
     53 H13         7.5603    2.4568    1.2720 H         1 <0>         0.0613
     54 H14         6.3266    0.4779    2.2078 H         1 <0>         0.0638
     55 H15         7.2343   -0.5714    1.0927 H         1 <0>         0.0818
     56 H16         5.8238   -1.9452   -0.0128 H         1 <0>         0.1298
     57 H17         3.9021   -3.4709    0.1583 H         1 <0>         0.1247
     58 H18         1.6389   -2.5726    0.5039 H         1 <0>         0.1221
     59 H19         3.2416    1.4089    0.4939 H         1 <0>         0.1187
     60 H20         0.7884    1.0918    0.8085 H         1 <0>         0.1317
     61 H21         0.0293   -1.8738    0.7510 H         1 <0>         0.1353
     62 H22        -2.4041   -2.2104    1.0395 H         1 <0>         0.1428
     63 H23        -4.6674   -1.3151    1.3737 H         1 <0>         0.1423
     64 H24        -6.1228    0.6866    1.6643 H         1 <0>         0.1389
     65 H25        -6.3484    3.1084    1.8213 H         1 <0>         0.1370
     66 H26        -2.1529    3.6312    1.3211 H         1 <0>         0.1458
     67 H27         4.4858    0.4722   -2.5732 H         1 <0>         0.0962
     68 H28         5.1351    2.1269   -2.4802 H         1 <0>         0.0602
     69 H29         6.2098    3.1724   -4.2902 H         1 <0>         0.0860
     70 H30         7.1978    2.1811   -5.4913 H         1 <0>         0.0885
     71 H31         5.1013    0.9338   -6.1864 H         1 <0>         0.0902
     72 H32         4.1133    1.9252   -4.9853 H         1 <0>         0.0860
     73 H33         7.1732   -0.2688   -5.3720 H         1 <0>         0.0588
     74 H34         7.5884   -0.3587   -3.6435 H         1 <0>         0.0772
     75 H35         8.9010   -1.4505    0.8321 H         1 <0>         0.3708
     76 O3          6.4458   -2.7546   -4.2714 O.co2     1 <0>        -0.7801
@<TRIPOS>BOND
     1    1    2 1
     2    1   42 1
     3    1   43 1
     4    1   44 1
     5    2    3 1
     6    2    4 1
     7    2   41 1
     8    3   45 1
     9    3   46 1
    10    3   47 1
    11    4    9 ar
    12    4    5 ar
    13    5    6 ar
    14    5   48 1
    15    6    7 ar
    16    6   49 1
    17    7    8 ar
    18    7   50 1
    19    8    9 ar
    20    8   51 1
    21    9   10 1
    22   10   11 1
    23   10   52 1
    24   10   53 1
    25   11   12 1
    26   11   54 1
    27   11   55 1
    28   12   13 1
    29   12   14 1
    30   12   33 1
    31   14   19 ar
    32   14   15 ar
    33   15   16 ar
    34   15   56 1
    35   16   17 ar
    36   16   57 1
    37   17   18 ar
    38   17   58 1
    39   18   19 ar
    40   18   20 1
    41   19   59 1
    42   20   21 2
    43   20   60 1
    44   21   22 1
    45   21   61 1
    46   22   31 ar
    47   22   23 ar
    48   23   24 ar
    49   23   62 1
    50   24   25 ar
    51   24   63 1
    52   25   30 ar
    53   25   26 ar
    54   26   27 ar
    55   26   64 1
    56   27   28 ar
    57   27   65 1
    58   28   29 ar
    59   28   32 1
    60   29   30 ar
    61   29   66 1
    62   30   31 ar
    63   33   34 1
    64   34   35 1
    65   34   67 1
    66   34   68 1
    67   35   37 1
    68   35   36 1
    69   35   38 1
    70   36   37 1
    71   36   69 1
    72   36   70 1
    73   37   71 1
    74   37   72 1
    75   38   39 1
    76   38   73 1
    77   38   74 1
    78   39   40 2
    79   39   76 1
    80   41   75 1
@<TRIPOS>MOLECULE
ZINC02558217
   50    52     0     0     0
SMALL
USER_CHARGES

@<TRIPOS>ATOM
      1 C1         -0.0187    1.5258    0.0104 C.3       1 <0>        -0.1544
      2 C2          0.0021   -0.0041    0.0020 C.3       1 <0>        -0.1258
      3 C3          0.7182   -0.4975   -1.2568 C.3       1 <0>        -0.1208
      4 C4          0.7390   -2.0273   -1.2652 C.3       1 <0>        -0.1172
      5 C5          1.4551   -2.5207   -2.5240 C.3       1 <0>        -0.1459
      6 C6          1.4758   -4.0506   -2.5324 C.3       1 <0>         0.1475
      7 H1          1.9239   -4.4130   -1.6072 H         1 <0>         0.1091
      8 C7          2.2864   -4.5355   -3.7067 C.ar      1 <0>        -0.0767
      9 C8          1.7236   -4.5651   -4.9695 C.ar      1 <0>        -0.1488
     10 C9          2.4645   -5.0094   -6.0488 C.ar      1 <0>        -0.0737
     11 C10         3.7695   -5.4256   -5.8680 C.ar      1 <0>        -0.2076
     12 C11         4.3363   -5.3969   -4.6023 C.ar      1 <0>         0.1353
     13 C12         3.5925   -4.9448   -3.5217 C.ar      1 <0>        -0.1405
     14 O1          5.6198   -5.8057   -4.4218 O.3       1 <0>        -0.3117
     15 C13         6.3271   -6.2529   -5.5801 C.3       1 <0>         0.1118
     16 C14         7.7234   -6.6632   -5.1888 C.ar      1 <0>         0.1586
     17 C15         8.1095   -6.5663   -3.8535 C.ar      1 <0>        -0.1549
     18 C16         9.3710   -6.9337   -3.4805 C.ar      1 <0>        -0.0547
     19 C17        10.2475   -7.4042   -4.4764 C.ar      1 <0>        -0.1029
     20 C18        11.5590   -7.8004   -4.1684 C.ar      1 <0>        -0.0960
     21 C19        12.3764   -8.2502   -5.1598 C.ar      1 <0>        -0.1145
     22 C20        11.9287   -8.3230   -6.4776 C.ar      1 <0>        -0.0987
     23 C21        10.6644   -7.9469   -6.8115 C.ar      1 <0>        -0.0932
     24 C22         9.7902   -7.4773   -5.8154 C.ar      1 <0>         0.1322
     25 N1          8.5406   -7.1068   -6.1127 N.ar      1 <0>        -0.4701
     26 O2          0.1392   -4.5445   -2.6397 O.3       1 <0>        -0.5512
     27 H2          1.0039    1.9031    0.0027 H         1 <0>         0.0531
     28 H3         -0.5459    1.8868   -0.8726 H         1 <0>         0.0531
     29 H4         -0.5289    1.8773    0.9072 H         1 <0>         0.0537
     30 H5          0.5293   -0.3651    0.8851 H         1 <0>         0.0608
     31 H6         -1.0205   -0.3814    0.0098 H         1 <0>         0.0612
     32 H7          0.1910   -0.1364   -2.1398 H         1 <0>         0.0604
     33 H8          1.7408   -0.1202   -1.2645 H         1 <0>         0.0603
     34 H9          1.2661   -2.3884   -0.3821 H         1 <0>         0.0624
     35 H10        -0.2836   -2.4046   -1.2575 H         1 <0>         0.0696
     36 H11         0.9279   -2.1597   -3.4071 H         1 <0>         0.0681
     37 H12         2.4777   -2.1435   -2.5317 H         1 <0>         0.0742
     38 H13         0.7034   -4.2408   -5.1128 H         1 <0>         0.1222
     39 H14         2.0227   -5.0315   -7.0341 H         1 <0>         0.1280
     40 H15         4.3477   -5.7733   -6.7113 H         1 <0>         0.1304
     41 H16         4.0331   -4.9170   -2.5360 H         1 <0>         0.1325
     42 H17         5.8069   -7.1053   -6.0170 H         1 <0>         0.0897
     43 H18         6.3770   -5.4447   -6.3099 H         1 <0>         0.0896
     44 H19         7.4121   -6.2008   -3.1143 H         1 <0>         0.1477
     45 H20         9.6872   -6.8649   -2.4502 H         1 <0>         0.1428
     46 H21        11.9174   -7.7482   -3.1509 H         1 <0>         0.1320
     47 H22        13.3850   -8.5544   -4.9221 H         1 <0>         0.1298
     48 H23        12.5963   -8.6834   -7.2463 H         1 <0>         0.1322
     49 H24        10.3336   -8.0089   -7.8377 H         1 <0>         0.1368
     50 H25        -0.3217   -4.2610   -3.4411 H         1 <0>         0.3738
@<TRIPOS>BOND
     1    1    2 1
     2    1   27 1
     3    1   28 1
     4    1   29 1
     5    2    3 1
     6    2   30 1
     7    2   31 1
     8    3    4 1
     9    3   32 1
    10    3   33 1
    11    4    5 1
    12    4   34 1
    13    4   35 1
    14    5    6 1
    15    5   36 1
    16    5   37 1
    17    6    7 1
    18    6    8 1
    19    6   26 1
    20    8   13 ar
    21    8    9 ar
    22    9   10 ar
    23    9   38 1
    24   10   11 ar
    25   10   39 1
    26   11   12 ar
    27   11   40 1
    28   12   13 ar
    29   12   14 1
    30   13   41 1
    31   14   15 1
    32   15   16 1
    33   15   42 1
    34   15   43 1
    35   16   25 ar
    36   16   17 ar
    37   17   18 ar
    38   17   44 1
    39   18   19 ar
    40   18   45 1
    41   19   24 ar
    42   19   20 ar
    43   20   21 ar
    44   20   46 1
    45   21   22 ar
    46   21   47 1
    47   22   23 ar
    48   22   48 1
    49   23   24 ar
    50   23   49 1
    51   24   25 ar
    52   26   50 1
@<TRIPOS>MOLECULE
ZINC03873889
   50    52     0     0     0
SMALL
USER_CHARGES

@<TRIPOS>ATOM
      1 C1         -0.0187    1.5258    0.0104 C.3       1 <0>        -0.1544
      2 C2          0.0021   -0.0041    0.0020 C.3       1 <0>        -0.1257
      3 C3          0.7182   -0.4975   -1.2568 C.3       1 <0>        -0.1208
      4 C4          0.7390   -2.0273   -1.2652 C.3       1 <0>        -0.1172
      5 C5          1.4551   -2.5207   -2.5240 C.3       1 <0>        -0.1457
      6 C6          1.4758   -4.0506   -2.5324 C.3       1 <0>         0.1475
      7 H1          0.4580   -4.4283   -2.4352 H         1 <0>         0.1097
      8 C7          2.0707   -4.5378   -3.8285 C.ar      1 <0>        -0.0766
      9 C8          3.4425   -4.6557   -3.9578 C.ar      1 <0>        -0.1489
     10 C9          3.9913   -5.1023   -5.1454 C.ar      1 <0>        -0.0735
     11 C10         3.1701   -5.4316   -6.2066 C.ar      1 <0>        -0.2080
     12 C11         1.7938   -5.3142   -6.0794 C.ar      1 <0>         0.1354
     13 C12         1.2451   -4.8715   -4.8843 C.ar      1 <0>        -0.1412
     14 O1          0.9839   -5.6376   -7.1217 O.3       1 <0>        -0.3117
     15 C13         1.6178   -6.0917   -8.3192 C.3       1 <0>         0.1119
     16 C14         0.5691   -6.4007   -9.3565 C.ar      1 <0>         0.1586
     17 C15        -0.7745   -6.2123   -9.0396 C.ar      1 <0>        -0.1549
     18 C16        -1.7386   -6.4871   -9.9671 C.ar      1 <0>        -0.0547
     19 C17        -1.3307   -6.9582  -11.2294 C.ar      1 <0>        -0.1030
     20 C18        -2.2645   -7.2613  -12.2334 C.ar      1 <0>        -0.0960
     21 C19        -1.8302   -7.7142  -13.4416 C.ar      1 <0>        -0.1145
     22 C20        -0.4702   -7.8813  -13.6957 C.ar      1 <0>        -0.0987
     23 C21         0.4617   -7.5977  -12.7456 C.ar      1 <0>        -0.0932
     24 C22         0.0525   -7.1272  -11.4855 C.ar      1 <0>         0.1322
     25 N1          0.9456   -6.8345  -10.5348 N.ar      1 <0>        -0.4701
     26 O2          2.2655   -4.5223   -1.4388 O.3       1 <0>        -0.5514
     27 H2          1.0039    1.9031    0.0027 H         1 <0>         0.0532
     28 H3         -0.5459    1.8868   -0.8726 H         1 <0>         0.0531
     29 H4         -0.5289    1.8773    0.9072 H         1 <0>         0.0537
     30 H5          0.5293   -0.3651    0.8851 H         1 <0>         0.0612
     31 H6         -1.0205   -0.3814    0.0098 H         1 <0>         0.0608
     32 H7          0.1910   -0.1364   -2.1398 H         1 <0>         0.0603
     33 H8          1.7408   -0.1202   -1.2645 H         1 <0>         0.0604
     34 H9          1.2661   -2.3884   -0.3821 H         1 <0>         0.0697
     35 H10        -0.2836   -2.4046   -1.2575 H         1 <0>         0.0625
     36 H11         0.9279   -2.1597   -3.4071 H         1 <0>         0.0743
     37 H12         2.4777   -2.1435   -2.5317 H         1 <0>         0.0681
     38 H13         4.0862   -4.3981   -3.1297 H         1 <0>         0.1225
     39 H14         5.0630   -5.1935   -5.2440 H         1 <0>         0.1280
     40 H15         3.5994   -5.7798   -7.1344 H         1 <0>         0.1304
     41 H16         0.1737   -4.7838   -4.7812 H         1 <0>         0.1324
     42 H17         2.2830   -5.3146   -8.6954 H         1 <0>         0.0896
     43 H18         2.1944   -6.9918   -8.1062 H         1 <0>         0.0898
     44 H19        -1.0534   -5.8497   -8.0612 H         1 <0>         0.1477
     45 H20        -2.7848   -6.3472   -9.7384 H         1 <0>         0.1428
     46 H21        -3.3211   -7.1361  -12.0481 H         1 <0>         0.1320
     47 H22        -2.5491   -7.9474  -14.2130 H         1 <0>         0.1298
     48 H23        -0.1508   -8.2421  -14.6622 H         1 <0>         0.1322
     49 H24         1.5118   -7.7334  -12.9588 H         1 <0>         0.1368
     50 H25         3.1852   -4.2243   -1.4604 H         1 <0>         0.3738
@<TRIPOS>BOND
     1    1    2 1
     2    1   27 1
     3    1   28 1
     4    1   29 1
     5    2    3 1
     6    2   30 1
     7    2   31 1
     8    3    4 1
     9    3   32 1
    10    3   33 1
    11    4    5 1
    12    4   34 1
    13    4   35 1
    14    5    6 1
    15    5   36 1
    16    5   37 1
    17    6    7 1
    18    6    8 1
    19    6   26 1
    20    8   13 ar
    21    8    9 ar
    22    9   10 ar
    23    9   38 1
    24   10   11 ar
    25   10   39 1
    26   11   12 ar
    27   11   40 1
    28   12   13 ar
    29   12   14 1
    30   13   41 1
    31   14   15 1
    32   15   16 1
    33   15   42 1
    34   15   43 1
    35   16   25 ar
    36   16   17 ar
    37   17   18 ar
    38   17   44 1
    39   18   19 ar
    40   18   45 1
    41   19   24 ar
    42   19   20 ar
    43   20   21 ar
    44   20   46 1
    45   21   22 ar
    46   21   47 1
    47   22   23 ar
    48   22   48 1
    49   23   24 ar
    50   23   49 1
    51   24   25 ar
    52   26   50 1
@<TRIPOS>MOLECULE
ZINC26732938
   78    81     0     0     0
SMALL
USER_CHARGES
4-[(1R)-1-[3-[(E)-2-(7-chloro-2-quinolyl)vinyl]phenyl]-3-[2-(1-hydroxy-1-methyl-ethyl)phenyl]propyl]sulfanyl-3,3-dimethyl-butanoic acid
@<TRIPOS>ATOM
      1 C1         -7.7225    1.6821    4.1803 C.3       1 <0>        -0.1484
      2 C2         -6.5023    0.7597    4.2136 C.3       1 <0>        -0.0222
      3 C3         -6.9616   -0.6869    4.4069 C.3       1 <0>        -0.1471
      4 C4         -5.5889    1.1639    5.3726 C.3       1 <0>        -0.1474
      5 C5         -6.3435    1.0457    6.6717 C.2       1 <0>         0.4661
      6 O1         -7.4938    0.6762    6.6707 O.co2     1 <0>        -0.6269
      7 O2         -5.7376    1.3511    7.8299 O.co2     1 <0>        -0.7768
      8 C6         -5.7362    0.8796    2.8947 C.3       1 <0>        -0.0844
      9 S1         -6.8192    0.4004    1.5206 S.3       1 <0>        -0.1844
     10 C7         -5.7748    0.5952    0.0502 C.3       1 <0>        -0.0350
     11 H1         -5.2770    1.5591   -0.1316 H         1 <0>         0.0839
     12 C8         -6.6100    0.3394   -1.2060 C.3       1 <0>        -0.0799
     13 C9         -7.6884    1.4176   -1.3297 C.3       1 <0>        -0.0880
     14 C10        -8.4272    1.2421   -2.6314 C.ar      1 <0>        -0.0495
     15 C11        -7.9023    1.7623   -3.7998 C.ar      1 <0>        -0.1244
     16 C12        -8.5775    1.5971   -4.9945 C.ar      1 <0>        -0.1184
     17 C13        -9.7830    0.9207   -5.0193 C.ar      1 <0>        -0.1310
     18 C14       -10.3104    0.4052   -3.8503 C.ar      1 <0>        -0.1139
     19 C15        -9.6324    0.5659   -2.6562 C.ar      1 <0>        -0.0685
     20 C16       -10.2076    0.0042   -1.3816 C.3       1 <0>         0.1811
     21 C17       -10.7454    1.1468   -0.5178 C.3       1 <0>        -0.1818
     22 C18       -11.3465   -0.9607   -1.7178 C.3       1 <0>        -0.1793
     23 O3         -9.1871   -0.6945   -0.6658 O.3       1 <0>        -0.5686
     24 C19        -4.6378   -0.3923    0.1072 C.ar      1 <0>        -0.0813
     25 C20        -4.9040   -1.7498    0.1516 C.ar      1 <0>        -0.0806
     26 C21        -3.8667   -2.6639    0.2046 C.ar      1 <0>        -0.1218
     27 C22        -2.5581   -2.2278    0.2067 C.ar      1 <0>        -0.1062
     28 C23        -2.2816   -0.8586    0.1674 C.ar      1 <0>        -0.0741
     29 C24        -3.3348    0.0589    0.1146 C.ar      1 <0>        -0.0934
     30 C25        -0.8865   -0.3845    0.1757 C.2       1 <0>        -0.0359
     31 C26         0.1235   -1.2694    0.2266 C.2       1 <0>        -0.1500
     32 C27         1.5173   -0.7960    0.2287 C.ar      1 <0>         0.2077
     33 C28         2.5638   -1.7359    0.2764 C.ar      1 <0>        -0.1584
     34 C29         3.8573   -1.3097    0.2784 C.ar      1 <0>        -0.0540
     35 C30         4.1052    0.0776    0.2318 C.ar      1 <0>        -0.1125
     36 C31         5.4147    0.5822    0.2316 C.ar      1 <0>        -0.0763
     37 C32         5.6188    1.9279    0.1864 C.ar      1 <0>        -0.1177
     38 C33         4.5427    2.8136    0.1402 C.ar      1 <0>        -0.0144
     39 C34         3.2588    2.3584    0.1386 C.ar      1 <0>        -0.0855
     40 C35         3.0088    0.9752    0.1849 C.ar      1 <0>         0.1482
     41 N1          1.7596    0.5032    0.1801 N.ar      1 <0>        -0.4757
     42 Cl1         4.8438    4.5223    0.0834 Cl        1 <0>        -0.0615
     43 H2         -7.3922    2.7221    4.0413 H         1 <0>         0.0344
     44 H3         -8.2733    1.5959    5.1286 H         1 <0>         0.0950
     45 H4         -8.3792    1.3915    3.3471 H         1 <0>         0.0480
     46 H5         -6.0843   -1.3500    4.4308 H         1 <0>         0.0344
     47 H6         -7.6183   -0.9775    3.5737 H         1 <0>         0.0478
     48 H7         -7.5124   -0.7731    5.3552 H         1 <0>         0.0947
     49 H8         -4.7116    0.5007    5.3965 H         1 <0>         0.0605
     50 H9         -5.2587    2.2039    5.2337 H         1 <0>         0.0605
     51 H10        -5.4059    1.9196    2.7558 H         1 <0>         0.0700
     52 H11        -4.8589    0.2164    2.9186 H         1 <0>         0.0719
     53 H12        -5.9585    0.3691   -2.0918 H         1 <0>         0.0590
     54 H13        -7.0866   -0.6494   -1.1344 H         1 <0>         0.0941
     55 H14        -8.3953    1.3270   -0.4918 H         1 <0>         0.1094
     56 H15        -7.2176    2.4115   -1.3064 H         1 <0>         0.0578
     57 H16        -6.9627    2.2946   -3.7797 H         1 <0>         0.1190
     58 H17        -8.1656    2.0003   -5.9078 H         1 <0>         0.1179
     59 H18       -10.3129    0.7955   -5.9520 H         1 <0>         0.1186
     60 H19       -11.2523   -0.1229   -3.8697 H         1 <0>         0.1239
     61 H20       -11.1653    0.7368    0.4126 H         1 <0>         0.0644
     62 H21       -11.5310    1.6846   -1.0688 H         1 <0>         0.0588
     63 H22        -9.9266    1.8405   -0.2761 H         1 <0>         0.0741
     64 H23       -11.7664   -1.3707   -0.7874 H         1 <0>         0.0613
     65 H24       -10.9598   -1.7822   -2.3388 H         1 <0>         0.0630
     66 H25       -12.1321   -0.4229   -2.2688 H         1 <0>         0.0625
     67 H26        -9.4205   -1.1754    0.2956 H         1 <0>         0.4051
     68 H27        -5.9266   -2.0973    0.1453 H         1 <0>         0.1310
     69 H28        -4.0821   -3.7216    0.2394 H         1 <0>         0.1236
     70 H29        -1.7493   -2.9426    0.2428 H         1 <0>         0.1230
     71 H30        -3.1286    1.1184    0.0792 H         1 <0>         0.1216
     72 H31        -0.6718    0.6938    0.1402 H         1 <0>         0.1368
     73 H32        -0.0913   -2.3475    0.2667 H         1 <0>         0.1371
     74 H33         2.3417   -2.7922    0.3118 H         1 <0>         0.1421
     75 H34         4.6729   -2.0167    0.3143 H         1 <0>         0.1428
     76 H35         6.2566   -0.0934    0.2667 H         1 <0>         0.1396
     77 H36         6.6274    2.3143    0.1866 H         1 <0>         0.1380
     78 H37         2.4361    3.0571    0.1018 H         1 <0>         0.1466
@<TRIPOS>BOND
     1    1    2 1
     2    1   43 1
     3    1   44 1
     4    1   45 1
     5    2    3 1
     6    2    4 1
     7    2    8 1
     8    3   46 1
     9    3   47 1
    10    3   48 1
    11    4    5 1
    12    4   49 1
    13    4   50 1
    14    5    6 2
    15    5    7 1
    16    8    9 1
    17    8   51 1
    18    8   52 1
    19    9   10 1
    20   10   11 1
    21   10   12 1
    22   10   24 1
    23   12   13 1
    24   12   53 1
    25   12   54 1
    26   13   14 1
    27   13   55 1
    28   13   56 1
    29   14   19 ar
    30   14   15 ar
    31   15   16 ar
    32   15   57 1
    33   16   17 ar
    34   16   58 1
    35   17   18 ar
    36   17   59 1
    37   18   19 ar
    38   18   60 1
    39   19   20 1
    40   20   21 1
    41   20   22 1
    42   20   23 1
    43   21   61 1
    44   21   62 1
    45   21   63 1
    46   22   64 1
    47   22   65 1
    48   22   66 1
    49   23   67 1
    50   24   29 ar
    51   24   25 ar
    52   25   26 ar
    53   25   68 1
    54   26   27 ar
    55   26   69 1
    56   27   28 ar
    57   27   70 1
    58   28   29 ar
    59   28   30 1
    60   29   71 1
    61   30   31 2
    62   30   72 1
    63   31   32 1
    64   31   73 1
    65   32   41 ar
    66   32   33 ar
    67   33   34 ar
    68   33   74 1
    69   34   35 ar
    70   34   75 1
    71   35   40 ar
    72   35   36 ar
    73   36   37 ar
    74   36   76 1
    75   37   38 ar
    76   37   77 1
    77   38   39 ar
    78   38   42 1
    79   39   40 ar
    80   39   78 1
    81   40   41 ar
