@<TRIPOS>MOLECULE
ZINC01530811
   44    44     0     0     0
SMALL
USER_CHARGES

@<TRIPOS>ATOM
      1 C1         -0.0187    1.5258    0.0104 C.3       1 <0>        -0.1552
      2 C2          0.0021   -0.0041    0.0020 C.3       1 <0>        -0.1218
      3 C3         -1.4333   -0.5336    0.0129 C.3       1 <0>        -0.1330
      4 C4         -1.4126   -2.0635    0.0045 C.3       1 <0>         0.1126
      5 N1         -2.7870   -2.5706    0.0149 N.pl3     1 <0>        -0.7283
      6 C5         -3.0224   -3.9406    0.0098 C.ar      1 <0>         0.2665
      7 C6         -1.9508   -4.8295    0.0006 C.ar      1 <0>        -0.2115
      8 C7         -2.1795   -6.1814   -0.0040 C.ar      1 <0>         0.0070
      9 C8         -3.4910   -6.6671    0.0005 C.ar      1 <0>        -0.2114
     10 C9         -4.5651   -5.7715    0.0097 C.ar      1 <0>        -0.0097
     11 C10        -4.3293   -4.4208    0.0197 C.ar      1 <0>        -0.2142
     12 C11        -3.7406   -8.1197   -0.0049 C.2       1 <0>         0.5244
     13 O1         -2.8063   -8.8967   -0.0133 O.2       1 <0>        -0.4985
     14 O2         -5.0049   -8.5861   -0.0005 O.3       1 <0>        -0.3704
     15 C12        -5.1729  -10.0052   -0.0062 C.3       1 <0>         0.0311
     16 C13        -6.6653  -10.3421   -0.0000 C.3       1 <0>        -0.0016
     17 N2         -7.2783   -9.8732   -1.2499 N.4       1 <0>        -0.3894
     18 C14        -6.7157  -10.6213   -2.3821 C.3       1 <0>        -0.0551
     19 C15        -8.7304  -10.0884   -1.1940 C.3       1 <0>        -0.0472
     20 H1          1.0039    1.9031    0.0027 H         1 <0>         0.0594
     21 H2         -0.5459    1.8868   -0.8726 H         1 <0>         0.0554
     22 H3         -0.5289    1.8773    0.9072 H         1 <0>         0.0556
     23 H4          0.5123   -0.3556   -0.8948 H         1 <0>         0.0660
     24 H5          0.5293   -0.3651    0.8851 H         1 <0>         0.0663
     25 H6         -1.9435   -0.1821    0.9097 H         1 <0>         0.0711
     26 H7         -1.9605   -0.1726   -0.8702 H         1 <0>         0.0709
     27 H8         -0.9024   -2.4150   -0.8923 H         1 <0>         0.0688
     28 H9         -0.8854   -2.4246    0.8875 H         1 <0>         0.0690
     29 H10        -3.5327   -1.9503    0.0253 H         1 <0>         0.4062
     30 H11        -0.9383   -4.4538   -0.0033 H         1 <0>         0.1354
     31 H12        -1.3478   -6.8704   -0.0115 H         1 <0>         0.1381
     32 H13        -5.5790   -6.1433    0.0133 H         1 <0>         0.1303
     33 H14        -5.1583   -3.7287    0.0309 H         1 <0>         0.1315
     34 H15        -4.7099  -10.4223   -0.9005 H         1 <0>         0.0927
     35 H16        -4.7007  -10.4305    0.8794 H         1 <0>         0.1143
     36 H17        -6.7938  -11.4211    0.0852 H         1 <0>         0.1503
     37 H18        -7.1452   -9.8510    0.8466 H         1 <0>         0.1433
     38 H19        -7.1706  -10.2734   -3.3095 H         1 <0>         0.1275
     39 H20        -5.6383  -10.4617   -2.4236 H         1 <0>         0.1218
     40 H21        -6.9208  -11.6841   -2.2531 H         1 <0>         0.1253
     41 H22        -9.1479   -9.5332   -0.3540 H         1 <0>         0.1249
     42 H23        -9.1853   -9.7404   -2.1214 H         1 <0>         0.1257
     43 H24        -8.9355  -11.1511   -1.0651 H         1 <0>         0.1232
     44 H25        -7.0885   -8.8894   -1.3693 H         1 <0>         0.4327
@<TRIPOS>BOND
     1    1    2 1
     2    1   20 1
     3    1   21 1
     4    1   22 1
     5    2    3 1
     6    2   23 1
     7    2   24 1
     8    3    4 1
     9    3   25 1
    10    3   26 1
    11    4    5 1
    12    4   27 1
    13    4   28 1
    14    5    6 1
    15    5   29 1
    16    6   11 ar
    17    6    7 ar
    18    7    8 ar
    19    7   30 1
    20    8    9 ar
    21    8   31 1
    22    9   10 ar
    23    9   12 1
    24   10   11 ar
    25   10   32 1
    26   11   33 1
    27   12   13 2
    28   12   14 1
    29   14   15 1
    30   15   16 1
    31   15   34 1
    32   15   35 1
    33   16   17 1
    34   16   36 1
    35   16   37 1
    36   17   18 1
    37   17   19 1
    38   17   44 1
    39   18   38 1
    40   18   39 1
    41   18   40 1
    42   19   41 1
    43   19   42 1
    44   19   43 1
