@<TRIPOS>MOLECULE
ZINC13468414
   59    62     0     0     0
SMALL
USER_CHARGES

@<TRIPOS>ATOM
      1 C1         -0.0137    1.3830    0.0067 C.ar      1 <0>        -0.1175
      2 C2          1.1739    2.0904   -0.0025 C.ar      1 <0>        -0.1202
      3 C3          2.3803    1.4156   -0.0177 C.ar      1 <0>        -0.1129
      4 C4          2.3990    0.0334   -0.0232 C.ar      1 <0>        -0.0791
      5 C5          1.2114   -0.6740   -0.0131 C.ar      1 <0>        -0.0906
      6 C6          0.0051    0.0008    0.0007 C.ar      1 <0>        -0.1231
      7 C7          3.7141   -0.7023   -0.0407 C.3       1 <0>         0.1688
      8 C8          4.0477   -1.1682    1.3531 C.ar      1 <0>        -0.0776
      9 C9          3.4598   -2.3127    1.8585 C.ar      1 <0>        -0.0896
     10 C10         3.7657   -2.7400    3.1371 C.ar      1 <0>        -0.1236
     11 C11         4.6600   -2.0233    3.9099 C.ar      1 <0>        -0.1181
     12 C12         5.2487   -0.8793    3.4042 C.ar      1 <0>        -0.1204
     13 C13         4.9459   -0.4543    2.1241 C.ar      1 <0>        -0.1134
     14 N1          3.6135   -1.8639   -0.9344 N.3       1 <0>        -0.5248
     15 C14         3.1892   -1.4572   -2.2806 C.3       1 <0>         0.0389
     16 C15         2.9218   -2.7060   -3.1274 C.3       1 <0>         0.1376
     17 N2          4.1156   -3.5641   -3.0843 N.am      1 <0>        -0.6315
     18 C16         4.6820   -3.9028   -1.7699 C.3       1 <0>         0.1193
     19 C17         4.8801   -2.6068   -0.9766 C.3       1 <0>         0.0404
     20 C18         4.6754   -4.0281   -4.2192 C.2       1 <0>         0.7087
     21 O1          4.1428   -3.8146   -5.2911 O.2       1 <0>        -0.5866
     22 N3          5.8255   -4.7287   -4.1657 N.am      1 <0>        -0.7440
     23 C19         6.4925   -5.1373   -5.4044 C.3       1 <0>         0.1641
     24 C20         5.8862   -6.4514   -5.9006 C.3       1 <0>        -0.1292
     25 C21         6.5828   -6.8781   -7.1943 C.3       1 <0>        -0.1177
     26 C22         8.0767   -7.0740   -6.9284 C.3       1 <0>        -0.1225
     27 C23         8.6830   -5.7598   -6.4322 C.3       1 <0>        -0.1158
     28 C24         7.9864   -5.3331   -5.1386 C.3       1 <0>        -0.1261
     29 H1         -0.9561    1.9102    0.0231 H         1 <0>         0.1208
     30 H2          1.1593    3.1703    0.0018 H         1 <0>         0.1215
     31 H3          3.3081    1.9682   -0.0256 H         1 <0>         0.1179
     32 H4          1.2261   -1.7539   -0.0181 H         1 <0>         0.1299
     33 H5         -0.9228   -0.5519    0.0082 H         1 <0>         0.1220
     34 H6          4.4987   -0.0355   -0.3984 H         1 <0>         0.0569
     35 H7          2.7611   -2.8727    1.2547 H         1 <0>         0.1299
     36 H8          3.3058   -3.6338    3.5322 H         1 <0>         0.1215
     37 H9          4.8985   -2.3568    4.9091 H         1 <0>         0.1204
     38 H10         5.9471   -0.3191    4.0081 H         1 <0>         0.1212
     39 H11         5.4087    0.4373    1.7275 H         1 <0>         0.1178
     40 H12         2.2780   -0.8631   -2.2108 H         1 <0>         0.0944
     41 H13         3.9760   -0.8636   -2.7462 H         1 <0>         0.0392
     42 H14         2.0670   -3.2473   -2.7219 H         1 <0>         0.0733
     43 H15         2.7183   -2.4133   -4.1575 H         1 <0>         0.0969
     44 H16         3.9964   -4.5591   -1.2339 H         1 <0>         0.0789
     45 H17         5.6422   -4.4014   -1.9024 H         1 <0>         0.0788
     46 H18         5.6434   -1.9973   -1.4603 H         1 <0>         0.0398
     47 H19         5.1952   -2.8466    0.0390 H         1 <0>         0.0923
     48 H20         6.2116   -4.9624   -3.3071 H         1 <0>         0.3932
     49 H21         6.3564   -4.3655   -6.1620 H         1 <0>         0.0863
     50 H22         6.0223   -7.2233   -5.1431 H         1 <0>         0.0612
     51 H23         4.8219   -6.3119   -6.0901 H         1 <0>         0.0690
     52 H24         6.1508   -7.8144   -7.5478 H         1 <0>         0.0648
     53 H25         6.4467   -6.1063   -7.9519 H         1 <0>         0.0645
     54 H26         8.2128   -7.8458   -6.1709 H         1 <0>         0.0624
     55 H27         8.5730   -7.3780   -7.8500 H         1 <0>         0.0642
     56 H28         9.7473   -5.8994   -6.2428 H         1 <0>         0.0675
     57 H29         8.5470   -4.9880   -7.1898 H         1 <0>         0.0655
     58 H30         8.4184   -4.3969   -4.7851 H         1 <0>         0.0673
     59 H31         8.1225   -6.1049   -4.3810 H         1 <0>         0.0671
@<TRIPOS>BOND
     1    1    6 ar
     2    1    2 ar
     3    1   29 1
     4    2    3 ar
     5    2   30 1
     6    3    4 ar
     7    3   31 1
     8    4    5 ar
     9    4    7 1
    10    5    6 ar
    11    5   32 1
    12    6   33 1
    13    7    8 1
    14    7   14 1
    15    7   34 1
    16    8   13 ar
    17    8    9 ar
    18    9   10 ar
    19    9   35 1
    20   10   11 ar
    21   10   36 1
    22   11   12 ar
    23   11   37 1
    24   12   13 ar
    25   12   38 1
    26   13   39 1
    27   14   19 1
    28   14   15 1
    29   15   16 1
    30   15   40 1
    31   15   41 1
    32   16   17 1
    33   16   42 1
    34   16   43 1
    35   17   18 1
    36   17   20 am
    37   18   19 1
    38   18   44 1
    39   18   45 1
    40   19   46 1
    41   19   47 1
    42   20   21 2
    43   20   22 am
    44   22   23 1
    45   22   48 1
    46   23   28 1
    47   23   24 1
    48   23   49 1
    49   24   25 1
    50   24   50 1
    51   24   51 1
    52   25   26 1
    53   25   52 1
    54   25   53 1
    55   26   27 1
    56   26   54 1
    57   26   55 1
    58   27   28 1
    59   27   56 1
    60   27   57 1
    61   28   58 1
    62   28   59 1
@<TRIPOS>MOLECULE
ZINC13468414
   60    63     0     0     0
SMALL
USER_CHARGES

@<TRIPOS>ATOM
      1 C1         -0.0139    1.3830    0.0067 C.ar      1 <0>        -0.0912
      2 C2          1.1736    2.0905   -0.0026 C.ar      1 <0>        -0.1032
      3 C3          2.3800    1.4158   -0.0178 C.ar      1 <0>        -0.0863
      4 C4          2.3989    0.0336   -0.0232 C.ar      1 <0>        -0.1333
      5 C5          1.2114   -0.6739   -0.0129 C.ar      1 <0>        -0.1215
      6 C6          0.0050    0.0008    0.0009 C.ar      1 <0>        -0.1018
      7 C7          3.7141   -0.7019   -0.0407 C.3       1 <0>         0.1333
      8 C8          4.0478   -1.1677    1.3531 C.ar      1 <0>        -0.1325
      9 C9          3.4601   -2.3121    1.8587 C.ar      1 <0>        -0.1223
     10 C10         3.7662   -2.7393    3.1373 C.ar      1 <0>        -0.1019
     11 C11         4.6605   -2.0223    3.9100 C.ar      1 <0>        -0.0918
     12 C12         5.2489   -0.8784    3.4040 C.ar      1 <0>        -0.1029
     13 C13         4.9461   -0.4536    2.1239 C.ar      1 <0>        -0.0866
     14 N1          3.6136   -1.8636   -0.9342 N.4       1 <0>        -0.3806
     15 C14         3.2778   -1.4089   -2.2894 C.3       1 <0>        -0.0236
     16 C15         3.0601   -2.6249   -3.1959 C.3       1 <0>         0.1104
     17 N2          4.2536   -3.4818   -3.1212 N.am      1 <0>        -0.6464
     18 C16         4.7583   -3.8530   -1.7902 C.3       1 <0>         0.0905
     19 C17         4.8958   -2.5790   -0.9501 C.3       1 <0>        -0.0233
     20 C18         4.8670   -3.9147   -4.2405 C.2       1 <0>         0.7115
     21 O1          4.3843   -3.6740   -5.3302 O.2       1 <0>        -0.5614
     22 N3          6.0154   -4.6145   -4.1519 N.am      1 <0>        -0.7352
     23 C19         6.7407   -4.9891   -5.3684 C.3       1 <0>         0.1608
     24 C20         6.1621   -6.2908   -5.9267 C.3       1 <0>        -0.1292
     25 C21         6.9195   -6.6821   -7.1972 C.3       1 <0>        -0.1191
     26 C22         8.4000   -6.8822   -6.8671 C.3       1 <0>        -0.1247
     27 C23         8.9786   -5.5805   -6.3089 C.3       1 <0>        -0.1173
     28 C24         8.2212   -5.1893   -5.0384 C.3       1 <0>        -0.1254
     29 H1         -0.9564    1.9101    0.0231 H         1 <0>         0.1365
     30 H2          1.1588    3.1704    0.0016 H         1 <0>         0.1377
     31 H3          3.3078    1.9686   -0.0259 H         1 <0>         0.1329
     32 H4          1.2261   -1.7538   -0.0178 H         1 <0>         0.1148
     33 H5         -0.9228   -0.5520    0.0085 H         1 <0>         0.1360
     34 H6          4.4986   -0.0351   -0.3986 H         1 <0>         0.1481
     35 H7          2.7614   -2.8722    1.2550 H         1 <0>         0.1148
     36 H8          3.3064   -3.6330    3.5326 H         1 <0>         0.1358
     37 H9          4.8991   -2.3557    4.9092 H         1 <0>         0.1364
     38 H10         5.9473   -0.3180    4.0079 H         1 <0>         0.1376
     39 H11         5.4087    0.4381    1.7273 H         1 <0>         0.1330
     40 H12         2.3664   -0.8119   -2.2571 H         1 <0>         0.1461
     41 H13         4.0948   -0.8040   -2.6827 H         1 <0>         0.1362
     42 H14         2.1871   -3.1827   -2.8571 H         1 <0>         0.0925
     43 H15         2.9108   -2.2937   -4.2235 H         1 <0>         0.1399
     44 H16         4.0567   -4.5348   -1.3095 H         1 <0>         0.0973
     45 H17         5.7316   -4.3338   -1.8885 H         1 <0>         0.1221
     46 H18         5.6639   -1.9387   -1.3839 H         1 <0>         0.1367
     47 H19         5.1766   -2.8443    0.0691 H         1 <0>         0.1455
     48 H20         6.3618   -4.8701   -3.2826 H         1 <0>         0.3933
     49 H21         6.6377   -4.1978   -6.1110 H         1 <0>         0.0913
     50 H22         6.2650   -7.0821   -5.1841 H         1 <0>         0.0632
     51 H23         5.1073   -6.1482   -6.1618 H         1 <0>         0.0686
     52 H24         6.5073   -7.6094   -7.5949 H         1 <0>         0.0687
     53 H25         6.8165   -5.8908   -7.9397 H         1 <0>         0.0662
     54 H26         8.5029   -7.6735   -6.1245 H         1 <0>         0.0638
     55 H27         8.9395   -7.1610   -7.7722 H         1 <0>         0.0685
     56 H28        10.0333   -5.7231   -6.0737 H         1 <0>         0.0713
     57 H29         8.8756   -4.7893   -7.0514 H         1 <0>         0.0672
     58 H30         8.6334   -4.2619   -4.6407 H         1 <0>         0.0678
     59 H31         8.3241   -5.9805   -4.2958 H         1 <0>         0.0686
     60 H32         2.8892   -2.4815   -0.6003 H         1 <0>         0.4164
@<TRIPOS>BOND
     1    1    6 ar
     2    1    2 ar
     3    1   29 1
     4    2    3 ar
     5    2   30 1
     6    3    4 ar
     7    3   31 1
     8    4    5 ar
     9    4    7 1
    10    5    6 ar
    11    5   32 1
    12    6   33 1
    13    7    8 1
    14    7   14 1
    15    7   34 1
    16    8   13 ar
    17    8    9 ar
    18    9   10 ar
    19    9   35 1
    20   10   11 ar
    21   10   36 1
    22   11   12 ar
    23   11   37 1
    24   12   13 ar
    25   12   38 1
    26   13   39 1
    27   14   19 1
    28   14   15 1
    29   14   60 1
    30   15   16 1
    31   15   40 1
    32   15   41 1
    33   16   17 1
    34   16   42 1
    35   16   43 1
    36   17   18 1
    37   17   20 am
    38   18   19 1
    39   18   44 1
    40   18   45 1
    41   19   46 1
    42   19   47 1
    43   20   21 2
    44   20   22 am
    45   22   23 1
    46   22   48 1
    47   23   28 1
    48   23   24 1
    49   23   49 1
    50   24   25 1
    51   24   50 1
    52   24   51 1
    53   25   26 1
    54   25   52 1
    55   25   53 1
    56   26   27 1
    57   26   54 1
    58   26   55 1
    59   27   28 1
    60   27   56 1
    61   27   57 1
    62   28   58 1
    63   28   59 1
@<TRIPOS>MOLECULE
ZINC19924797
   55    57     0     0     0
SMALL
USER_CHARGES

@<TRIPOS>ATOM
      1 C1          0.8395    1.5950   -0.7353 C.3       1 <0>        -0.1531
      2 C2          0.9225    0.0688   -0.8051 C.3       1 <0>        -0.1217
      3 C3          1.4364   -0.4755    0.5293 C.3       1 <0>        -0.1317
      4 C4          1.5195   -2.0017    0.4595 C.3       1 <0>         0.1357
      5 N1          2.0115   -2.5229    1.7371 N.am      1 <0>        -0.7482
      6 C5          2.1664   -3.8507    1.9085 C.2       1 <0>         0.7074
      7 O1          1.8137   -4.6214    1.0367 O.2       1 <0>        -0.5878
      8 N2          2.7123   -4.3242    3.0461 N.am      1 <0>        -0.6315
      9 C6          3.0395   -3.4207    4.1596 C.3       1 <0>         0.1191
     10 C7          4.4914   -3.6722    4.5801 C.3       1 <0>         0.0388
     11 N3          4.6745   -5.1015    4.8657 N.3       1 <0>        -0.5249
     12 C8          4.4503   -5.9178    3.6652 C.3       1 <0>         0.0406
     13 C9          2.9911   -5.7591    3.2095 C.3       1 <0>         0.1375
     14 C10         6.0035   -5.3583    5.4364 C.3       1 <0>         0.1687
     15 C11         6.1848   -4.5280    6.6809 C.ar      1 <0>        -0.0782
     16 C12         5.1247   -4.3421    7.5483 C.ar      1 <0>        -0.0916
     17 C13         5.2910   -3.5805    8.6898 C.ar      1 <0>        -0.1235
     18 C14         6.5176   -3.0051    8.9642 C.ar      1 <0>        -0.1181
     19 C15         7.5780   -3.1917    8.0972 C.ar      1 <0>        -0.1201
     20 C16         7.4129   -3.9569    6.9579 C.ar      1 <0>        -0.1128
     21 C17         6.1268   -6.8193    5.7849 C.ar      1 <0>        -0.0786
     22 C18         5.0731   -7.4763    6.3922 C.ar      1 <0>        -0.0886
     23 C19         5.1862   -8.8164    6.7119 C.ar      1 <0>        -0.1233
     24 C20         6.3529   -9.4996    6.4238 C.ar      1 <0>        -0.1174
     25 C21         7.4063   -8.8428    5.8156 C.ar      1 <0>        -0.1205
     26 C22         7.2916   -7.5038    5.4921 C.ar      1 <0>        -0.1133
     27 H1          1.8295    2.0038   -0.5332 H         1 <0>         0.0542
     28 H2          0.4734    1.9828   -1.6859 H         1 <0>         0.0568
     29 H3          0.1565    1.8856    0.0629 H         1 <0>         0.0546
     30 H4         -0.0675   -0.3400   -1.0072 H         1 <0>         0.0661
     31 H5          1.6055   -0.2218   -1.6033 H         1 <0>         0.0656
     32 H6          2.4264   -0.0667    0.7314 H         1 <0>         0.0680
     33 H7          0.7534   -0.1849    1.3275 H         1 <0>         0.0689
     34 H8          0.5295   -2.4105    0.2574 H         1 <0>         0.0674
     35 H9          2.2025   -2.2923   -0.3387 H         1 <0>         0.0650
     36 H10         2.2259   -1.9124    2.4598 H         1 <0>         0.3945
     37 H11         2.9258   -2.3858    3.8368 H         1 <0>         0.0788
     38 H12         2.3750   -3.6200    5.0003 H         1 <0>         0.0792
     39 H13         5.1607   -3.3739    3.7732 H         1 <0>         0.0398
     40 H14         4.7171   -3.0908    5.4741 H         1 <0>         0.0937
     41 H15         5.1202   -5.5882    2.8710 H         1 <0>         0.0399
     42 H16         4.6462   -6.9650    3.8956 H         1 <0>         0.0931
     43 H17         2.3220   -6.1789    3.9606 H         1 <0>         0.0743
     44 H18         2.8455   -6.2710    2.2582 H         1 <0>         0.0971
     45 H19         6.7693   -5.0927    4.7076 H         1 <0>         0.0569
     46 H20         4.1664   -4.7917    7.3340 H         1 <0>         0.1304
     47 H21         4.4626   -3.4347    9.3672 H         1 <0>         0.1217
     48 H22         6.6474   -2.4095    9.8557 H         1 <0>         0.1205
     49 H23         8.5362   -2.7419    8.3114 H         1 <0>         0.1214
     50 H24         8.2423   -4.1058    6.2824 H         1 <0>         0.1180
     51 H25         4.1616   -6.9425    6.6173 H         1 <0>         0.1291
     52 H26         4.3632   -9.3295    7.1870 H         1 <0>         0.1218
     53 H27         6.4415  -10.5464    6.6742 H         1 <0>         0.1207
     54 H28         8.3179   -9.3765    5.5909 H         1 <0>         0.1214
     55 H29         8.1132   -6.9915    5.0136 H         1 <0>         0.1178
@<TRIPOS>BOND
     1    1    2 1
     2    1   27 1
     3    1   28 1
     4    1   29 1
     5    2    3 1
     6    2   30 1
     7    2   31 1
     8    3    4 1
     9    3   32 1
    10    3   33 1
    11    4    5 1
    12    4   34 1
    13    4   35 1
    14    5    6 am
    15    5   36 1
    16    6    7 2
    17    6    8 am
    18    8   13 1
    19    8    9 1
    20    9   10 1
    21    9   37 1
    22    9   38 1
    23   10   11 1
    24   10   39 1
    25   10   40 1
    26   11   12 1
    27   11   14 1
    28   12   13 1
    29   12   41 1
    30   12   42 1
    31   13   43 1
    32   13   44 1
    33   14   15 1
    34   14   21 1
    35   14   45 1
    36   15   20 ar
    37   15   16 ar
    38   16   17 ar
    39   16   46 1
    40   17   18 ar
    41   17   47 1
    42   18   19 ar
    43   18   48 1
    44   19   20 ar
    45   19   49 1
    46   20   50 1
    47   21   26 ar
    48   21   22 ar
    49   22   23 ar
    50   22   51 1
    51   23   24 ar
    52   23   52 1
    53   24   25 ar
    54   24   53 1
    55   25   26 ar
    56   25   54 1
    57   26   55 1
@<TRIPOS>MOLECULE
ZINC19809854
   59    62     0     0     0
SMALL
USER_CHARGES
4-benzhydryl-N-cyclohexyl-piperazine-1-carbothioamide
@<TRIPOS>ATOM
      1 C1          9.2879    0.2299    0.4783 C.ar      1 <0>        -0.1168
      2 C2          9.2871    0.1832   -0.9033 C.ar      1 <0>        -0.1197
      3 C3          8.1296   -0.1471   -1.5829 C.ar      1 <0>        -0.1120
      4 C4          6.9728   -0.4303   -0.8811 C.ar      1 <0>        -0.0788
      5 C5          6.9722   -0.3781    0.5003 C.ar      1 <0>        -0.0909
      6 C6          8.1311   -0.0529    1.1802 C.ar      1 <0>        -0.1229
      7 C7          5.7108   -0.7900   -1.6221 C.3       1 <0>         0.1698
      8 C8          5.5816   -2.2897   -1.6956 C.ar      1 <0>        -0.0788
      9 C9          5.1669   -3.0029   -0.5864 C.ar      1 <0>        -0.0912
     10 C10         5.0437   -4.3780   -0.6553 C.ar      1 <0>        -0.1233
     11 C11         5.3448   -5.0409   -1.8304 C.ar      1 <0>        -0.1171
     12 C12         5.7650   -4.3283   -2.9379 C.ar      1 <0>        -0.1195
     13 C13         5.8832   -2.9526   -2.8705 C.ar      1 <0>        -0.1128
     14 N1          4.5511   -0.2328   -0.9133 N.3       1 <0>        -0.5283
     15 C14         4.6286    1.2327   -0.8475 C.3       1 <0>         0.0403
     16 C15         3.5042    1.7606    0.0498 C.3       1 <0>         0.1093
     17 N2          2.2248    1.2270   -0.4416 N.pl3     1 <0>        -0.5720
     18 C16         2.1130   -0.2235   -0.6582 C.3       1 <0>         0.1037
     19 C17         3.2940   -0.6726   -1.5332 C.3       1 <0>         0.0411
     20 C18         1.1807    2.0447   -0.6817 C.2       1 <0>         0.5726
     21 S1          1.3711    3.7402   -0.5401 S.2       1 <0>        -0.6554
     22 N3         -0.0132    1.5277   -1.0335 N.pl3     1 <0>        -0.6951
     23 C19        -1.1737    2.4074   -1.1940 C.3       1 <0>         0.1431
     24 C20        -1.8404    2.6254    0.1657 C.3       1 <0>        -0.1246
     25 C21        -3.0523    3.5441   -0.0019 C.3       1 <0>        -0.1158
     26 C22        -4.0527    2.8983   -0.9627 C.3       1 <0>        -0.1236
     27 C23        -3.3860    2.6803   -2.3225 C.3       1 <0>        -0.1153
     28 C24        -2.1741    1.7616   -2.1548 C.3       1 <0>        -0.1253
     29 H1         10.1923    0.4877    1.0093 H         1 <0>         0.1210
     30 H2         10.1908    0.4045   -1.4516 H         1 <0>         0.1218
     31 H3          8.1289   -0.1836   -2.6623 H         1 <0>         0.1179
     32 H4          6.0673   -0.5950    1.0485 H         1 <0>         0.1301
     33 H5          8.1316   -0.0160    2.2595 H         1 <0>         0.1220
     34 H6          5.7306   -0.3611   -2.6349 H         1 <0>         0.0586
     35 H7          4.9356   -2.4854    0.3328 H         1 <0>         0.1287
     36 H8          4.7158   -4.9348    0.2100 H         1 <0>         0.1220
     37 H9          5.2522   -6.1156   -1.8831 H         1 <0>         0.1212
     38 H10         6.0006   -4.8462   -3.8558 H         1 <0>         0.1221
     39 H11         6.2114   -2.3958   -3.7358 H         1 <0>         0.1187
     40 H12         5.6022    1.5300   -0.4306 H         1 <0>         0.0998
     41 H13         4.5195    1.6514   -1.8588 H         1 <0>         0.0440
     42 H14         3.6756    1.4304    1.0850 H         1 <0>         0.0843
     43 H15         3.4912    2.8599    0.0130 H         1 <0>         0.1326
     44 H16         2.1428   -0.7424    0.3113 H         1 <0>         0.0923
     45 H17         1.1621   -0.4465   -1.1643 H         1 <0>         0.0815
     46 H18         3.2024   -0.2251   -2.5339 H         1 <0>         0.0425
     47 H19         3.2921   -1.7691   -1.6204 H         1 <0>         0.0996
     48 H20        -0.1163    0.4453   -1.2001 H         1 <0>         0.4105
     49 H21        -0.8046    3.3601   -1.6016 H         1 <0>         0.1192
     50 H22        -2.1676    1.6574    0.5730 H         1 <0>         0.0579
     51 H23        -1.1212    3.0896    0.8565 H         1 <0>         0.0769
     52 H24        -3.5315    3.7008    0.9757 H         1 <0>         0.0662
     53 H25        -2.7251    4.5121   -0.4092 H         1 <0>         0.0696
     54 H26        -4.3798    1.9303   -0.5553 H         1 <0>         0.0613
     55 H27        -4.9241    3.5587   -1.0832 H         1 <0>         0.0659
     56 H28        -4.1053    2.2161   -3.0133 H         1 <0>         0.0684
     57 H29        -3.0588    3.6483   -2.7299 H         1 <0>         0.0690
     58 H30        -1.6948    1.6048   -3.1324 H         1 <0>         0.0679
     59 H31        -2.5013    0.7936   -1.7474 H         1 <0>         0.0658
@<TRIPOS>BOND
     1    1    6 ar
     2    1    2 ar
     3    1   29 1
     4    2    3 ar
     5    2   30 1
     6    3    4 ar
     7    3   31 1
     8    4    5 ar
     9    4    7 1
    10    5    6 ar
    11    5   32 1
    12    6   33 1
    13    7    8 1
    14    7   14 1
    15    7   34 1
    16    8   13 ar
    17    8    9 ar
    18    9   10 ar
    19    9   35 1
    20   10   11 ar
    21   10   36 1
    22   11   12 ar
    23   11   37 1
    24   12   13 ar
    25   12   38 1
    26   13   39 1
    27   14   19 1
    28   14   15 1
    29   15   16 1
    30   15   40 1
    31   15   41 1
    32   16   17 1
    33   16   42 1
    34   16   43 1
    35   17   18 1
    36   17   20 1
    37   18   19 1
    38   18   44 1
    39   18   45 1
    40   19   46 1
    41   19   47 1
    42   20   21 2
    43   20   22 1
    44   22   23 1
    45   22   48 1
    46   23   28 1
    47   23   24 1
    48   23   49 1
    49   24   25 1
    50   24   50 1
    51   24   51 1
    52   25   26 1
    53   25   52 1
    54   25   53 1
    55   26   27 1
    56   26   54 1
    57   26   55 1
    58   27   28 1
    59   27   56 1
    60   27   57 1
    61   28   58 1
    62   28   59 1
@<TRIPOS>MOLECULE
ZINC19834645
   57    60     0     0     0
SMALL
USER_CHARGES
(4-benzhydrylpiperazin-1-yl)-cyclohexyl-methanone
@<TRIPOS>ATOM
      1 C1         -7.3947    1.7182   -0.9698 C.ar      1 <0>        -0.1173
      2 C2         -7.0865    1.8582   -2.3101 C.ar      1 <0>        -0.1204
      3 C3         -5.8550    2.3601   -2.6874 C.ar      1 <0>        -0.1133
      4 C4         -4.9315    2.7216   -1.7245 C.ar      1 <0>        -0.0774
      5 C5         -5.2374    2.5762   -0.3843 C.ar      1 <0>        -0.0885
      6 C6         -6.4709    2.0792   -0.0069 C.ar      1 <0>        -0.1233
      7 C7         -3.5888    3.2684   -2.1358 C.3       1 <0>         0.1685
      8 C8         -3.5545    4.7546   -1.8887 C.ar      1 <0>        -0.0774
      9 C9         -3.3533    5.2381   -0.6094 C.ar      1 <0>        -0.0910
     10 C10        -3.3171    6.6014   -0.3835 C.ar      1 <0>        -0.1232
     11 C11        -3.4919    7.4811   -1.4354 C.ar      1 <0>        -0.1177
     12 C12        -3.6987    6.9976   -2.7138 C.ar      1 <0>        -0.1200
     13 C13        -3.7298    5.6343   -2.9405 C.ar      1 <0>        -0.1128
     14 N1         -2.5329    2.6167   -1.3494 N.3       1 <0>        -0.5268
     15 C14        -2.5519    1.1612   -1.5467 C.3       1 <0>         0.0414
     16 C15        -1.5624    0.5048   -0.5779 C.3       1 <0>         0.1157
     17 N2         -0.2469    1.1390   -0.7528 N.am      1 <0>        -0.6148
     18 C16        -0.1694    2.6068   -0.6990 C.3       1 <0>         0.1097
     19 C17        -1.2146    3.1806   -1.6688 C.3       1 <0>         0.0391
     20 C18         0.8589    0.3947   -0.9516 C.2       1 <0>         0.5198
     21 O1          0.7662   -0.8083   -1.0742 O.2       1 <0>        -0.5384
     22 C19         2.2100    1.0580   -1.0279 C.3       1 <0>        -0.1048
     23 C20         2.5061    1.4469   -2.4777 C.3       1 <0>        -0.1081
     24 C21         3.8777    2.1203   -2.5551 C.3       1 <0>        -0.1176
     25 C22         4.9511    1.1499   -2.0580 C.3       1 <0>        -0.1235
     26 C23         4.6550    0.7610   -0.6082 C.3       1 <0>        -0.1196
     27 C24         3.2833    0.0876   -0.5308 C.3       1 <0>        -0.1029
     28 H1         -8.3569    1.3264   -0.6751 H         1 <0>         0.1208
     29 H2         -7.8081    1.5758   -3.0625 H         1 <0>         0.1216
     30 H3         -5.6143    2.4695   -3.7346 H         1 <0>         0.1180
     31 H4         -4.5142    2.8545    0.3680 H         1 <0>         0.1282
     32 H5         -6.7115    1.9695    1.0402 H         1 <0>         0.1217
     33 H6         -3.4030    3.0567   -3.1991 H         1 <0>         0.0567
     34 H7         -3.2208    4.5507    0.2130 H         1 <0>         0.1294
     35 H8         -3.1559    6.9791    0.6153 H         1 <0>         0.1218
     36 H9         -3.4673    8.5462   -1.2583 H         1 <0>         0.1207
     37 H10        -3.8357    7.6849   -3.5355 H         1 <0>         0.1215
     38 H11        -3.8913    5.2565   -3.9393 H         1 <0>         0.1181
     39 H12        -3.5648    0.7782   -1.3536 H         1 <0>         0.0926
     40 H13        -2.2629    0.9277   -2.5820 H         1 <0>         0.0391
     41 H14        -1.9126    0.6458    0.4553 H         1 <0>         0.0756
     42 H15        -1.4927   -0.5707   -0.7978 H         1 <0>         0.0966
     43 H16        -0.3782    2.9477    0.3258 H         1 <0>         0.0788
     44 H17         0.8389    2.9319   -0.9952 H         1 <0>         0.0927
     45 H18        -0.9433    2.9165   -2.7016 H         1 <0>         0.0400
     46 H19        -1.2497    4.2754   -1.5674 H         1 <0>         0.0947
     47 H20         2.1968    1.9574   -0.3947 H         1 <0>         0.0914
     48 H21         2.5045    0.5447   -3.1070 H         1 <0>         0.0708
     49 H22         1.7344    2.1445   -2.8351 H         1 <0>         0.0641
     50 H23         4.0906    2.3999   -3.5975 H         1 <0>         0.0669
     51 H24         3.8793    3.0225   -1.9258 H         1 <0>         0.0646
     52 H25         4.9495    0.2477   -2.6873 H         1 <0>         0.0639
     53 H26         5.9373    1.6340   -2.1137 H         1 <0>         0.0643
     54 H27         5.4267    0.0633   -0.2508 H         1 <0>         0.0670
     55 H28         4.6566    1.6632    0.0211 H         1 <0>         0.0628
     56 H29         3.0704   -0.1920    0.5115 H         1 <0>         0.0644
     57 H30         3.2817   -0.8146   -1.1601 H         1 <0>         0.0758
@<TRIPOS>BOND
     1    1    6 ar
     2    1    2 ar
     3    1   28 1
     4    2    3 ar
     5    2   29 1
     6    3    4 ar
     7    3   30 1
     8    4    5 ar
     9    4    7 1
    10    5    6 ar
    11    5   31 1
    12    6   32 1
    13    7    8 1
    14    7   14 1
    15    7   33 1
    16    8   13 ar
    17    8    9 ar
    18    9   10 ar
    19    9   34 1
    20   10   11 ar
    21   10   35 1
    22   11   12 ar
    23   11   36 1
    24   12   13 ar
    25   12   37 1
    26   13   38 1
    27   14   19 1
    28   14   15 1
    29   15   16 1
    30   15   39 1
    31   15   40 1
    32   16   17 1
    33   16   41 1
    34   16   42 1
    35   17   18 1
    36   17   20 am
    37   18   19 1
    38   18   43 1
    39   18   44 1
    40   19   45 1
    41   19   46 1
    42   20   21 2
    43   20   22 1
    44   22   27 1
    45   22   23 1
    46   22   47 1
    47   23   24 1
    48   23   48 1
    49   23   49 1
    50   24   25 1
    51   24   50 1
    52   24   51 1
    53   25   26 1
    54   25   52 1
    55   25   53 1
    56   26   27 1
    57   26   54 1
    58   26   55 1
    59   27   56 1
    60   27   57 1
@<TRIPOS>MOLECULE
ZINC01540228
   51    54     0     0     0
SMALL
USER_CHARGES

@<TRIPOS>ATOM
      1 C1          0.4170    1.4732    0.0360 C.3       1 <0>        -0.0850
      2 C2          0.1935   -0.0170    0.0132 C.2       1 <0>        -0.1034
      3 C3          0.1739   -0.8345   -1.0823 C.2       1 <0>         0.0475
      4 N1         -0.0613   -2.1006   -0.6256 N.pl3     1 <0>        -0.2296
      5 N2         -0.1813   -2.0898    0.6532 N.2       1 <0>        -0.2348
      6 C4         -0.0338   -0.8645    1.1195 C.2       1 <0>        -0.0016
      7 C5         -0.0985   -0.4542    2.5368 C.2       1 <0>         0.6243
      8 O1          0.0512    0.7138    2.8390 O.2       1 <0>        -0.4953
      9 N3         -0.3236   -1.3747    3.4952 N.am      1 <0>        -0.5719
     10 N4         -0.3835   -0.9953    4.8060 N.3       1 <0>        -0.2924
     11 C6          0.7092   -1.5991    5.5791 C.3       1 <0>         0.0381
     12 C7          0.6976   -1.0401    7.0037 C.3       1 <0>        -0.1138
     13 C8         -0.6503   -1.3540    7.6589 C.3       1 <0>        -0.1252
     14 C9         -1.7740   -0.7554    6.8084 C.3       1 <0>        -0.1137
     15 C10        -1.6907   -1.3226    5.3895 C.3       1 <0>         0.0385
     16 C11        -0.1580   -3.2413   -1.4326 C.ar      1 <0>         0.1383
     17 C12        -0.9653   -3.2277   -2.5625 C.ar      1 <0>        -0.0784
     18 C13        -1.0587   -4.3534   -3.3568 C.ar      1 <0>        -0.0881
     19 C14        -0.3490   -5.4954   -3.0279 C.ar      1 <0>        -0.0132
     20 C15         0.4560   -5.5128   -1.9027 C.ar      1 <0>        -0.0912
     21 C16         0.5581   -4.3870   -1.1074 C.ar      1 <0>        -0.0121
     22 Cl1         1.5741   -4.4064    0.3001 Cl        1 <0>        -0.0235
     23 Cl2        -0.4696   -6.9086   -4.0289 Cl        1 <0>        -0.0385
     24 C17         0.3696   -0.4268   -2.4910 C.ar      1 <0>        -0.0243
     25 C18        -0.4173    0.5843   -3.0431 C.ar      1 <0>        -0.0792
     26 C19        -0.2304    0.9603   -4.3572 C.ar      1 <0>        -0.1055
     27 C20         0.7359    0.3363   -5.1279 C.ar      1 <0>        -0.0237
     28 C21         1.5198   -0.6678   -4.5852 C.ar      1 <0>        -0.1047
     29 C22         1.3457   -1.0481   -3.2706 C.ar      1 <0>        -0.0846
     30 Cl3         0.9651    0.8142   -6.7810 Cl        1 <0>        -0.0608
     31 H1          1.4830    1.6792    0.1325 H         1 <0>         0.0742
     32 H2          0.0448    1.9106   -0.8905 H         1 <0>         0.0668
     33 H3         -0.1151    1.9075    0.8823 H         1 <0>         0.0894
     34 H4         -0.4431   -2.3066    3.2541 H         1 <0>         0.3863
     35 H5          0.5763   -2.6805    5.6122 H         1 <0>         0.0400
     36 H6          1.6623   -1.3649    5.1049 H         1 <0>         0.0813
     37 H7          1.4991   -1.5002    7.5817 H         1 <0>         0.0737
     38 H8          0.8443    0.0395    6.9722 H         1 <0>         0.0774
     39 H9         -0.7801   -2.4342    7.7259 H         1 <0>         0.0604
     40 H10        -0.6793   -0.9200    8.6584 H         1 <0>         0.0702
     41 H11        -2.7384   -1.0119    7.2468 H         1 <0>         0.0741
     42 H12        -1.6662    0.3287    6.7738 H         1 <0>         0.0774
     43 H13        -2.4808   -0.8875    4.7774 H         1 <0>         0.0821
     44 H14        -1.8124   -2.4053    5.4234 H         1 <0>         0.0406
     45 H15        -1.5200   -2.3374   -2.8196 H         1 <0>         0.1511
     46 H16        -1.6865   -4.3429   -4.2355 H         1 <0>         0.1550
     47 H17         1.0081   -6.4054   -1.6480 H         1 <0>         0.1575
     48 H18        -1.1716    1.0715   -2.4430 H         1 <0>         0.1405
     49 H19        -0.8392    1.7427   -4.7858 H         1 <0>         0.1417
     50 H20         2.2721   -1.1511   -5.1910 H         1 <0>         0.1392
     51 H21         1.9607   -1.8283   -2.8471 H         1 <0>         0.1290
@<TRIPOS>BOND
     1    1    2 1
     2    1   31 1
     3    1   32 1
     4    1   33 1
     5    2    6 1
     6    2    3 2
     7    3    4 1
     8    3   24 1
     9    4    5 1
    10    4   16 1
    11    5    6 2
    12    6    7 1
    13    7    8 2
    14    7    9 am
    15    9   10 1
    16    9   34 1
    17   10   15 1
    18   10   11 1
    19   11   12 1
    20   11   35 1
    21   11   36 1
    22   12   13 1
    23   12   37 1
    24   12   38 1
    25   13   14 1
    26   13   39 1
    27   13   40 1
    28   14   15 1
    29   14   41 1
    30   14   42 1
    31   15   43 1
    32   15   44 1
    33   16   21 ar
    34   16   17 ar
    35   17   18 ar
    36   17   45 1
    37   18   19 ar
    38   18   46 1
    39   19   20 ar
    40   19   23 1
    41   20   21 ar
    42   20   47 1
    43   21   22 1
    44   24   29 ar
    45   24   25 ar
    46   25   26 ar
    47   25   48 1
    48   26   27 ar
    49   26   49 1
    50   27   28 ar
    51   27   30 1
    52   28   29 ar
    53   28   50 1
    54   29   51 1
@<TRIPOS>MOLECULE
ZINC04654957
   64    63     0     0     0
SMALL
USER_CHARGES

@<TRIPOS>ATOM
      1 C1         -0.4451    2.1287    0.0861 C.3       1 <0>        -0.1543
      2 C2         -0.4043    0.6196   -0.1629 C.3       1 <0>        -0.1259
      3 C3         -1.7788    0.0165    0.1335 C.3       1 <0>        -0.1214
      4 C4         -1.7380   -1.4926   -0.1154 C.3       1 <0>        -0.1145
      5 C5         -3.1125   -2.0957    0.1810 C.3       1 <0>        -0.1025
      6 C6         -3.0723   -3.5821   -0.0643 C.2       1 <0>        -0.1585
      7 C7         -3.4782   -4.4106    0.8657 C.2       1 <0>        -0.1531
      8 C8         -4.1352   -3.8794    2.1136 C.3       1 <0>        -0.0834
      9 C9         -5.4655   -4.5598    2.3095 C.2       1 <0>        -0.1520
     10 C10        -5.7479   -5.1285    3.4552 C.2       1 <0>        -0.1516
     11 C11        -4.8158   -4.9643    4.6280 C.3       1 <0>        -0.0834
     12 C12        -5.5882   -4.4497    5.8153 C.2       1 <0>        -0.1534
     13 C13        -5.5275   -5.0828    6.9605 C.2       1 <0>        -0.1579
     14 C14        -4.5540   -6.2186    7.1430 C.3       1 <0>        -0.1030
     15 C15        -3.7006   -5.9640    8.3871 C.3       1 <0>        -0.1131
     16 C16        -2.7123   -7.1171    8.5724 C.3       1 <0>        -0.1208
     17 C17        -1.8589   -6.8625    9.8165 C.3       1 <0>        -0.1199
     18 C18        -0.8706   -8.0156   10.0018 C.3       1 <0>        -0.1050
     19 C19        -0.0172   -7.7610   11.2459 C.3       1 <0>        -0.1405
     20 C20         0.9563   -8.8968   11.4284 C.2       1 <0>         0.5101
     21 O1          0.9666   -9.8191   10.6408 O.2       1 <0>        -0.5411
     22 N1          1.8155   -8.8877   12.4667 N.am      1 <0>        -0.7287
     23 C21         2.7619   -9.9918   12.6441 C.3       1 <0>         0.1176
     24 C22         3.6152   -9.7372   13.8882 C.3       1 <0>         0.0628
     25 O2          2.7832   -9.7622   15.0497 O.3       1 <0>        -0.5723
     26 H1          0.5341    2.5584   -0.1250 H         1 <0>         0.0535
     27 H2         -1.1902    2.5845   -0.5659 H         1 <0>         0.0534
     28 H3         -0.7083    2.3183    1.1267 H         1 <0>         0.0533
     29 H4         -0.1410    0.4301   -1.2035 H         1 <0>         0.0606
     30 H5          0.3408    0.1638    0.4892 H         1 <0>         0.0605
     31 H6         -2.0420    0.2061    1.1742 H         1 <0>         0.0610
     32 H7         -2.5238    0.4723   -0.5185 H         1 <0>         0.0613
     33 H8         -1.4747   -1.6821   -1.1560 H         1 <0>         0.0616
     34 H9         -0.9929   -1.9484    0.5366 H         1 <0>         0.0620
     35 H10        -3.3757   -1.9061    1.2216 H         1 <0>         0.0756
     36 H11        -3.8575   -1.6399   -0.4711 H         1 <0>         0.0687
     37 H12        -2.7089   -3.9642   -1.0068 H         1 <0>         0.1088
     38 H13        -3.3419   -5.4743    0.7382 H         1 <0>         0.1086
     39 H14        -3.4955   -4.0777    2.9736 H         1 <0>         0.0829
     40 H15        -4.2878   -2.8047    2.0145 H         1 <0>         0.0838
     41 H16        -6.1861   -4.5784    1.5052 H         1 <0>         0.1095
     42 H17        -6.6487   -5.7151    3.5594 H         1 <0>         0.1096
     43 H18        -4.3693   -5.9275    4.8748 H         1 <0>         0.0840
     44 H19        -4.0296   -4.2546    4.3706 H         1 <0>         0.0826
     45 H20        -6.1917   -3.5589    5.7220 H         1 <0>         0.1082
     46 H21        -6.1751   -4.7907    7.7740 H         1 <0>         0.1087
     47 H22        -5.1034   -7.1521    7.2641 H         1 <0>         0.0690
     48 H23        -3.9083   -6.2879    6.2675 H         1 <0>         0.0757
     49 H24        -3.1512   -5.0304    8.2661 H         1 <0>         0.0618
     50 H25        -4.3463   -5.8946    9.2626 H         1 <0>         0.0617
     51 H26        -3.2617   -8.0507    8.6935 H         1 <0>         0.0629
     52 H27        -2.0666   -7.1864    7.6969 H         1 <0>         0.0625
     53 H28        -1.3095   -5.9289    9.6954 H         1 <0>         0.0621
     54 H29        -2.5046   -6.7932   10.6920 H         1 <0>         0.0624
     55 H30        -1.4200   -8.9492   10.1229 H         1 <0>         0.0696
     56 H31        -0.2249   -8.0849    9.1263 H         1 <0>         0.0694
     57 H32         0.5322   -6.8275   11.1248 H         1 <0>         0.0929
     58 H33        -0.6629   -7.6917   12.1214 H         1 <0>         0.0936
     59 H34         1.8073   -8.1500   13.0965 H         1 <0>         0.4035
     60 H35         2.2124  -10.9254   12.7651 H         1 <0>         0.0751
     61 H36         3.4075  -10.0612   11.7686 H         1 <0>         0.0823
     62 H37         4.3776  -10.5119   13.9706 H         1 <0>         0.0647
     63 H38         4.0954   -8.7622   13.8061 H         1 <0>         0.0540
     64 H39         3.2587   -9.6077   15.8775 H         1 <0>         0.3841
@<TRIPOS>BOND
     1    1    2 1
     2    1   26 1
     3    1   27 1
     4    1   28 1
     5    2    3 1
     6    2   29 1
     7    2   30 1
     8    3    4 1
     9    3   31 1
    10    3   32 1
    11    4    5 1
    12    4   33 1
    13    4   34 1
    14    5    6 1
    15    5   35 1
    16    5   36 1
    17    6    7 2
    18    6   37 1
    19    7    8 1
    20    7   38 1
    21    8    9 1
    22    8   39 1
    23    8   40 1
    24    9   10 2
    25    9   41 1
    26   10   11 1
    27   10   42 1
    28   11   12 1
    29   11   43 1
    30   11   44 1
    31   12   13 2
    32   12   45 1
    33   13   14 1
    34   13   46 1
    35   14   15 1
    36   14   47 1
    37   14   48 1
    38   15   16 1
    39   15   49 1
    40   15   50 1
    41   16   17 1
    42   16   51 1
    43   16   52 1
    44   17   18 1
    45   17   53 1
    46   17   54 1
    47   18   19 1
    48   18   55 1
    49   18   56 1
    50   19   20 1
    51   19   57 1
    52   19   58 1
    53   20   21 2
    54   20   22 am
    55   22   23 1
    56   22   59 1
    57   23   24 1
    58   23   60 1
    59   23   61 1
    60   24   25 1
    61   24   62 1
    62   24   63 1
    63   25   64 1
@<TRIPOS>MOLECULE
ZINC13162926
   33    35     0     0     0
SMALL
USER_CHARGES

@<TRIPOS>ATOM
      1 C1          2.1774    1.2743   -1.4506 C.ar      1 <0>        -0.1098
      2 C2          1.2569    1.9670   -0.6852 C.ar      1 <0>        -0.1277
      3 C3          0.3140    1.2803    0.0573 C.ar      1 <0>        -0.1685
      4 C4          0.2886   -0.1006    0.0368 C.ar      1 <0>        -0.1082
      5 C5          1.2112   -0.7992   -0.7311 C.ar      1 <0>         0.1593
      6 C6          2.1572   -0.1061   -1.4759 C.ar      1 <0>        -0.1131
      7 N1          1.1885   -2.1969   -0.7537 N.2       1 <0>        -0.5674
      8 C7          0.0353   -2.8685   -0.4428 C.2       1 <0>         0.4281
      9 N2         -1.1776   -2.3736   -0.2523 N.2       1 <0>        -0.7123
     10 C8         -2.2102   -3.1311    0.0439 C.2       1 <0>         0.5312
     11 O1         -3.3239   -2.6631    0.2169 O.2       1 <0>        -0.5291
     12 C9         -1.9466   -4.5866    0.1557 C.2       1 <0>        -0.1761
     13 C10        -2.7956   -5.6035    0.4436 C.2       1 <0>        -0.0249
     14 C11        -2.2746   -6.9652    0.6318 C.ar      1 <0>        -0.1065
     15 C12        -0.8939   -7.2140    0.5896 C.ar      1 <0>        -0.0663
     16 C13        -0.4569   -8.5129    0.7726 C.ar      1 <0>        -0.1655
     17 C14        -1.3850   -9.5166    0.9893 C.ar      1 <0>         0.0917
     18 N3         -2.6778   -9.2552    1.0238 N.ar      1 <0>        -0.4874
     19 C15        -3.1458   -8.0354    0.8618 C.ar      1 <0>         0.1162
     20 S1         -0.1951   -4.6235   -0.2045 S.3       1 <0>        -0.1065
     21 C16        -0.6866    2.0393    0.8902 C.3       1 <0>         0.5070
     22 F1         -0.4630    3.4132    0.7506 F         1 <0>        -0.1860
     23 F2         -1.9814    1.7313    0.4589 F         1 <0>        -0.1738
     24 F3         -0.5444    1.6778    2.2341 F         1 <0>        -0.1821
     25 H1          2.9099    1.8138   -2.0326 H         1 <0>         0.1242
     26 H2          1.2748    3.0467   -0.6672 H         1 <0>         0.1239
     27 H3         -0.4476   -0.6364    0.6175 H         1 <0>         0.1501
     28 H4          2.8761   -0.6464   -2.0740 H         1 <0>         0.1246
     29 H5         -3.8548   -5.4132    0.5348 H         1 <0>         0.1521
     30 H6         -0.1913   -6.4118    0.4183 H         1 <0>         0.1504
     31 H7          0.5982   -8.7421    0.7463 H         1 <0>         0.1371
     32 H8         -1.0449  -10.5316    1.1324 H         1 <0>         0.1546
     33 H9         -4.2107   -7.8604    0.9016 H         1 <0>         0.1606
@<TRIPOS>BOND
     1    1    6 ar
     2    1    2 ar
     3    1   25 1
     4    2    3 ar
     5    2   26 1
     6    3    4 ar
     7    3   21 1
     8    4    5 ar
     9    4   27 1
    10    5    6 ar
    11    5    7 1
    12    6   28 1
    13    7    8 1
    14    8   20 1
    15    8    9 2
    16    9   10 1
    17   10   11 2
    18   10   12 1
    19   12   13 2
    20   12   20 1
    21   13   14 1
    22   13   29 1
    23   14   19 ar
    24   14   15 ar
    25   15   16 ar
    26   15   30 1
    27   16   17 ar
    28   16   31 1
    29   17   18 ar
    30   17   32 1
    31   18   19 ar
    32   19   33 1
    33   21   22 1
    34   21   23 1
    35   21   24 1
@<TRIPOS>MOLECULE
ZINC00870366
   48    50     0     0     0
SMALL
USER_CHARGES
methyl 2-[dimethyl-(2-methylprop-2-enyl)-oxo-BLAHyl]sulfanylacetate
@<TRIPOS>ATOM
      1 C1         -2.6948    4.5270    5.9859 C.3       1 <0>        -0.1135
      2 C2         -3.8121    3.5431    6.2200 C.2       1 <0>        -0.1574
      3 C3         -4.9690    3.9607    6.6708 C.2       1 <0>        -0.1551
      4 C4         -3.5984    2.0787    5.9355 C.3       1 <0>         0.1143
      5 N1         -3.8519    1.8147    4.5170 N.am      1 <0>        -0.5039
      6 C5         -2.8194    1.9128    3.6471 C.2       1 <0>         0.5697
      7 O1         -1.6947    2.2122    4.0095 O.2       1 <0>        -0.5006
      8 C6         -3.1292    1.6435    2.2740 C.2       1 <0>        -0.2563
      9 C7         -2.2111    1.6781    1.1514 C.2       1 <0>        -0.0314
     10 C8         -2.7261    1.3873   -0.0674 C.2       1 <0>        -0.2309
     11 S1         -4.4431    1.0549    0.2213 S.3       1 <0>         0.1798
     12 C9         -4.4690    1.3062    1.9688 C.2       1 <0>         0.1046
     13 N2         -5.4375    1.2273    2.8724 N.2       1 <0>        -0.4808
     14 C10        -5.1155    1.4824    4.1335 C.2       1 <0>         0.3548
     15 S2         -6.3742    1.3869    5.3629 S.3       1 <0>         0.1033
     16 C11        -7.7878    0.9269    4.3303 C.3       1 <0>        -0.1375
     17 C12        -9.0150    0.7847    5.1933 C.2       1 <0>         0.4822
     18 O2         -8.9415    0.9749    6.3842 O.2       1 <0>        -0.4917
     19 O3        -10.1899    0.4468    4.6389 O.3       1 <0>        -0.3474
     20 C13       -11.3296    0.3279    5.5306 C.3       1 <0>         0.0352
     21 C14        -1.9761    1.3613   -1.3623 C.3       1 <0>         0.1475
     22 O4         -0.7055    1.9971   -1.1521 O.3       1 <0>        -0.3589
     23 C15        -0.0187    1.5258    0.0104 C.3       1 <0>         0.1088
     24 C16        -0.7301    2.0169    1.2742 C.3       1 <0>        -0.0786
     25 C17         0.0021   -0.0041    0.0020 C.3       1 <0>        -0.1813
     26 C18         1.4177    2.0527   -0.0005 C.3       1 <0>        -0.1384
     27 H1         -2.7508    4.9041    4.9648 H         1 <0>         0.0630
     28 H2         -2.7894    5.3573    6.6857 H         1 <0>         0.0673
     29 H3         -1.7362    4.0311    6.1380 H         1 <0>         0.0707
     30 H4         -5.7697    3.2556    6.8385 H         1 <0>         0.1091
     31 H5         -5.1221    5.0102    6.8747 H         1 <0>         0.1103
     32 H6         -4.2829    1.4868    6.5432 H         1 <0>         0.1045
     33 H7         -2.5708    1.8077    6.1775 H         1 <0>         0.1186
     34 H8         -7.9578    1.7005    3.5815 H         1 <0>         0.1461
     35 H9         -7.5814   -0.0209    3.8332 H         1 <0>         0.1453
     36 H10       -11.1274   -0.4387    6.2786 H         1 <0>         0.0681
     37 H11       -11.5038    1.2827    6.0269 H         1 <0>         0.0682
     38 H12       -12.2133    0.0507    4.9558 H         1 <0>         0.1084
     39 H13        -2.5374    1.9025   -2.1240 H         1 <0>         0.1122
     40 H14        -1.8239    0.3296   -1.6792 H         1 <0>         0.0790
     41 H15        -0.3127    1.5181    2.1489 H         1 <0>         0.0966
     42 H16        -0.6059    3.0955    1.3708 H         1 <0>         0.0891
     43 H17         0.5293   -0.3651    0.8851 H         1 <0>         0.0695
     44 H18        -1.0205   -0.3814    0.0098 H         1 <0>         0.0625
     45 H19         0.5123   -0.3556   -0.8948 H         1 <0>         0.0679
     46 H20         1.9272    1.7002   -0.8972 H         1 <0>         0.0675
     47 H21         1.4050    3.1426    0.0055 H         1 <0>         0.0661
     48 H22         1.9442    1.6906    0.8826 H         1 <0>         0.0741
@<TRIPOS>BOND
     1    1    2 1
     2    1   27 1
     3    1   28 1
     4    1   29 1
     5    2    3 2
     6    2    4 1
     7    3   30 1
     8    3   31 1
     9    4    5 1
    10    4   32 1
    11    4   33 1
    12    5   14 1
    13    5    6 am
    14    6    7 2
    15    6    8 1
    16    8   12 2
    17    8    9 1
    18    9   24 1
    19    9   10 2
    20   10   11 1
    21   10   21 1
    22   11   12 1
    23   12   13 1
    24   13   14 2
    25   14   15 1
    26   15   16 1
    27   16   17 1
    28   16   34 1
    29   16   35 1
    30   17   18 2
    31   17   19 1
    32   19   20 1
    33   20   36 1
    34   20   37 1
    35   20   38 1
    36   21   22 1
    37   21   39 1
    38   21   40 1
    39   22   23 1
    40   23   24 1
    41   23   25 1
    42   23   26 1
    43   24   41 1
    44   24   42 1
    45   25   43 1
    46   25   44 1
    47   25   45 1
    48   26   46 1
    49   26   47 1
    50   26   48 1
@<TRIPOS>MOLECULE
ZINC04654969
   65    64     0     0     0
SMALL
USER_CHARGES

@<TRIPOS>ATOM
      1 C1          0.6453    3.0200   -2.1184 C.3       1 <0>        -0.1543
      2 C2          0.9747    1.5406   -1.9090 C.3       1 <0>        -0.1259
      3 C3          1.2342    0.8791   -3.2640 C.3       1 <0>        -0.1214
      4 C4          1.5635   -0.6003   -3.0546 C.3       1 <0>        -0.1145
      5 C5          1.8231   -1.2617   -4.4095 C.3       1 <0>        -0.1025
      6 C6          2.1475   -2.7189   -4.2033 C.2       1 <0>        -0.1581
      7 C7          1.4879   -3.6368   -4.8654 C.2       1 <0>        -0.1535
      8 C8          0.5222   -3.2356   -5.9506 C.3       1 <0>        -0.0836
      9 C9          0.8663   -3.9645   -7.2239 C.2       1 <0>        -0.1510
     10 C10        -0.0571   -4.6399   -7.8620 C.2       1 <0>        -0.1522
     11 C11        -1.4947   -4.5556   -7.4178 C.3       1 <0>        -0.0839
     12 C12        -2.3604   -4.1684   -8.5889 C.2       1 <0>        -0.1512
     13 C13        -3.4010   -4.8991   -8.9041 C.2       1 <0>        -0.1518
     14 C14        -3.8363   -6.0212   -7.9973 C.3       1 <0>        -0.0844
     15 C15        -5.2963   -5.8582   -7.6615 C.2       1 <0>        -0.1497
     16 C16        -6.1304   -6.8470   -7.8682 C.2       1 <0>        -0.1584
     17 C17        -5.6088   -8.1980   -8.2850 C.3       1 <0>        -0.1014
     18 C18        -6.1669   -9.2713   -7.3483 C.3       1 <0>        -0.1031
     19 C19        -5.6374  -10.6430   -7.7715 C.3       1 <0>        -0.1141
     20 C20        -6.1871  -11.7002   -6.8489 C.2       1 <0>         0.4571
     21 O1         -6.9265  -11.3885   -5.9455 O.2       1 <0>        -0.5110
     22 O2         -5.8553  -12.9881   -7.0307 O.3       1 <0>        -0.3285
     23 C21        -6.4129  -13.9366   -6.1189 C.3       1 <0>         0.0878
     24 C22        -6.5853  -15.2827   -6.8253 C.3       1 <0>         0.0835
     25 O3         -5.3019  -15.8045   -7.1758 O.3       1 <0>        -0.5357
     26 C23        -5.4752  -14.1053   -4.9217 C.3       1 <0>         0.0625
     27 O4         -4.2428  -14.6810   -5.3594 O.3       1 <0>        -0.5356
     28 H1          1.4846    3.5132   -2.6087 H         1 <0>         0.0534
     29 H2         -0.2437    3.1095   -2.7426 H         1 <0>         0.0534
     30 H3          0.4604    3.4912   -1.1531 H         1 <0>         0.0535
     31 H4          1.8637    1.4511   -1.2847 H         1 <0>         0.0606
     32 H5          0.1353    1.0474   -1.4187 H         1 <0>         0.0605
     33 H6          0.3451    0.9686   -3.8882 H         1 <0>         0.0610
     34 H7          2.0735    1.3723   -3.7542 H         1 <0>         0.0613
     35 H8          2.4526   -0.6897   -2.4303 H         1 <0>         0.0616
     36 H9          0.7242   -1.0935   -2.5643 H         1 <0>         0.0619
     37 H10         0.9340   -1.1722   -5.0338 H         1 <0>         0.0756
     38 H11         2.6624   -0.7685   -4.8998 H         1 <0>         0.0688
     39 H12         2.9237   -3.0063   -3.5096 H         1 <0>         0.1088
     40 H13         1.6361   -4.6812   -4.6336 H         1 <0>         0.1086
     41 H14        -0.4926   -3.4932   -5.6473 H         1 <0>         0.0828
     42 H15         0.5897   -2.1606   -6.1177 H         1 <0>         0.0840
     43 H16         1.8742   -3.9300   -7.6103 H         1 <0>         0.1097
     44 H17         0.2118   -5.2572   -8.7064 H         1 <0>         0.1101
     45 H18        -1.8140   -5.5248   -7.0346 H         1 <0>         0.0834
     46 H19        -1.5889   -3.8055   -6.6326 H         1 <0>         0.0833
     47 H20        -2.1230   -3.2885   -9.1684 H         1 <0>         0.1099
     48 H21        -3.9470   -4.6972   -9.8138 H         1 <0>         0.1101
     49 H22        -3.6838   -6.9756   -8.5013 H         1 <0>         0.0841
     50 H23        -3.2476   -5.9965   -7.0803 H         1 <0>         0.0834
     51 H24        -5.6550   -4.9261   -7.2504 H         1 <0>         0.1098
     52 H25        -7.1917   -6.6940   -7.7398 H         1 <0>         0.1109
     53 H26        -5.9227   -8.4090   -9.3073 H         1 <0>         0.0734
     54 H27        -4.5201   -8.1995   -8.2316 H         1 <0>         0.0790
     55 H28        -5.8530   -9.0603   -6.3260 H         1 <0>         0.0730
     56 H29        -7.2556   -9.2698   -7.4017 H         1 <0>         0.0731
     57 H30        -5.9513  -10.8540   -8.7938 H         1 <0>         0.1072
     58 H31        -4.5487  -10.6445   -7.7181 H         1 <0>         0.1074
     59 H32        -7.3834  -13.5809   -5.7729 H         1 <0>         0.1075
     60 H33        -7.0916  -15.9807   -6.1586 H         1 <0>         0.0635
     61 H34        -7.1806  -15.1457   -7.7280 H         1 <0>         0.0524
     62 H35        -5.3348  -16.6585   -7.6283 H         1 <0>         0.3714
     63 H36        -5.2818  -13.1316   -4.4716 H         1 <0>         0.0474
     64 H37        -5.9408  -14.7601   -4.1850 H         1 <0>         0.0587
     65 H38        -3.5987  -14.8170   -4.6510 H         1 <0>         0.3703
@<TRIPOS>BOND
     1    1    2 1
     2    1   28 1
     3    1   29 1
     4    1   30 1
     5    2    3 1
     6    2   31 1
     7    2   32 1
     8    3    4 1
     9    3   33 1
    10    3   34 1
    11    4    5 1
    12    4   35 1
    13    4   36 1
    14    5    6 1
    15    5   37 1
    16    5   38 1
    17    6    7 2
    18    6   39 1
    19    7    8 1
    20    7   40 1
    21    8    9 1
    22    8   41 1
    23    8   42 1
    24    9   10 2
    25    9   43 1
    26   10   11 1
    27   10   44 1
    28   11   12 1
    29   11   45 1
    30   11   46 1
    31   12   13 2
    32   12   47 1
    33   13   14 1
    34   13   48 1
    35   14   15 1
    36   14   49 1
    37   14   50 1
    38   15   16 2
    39   15   51 1
    40   16   17 1
    41   16   52 1
    42   17   18 1
    43   17   53 1
    44   17   54 1
    45   18   19 1
    46   18   55 1
    47   18   56 1
    48   19   20 1
    49   19   57 1
    50   19   58 1
    51   20   21 2
    52   20   22 1
    53   22   23 1
    54   23   24 1
    55   23   26 1
    56   23   59 1
    57   24   25 1
    58   24   60 1
    59   24   61 1
    60   25   62 1
    61   26   27 1
    62   26   63 1
    63   26   64 1
    64   27   65 1
@<TRIPOS>MOLECULE
ZINC02022527
   54    55     0     0     0
SMALL
USER_CHARGES

@<TRIPOS>ATOM
      1 C1         -3.0730    2.2881   -4.2693 C.3       1 <0>        -0.1569
      2 C2         -2.3049    1.5870   -3.1471 C.3       1 <0>        -0.1270
      3 C3         -2.8110    2.0874   -1.7927 C.3       1 <0>        -0.1231
      4 C4         -2.0429    1.3862   -0.6705 C.3       1 <0>        -0.1174
      5 C5         -2.5490    1.8867    0.6839 C.3       1 <0>        -0.1006
      6 C6         -2.2117    3.3722    0.8391 C.3       1 <0>        -0.1451
      7 C7         -2.6658    3.8518    2.2196 C.3       1 <0>        -0.0114
      8 C8         -2.3347    1.6429    3.1595 C.3       1 <0>        -0.0001
      9 C9         -1.8707    1.0973    1.8070 C.3       1 <0>        -0.1442
     10 C10        -2.2939    3.5901    4.5974 C.3       1 <0>        -0.0052
     11 C11        -2.1583    5.1140    4.5919 C.3       1 <0>        -0.1459
     12 C12        -2.4764    5.6593    5.9856 C.3       1 <0>        -0.1543
     13 C13        -2.3428    7.1604    5.9803 C.2       1 <0>         0.3987
     14 O1         -2.0245    7.7371    4.9623 O.2       1 <0>        -0.4456
     15 C14        -2.5986    7.9263    7.2106 C.ar      1 <0>        -0.1885
     16 C15        -3.0878    7.2813    8.3513 C.ar      1 <0>        -0.0705
     17 C16        -3.3195    8.0047    9.5018 C.ar      1 <0>        -0.1389
     18 C17        -3.0801    9.3679    9.5265 C.ar      1 <0>        -0.0729
     19 C18        -2.6016   10.0143    8.4004 C.ar      1 <0>        -0.1345
     20 C19        -2.3594    9.3036    7.2436 C.ar      1 <0>        -0.0178
     21 C20        -1.8387   10.0095    6.0182 C.3       1 <0>        -0.1264
     22 H1         -4.1363    2.0676   -4.1746 H         1 <0>         0.0549
     23 H2         -2.9175    3.3647   -4.1985 H         1 <0>         0.0540
     24 H3         -2.7125    1.9316   -5.2342 H         1 <0>         0.0581
     25 H4         -1.2417    1.8075   -3.2417 H         1 <0>         0.0621
     26 H5         -2.4605    0.5104   -3.2179 H         1 <0>         0.0631
     27 H6         -3.8743    1.8669   -1.6981 H         1 <0>         0.0644
     28 H7         -2.6555    3.1639   -1.7219 H         1 <0>         0.0632
     29 H8         -2.1984    0.3097   -0.7413 H         1 <0>         0.0733
     30 H9         -0.9796    1.6067   -0.7651 H         1 <0>         0.0688
     31 H10        -3.6287    1.7492    0.7427 H         1 <0>         0.0884
     32 H11        -1.1354    3.5132    0.7407 H         1 <0>         0.0881
     33 H12        -2.7264    3.9447    0.0675 H         1 <0>         0.1133
     34 H13        -3.7442    3.7233    2.3122 H         1 <0>         0.1295
     35 H14        -2.4142    4.9057    2.3388 H         1 <0>         0.1342
     36 H15        -3.4146    1.5248    3.2476 H         1 <0>         0.1293
     37 H16        -1.8426    1.0924    3.9613 H         1 <0>         0.1282
     38 H17        -2.1418    0.0446    1.7270 H         1 <0>         0.1118
     39 H18        -0.7890    1.2025    1.7239 H         1 <0>         0.0880
     40 H19        -3.3133    3.3170    4.8704 H         1 <0>         0.1315
     41 H20        -1.5979    3.1659    5.3211 H         1 <0>         0.1302
     42 H21        -1.1389    5.3871    4.3190 H         1 <0>         0.0944
     43 H22        -2.8542    5.5382    3.8682 H         1 <0>         0.0968
     44 H23        -3.4115    5.4088    6.2361 H         1 <0>         0.0981
     45 H24        -1.7805    5.2352    6.7093 H         1 <0>         0.1100
     46 H25        -3.2793    6.2186    8.3321 H         1 <0>         0.1290
     47 H26        -3.6933    7.5074   10.3846 H         1 <0>         0.1322
     48 H27        -3.2682    9.9300   10.4293 H         1 <0>         0.1326
     49 H28        -2.4176   11.0782    8.4274 H         1 <0>         0.1332
     50 H29        -2.6709   10.2515    5.3572 H         1 <0>         0.0784
     51 H30        -1.3321   10.9277    6.3156 H         1 <0>         0.0652
     52 H31        -1.1365    9.3600    5.4956 H         1 <0>         0.0893
     53 N1         -1.9588    3.0696    3.2558 N.4       1 <0>        -0.3931
     54 H32        -0.9467    3.1581    3.1071 H         1 <0>         0.4272
@<TRIPOS>BOND
     1    1    2 1
     2    1   22 1
     3    1   23 1
     4    1   24 1
     5    2    3 1
     6    2   25 1
     7    2   26 1
     8    3    4 1
     9    3   27 1
    10    3   28 1
    11    4    5 1
    12    4   29 1
    13    4   30 1
    14    5    9 1
    15    5    6 1
    16    5   31 1
    17    6    7 1
    18    6   32 1
    19    6   33 1
    20    7   34 1
    21    7   35 1
    22    7   53 1
    23    8    9 1
    24    8   36 1
    25    8   37 1
    26    8   53 1
    27    9   38 1
    28    9   39 1
    29   10   11 1
    30   10   40 1
    31   10   41 1
    32   10   53 1
    33   11   12 1
    34   11   42 1
    35   11   43 1
    36   12   13 1
    37   12   44 1
    38   12   45 1
    39   13   14 2
    40   13   15 1
    41   15   20 ar
    42   15   16 ar
    43   16   17 ar
    44   16   46 1
    45   17   18 ar
    46   17   47 1
    47   18   19 ar
    48   18   48 1
    49   19   20 ar
    50   19   49 1
    51   20   21 1
    52   21   50 1
    53   21   51 1
    54   21   52 1
    55   53   54 1
@<TRIPOS>MOLECULE
ZINC03949401
   43    44     0     0     0
SMALL
USER_CHARGES

@<TRIPOS>ATOM
      1 C1         -0.0280    1.4371   -0.0849 C.ar      1 <0>        -0.0803
      2 C2          1.1697    2.1263   -0.0815 C.ar      1 <0>        -0.1174
      3 C3          2.3704    1.4329   -0.0243 C.ar      1 <0>         0.0980
      4 C4          2.3675    0.0471    0.0301 C.ar      1 <0>        -0.0881
      5 C5          1.1647   -0.6417    0.0270 C.ar      1 <0>         0.0816
      6 C6         -0.0335    0.0566   -0.0308 C.ar      1 <0>        -0.1267
      7 O1          1.1586   -1.9996    0.0797 O.3       1 <0>        -0.6561
      8 S1          1.1213   -2.5642    1.4926 S.o2      1 <0>         2.5920
      9 O2          1.3832   -3.9520    1.3356 O.2       1 <0>        -0.9134
     10 O3          2.0078   -1.7393    2.2362 O.2       1 <0>        -0.9409
     11 C7         -0.5856   -2.3097    2.0514 C.3       1 <0>        -0.6546
     12 C8         -0.7411   -2.8456    3.4760 C.3       1 <0>        -0.1169
     13 C9         -2.1808   -2.6310    3.9473 C.3       1 <0>        -0.1588
     14 C10        -2.3363   -3.1669    5.3720 C.3       1 <0>         0.4505
     15 F1         -1.4602   -2.4865    6.2244 F         1 <0>        -0.1813
     16 F2         -3.6527   -2.9707    5.8029 F         1 <0>        -0.1814
     17 F3         -2.0382   -4.5337    5.3912 F         1 <0>        -0.1808
     18 O4          3.5479    2.1110   -0.0219 O.3       1 <0>        -0.2390
     19 C11         3.8453    2.8672    1.0648 C.ar      1 <0>         0.1650
     20 C12         3.0257    2.8328    2.1828 C.ar      1 <0>        -0.1617
     21 C13         3.3293    3.6033    3.2879 C.ar      1 <0>        -0.0481
     22 C14         4.4521    4.4145    3.2896 C.ar      1 <0>        -0.0956
     23 C15         5.2782    4.4608    2.1874 C.ar      1 <0>        -0.1075
     24 C16         4.9858    3.6825    1.0646 C.ar      1 <0>         0.0016
     25 C17         5.8429    3.7216   -0.0819 C.1       1 <0>         0.2346
     26 N1          6.5228    3.7527   -0.9915 N.1       1 <0>        -0.3690
     27 C18         6.4980    5.3458    2.1952 C.3       1 <0>         0.5070
     28 F4          6.5797    6.0165    3.4203 F         1 <0>        -0.1667
     29 F5          7.6433    4.5628    2.0150 F         1 <0>        -0.1681
     30 F6          6.4034    6.2795    1.1578 F         1 <0>        -0.1686
     31 H1         -0.9615    1.9787   -0.1253 H         1 <0>         0.1545
     32 H2          1.1714    3.2055   -0.1238 H         1 <0>         0.1497
     33 H3          3.3009   -0.4945    0.0743 H         1 <0>         0.1557
     34 H4         -0.9709   -0.4798   -0.0335 H         1 <0>         0.1511
     35 H5         -0.8179   -1.2449    2.0364 H         1 <0>         0.1409
     36 H6         -1.2682   -2.8399    1.3873 H         1 <0>         0.1468
     37 H7         -0.5088   -3.9105    3.4910 H         1 <0>         0.0976
     38 H8         -0.0585   -2.3155    4.1402 H         1 <0>         0.0977
     39 H9         -2.4131   -1.5662    3.9324 H         1 <0>         0.1166
     40 H10        -2.8634   -3.1612    3.2832 H         1 <0>         0.1172
     41 H11         2.1484    2.2028    2.1891 H         1 <0>         0.1521
     42 H12         2.6873    3.5734    4.1559 H         1 <0>         0.1538
     43 H13         4.6810    5.0137    4.1585 H         1 <0>         0.1570
@<TRIPOS>BOND
     1    1    6 ar
     2    1    2 ar
     3    1   31 1
     4    2    3 ar
     5    2   32 1
     6    3    4 ar
     7    3   18 1
     8    4    5 ar
     9    4   33 1
    10    5    6 ar
    11    5    7 1
    12    6   34 1
    13    7    8 1
    14    8    9 2
    15    8   10 2
    16    8   11 1
    17   11   12 1
    18   11   35 1
    19   11   36 1
    20   12   13 1
    21   12   37 1
    22   12   38 1
    23   13   14 1
    24   13   39 1
    25   13   40 1
    26   14   15 1
    27   14   16 1
    28   14   17 1
    29   18   19 1
    30   19   24 ar
    31   19   20 ar
    32   20   21 ar
    33   20   41 1
    34   21   22 ar
    35   21   42 1
    36   22   23 ar
    37   22   43 1
    38   23   24 ar
    39   23   27 1
    40   24   25 1
    41   25   26 3
    42   27   28 1
    43   27   29 1
    44   27   30 1
@<TRIPOS>MOLECULE
ZINC03981490
   66    65     0     0     0
SMALL
USER_CHARGES

@<TRIPOS>ATOM
      1 C1          0.6453    3.0200   -2.1184 C.3       1 <0>        -0.1543
      2 C2          0.9747    1.5406   -1.9090 C.3       1 <0>        -0.1259
      3 C3          1.2342    0.8791   -3.2640 C.3       1 <0>        -0.1215
      4 C4          1.5635   -0.6003   -3.0546 C.3       1 <0>        -0.1144
      5 C5          1.8231   -1.2617   -4.4095 C.3       1 <0>        -0.1026
      6 C6          2.1475   -2.7189   -4.2033 C.2       1 <0>        -0.1582
      7 C7          1.4879   -3.6368   -4.8654 C.2       1 <0>        -0.1534
      8 C8          0.5222   -3.2356   -5.9506 C.3       1 <0>        -0.0834
      9 C9          0.8663   -3.9645   -7.2239 C.2       1 <0>        -0.1514
     10 C10        -0.0571   -4.6399   -7.8620 C.2       1 <0>        -0.1519
     11 C11        -1.4947   -4.5556   -7.4178 C.3       1 <0>        -0.0835
     12 C12        -2.3604   -4.1684   -8.5889 C.2       1 <0>        -0.1520
     13 C13        -3.4010   -4.8991   -8.9041 C.2       1 <0>        -0.1512
     14 C14        -3.8363   -6.0212   -7.9973 C.3       1 <0>        -0.0842
     15 C15        -5.2963   -5.8582   -7.6615 C.2       1 <0>        -0.1514
     16 C16        -6.1304   -6.8470   -7.8682 C.2       1 <0>        -0.1588
     17 C17        -5.6088   -8.1980   -8.2850 C.3       1 <0>        -0.1010
     18 C18        -6.1669   -9.2713   -7.3483 C.3       1 <0>        -0.1103
     19 C19        -5.6374  -10.6430   -7.7715 C.3       1 <0>        -0.1177
     20 C20        -6.1955  -11.7163   -6.8348 C.3       1 <0>         0.0561
     21 O1         -5.7009  -12.9974   -7.2301 O.3       1 <0>        -0.3615
     22 C21        -6.1646  -14.0761   -6.4155 C.3       1 <0>         0.0885
     23 C22        -7.4667  -14.6308   -6.9965 C.3       1 <0>         0.0583
     24 O2         -7.2085  -15.2086   -8.2777 O.3       1 <0>        -0.5325
     25 C23        -5.1080  -15.1822   -6.3842 C.3       1 <0>         0.0829
     26 O3         -4.9579  -15.7347   -7.6935 O.3       1 <0>        -0.5348
     27 H1          1.4846    3.5132   -2.6087 H         1 <0>         0.0534
     28 H2         -0.2437    3.1095   -2.7426 H         1 <0>         0.0534
     29 H3          0.4604    3.4912   -1.1531 H         1 <0>         0.0535
     30 H4          1.8637    1.4511   -1.2847 H         1 <0>         0.0606
     31 H5          0.1353    1.0474   -1.4187 H         1 <0>         0.0605
     32 H6          0.3451    0.9686   -3.8882 H         1 <0>         0.0610
     33 H7          2.0735    1.3723   -3.7542 H         1 <0>         0.0614
     34 H8          2.4526   -0.6897   -2.4303 H         1 <0>         0.0616
     35 H9          0.7242   -1.0935   -2.5643 H         1 <0>         0.0619
     36 H10         0.9340   -1.1722   -5.0338 H         1 <0>         0.0756
     37 H11         2.6624   -0.7685   -4.8998 H         1 <0>         0.0688
     38 H12         2.9237   -3.0063   -3.5096 H         1 <0>         0.1088
     39 H13         1.6361   -4.6812   -4.6336 H         1 <0>         0.1085
     40 H14        -0.4926   -3.4932   -5.6473 H         1 <0>         0.0828
     41 H15         0.5897   -2.1606   -6.1177 H         1 <0>         0.0840
     42 H16         1.8742   -3.9300   -7.6103 H         1 <0>         0.1097
     43 H17         0.2118   -5.2572   -8.7064 H         1 <0>         0.1101
     44 H18        -1.8140   -5.5248   -7.0346 H         1 <0>         0.0833
     45 H19        -1.5889   -3.8055   -6.6326 H         1 <0>         0.0832
     46 H20        -2.1230   -3.2885   -9.1684 H         1 <0>         0.1099
     47 H21        -3.9470   -4.6972   -9.8138 H         1 <0>         0.1099
     48 H22        -3.6838   -6.9756   -8.5013 H         1 <0>         0.0844
     49 H23        -3.2476   -5.9965   -7.0803 H         1 <0>         0.0830
     50 H24        -5.6550   -4.9261   -7.2504 H         1 <0>         0.1088
     51 H25        -7.1917   -6.6940   -7.7398 H         1 <0>         0.1094
     52 H26        -5.9227   -8.4090   -9.3073 H         1 <0>         0.0713
     53 H27        -4.5201   -8.1995   -8.2316 H         1 <0>         0.0775
     54 H28        -5.8530   -9.0603   -6.3260 H         1 <0>         0.0641
     55 H29        -7.2556   -9.2698   -7.4017 H         1 <0>         0.0638
     56 H30        -5.9513  -10.8540   -8.7938 H         1 <0>         0.0721
     57 H31        -4.5487  -10.6445   -7.7181 H         1 <0>         0.0707
     58 H32        -5.8816  -11.5053   -5.8125 H         1 <0>         0.0470
     59 H33        -7.2842  -11.7148   -6.8882 H         1 <0>         0.0459
     60 H34        -6.3433  -13.7156   -5.4024 H         1 <0>         0.0841
     61 H35        -7.8670  -15.3932   -6.3282 H         1 <0>         0.0482
     62 H36        -8.1909  -13.8230   -7.1015 H         1 <0>         0.0417
     63 H37        -7.9913  -15.5811   -8.7062 H         1 <0>         0.3662
     64 H38        -4.1561  -14.7663   -6.0540 H         1 <0>         0.0486
     65 H39        -5.4217  -15.9648   -5.6933 H         1 <0>         0.0535
     66 H40        -4.3023  -16.4435   -7.7485 H         1 <0>         0.3678
@<TRIPOS>BOND
     1    1    2 1
     2    1   27 1
     3    1   28 1
     4    1   29 1
     5    2    3 1
     6    2   30 1
     7    2   31 1
     8    3    4 1
     9    3   32 1
    10    3   33 1
    11    4    5 1
    12    4   34 1
    13    4   35 1
    14    5    6 1
    15    5   36 1
    16    5   37 1
    17    6    7 2
    18    6   38 1
    19    7    8 1
    20    7   39 1
    21    8    9 1
    22    8   40 1
    23    8   41 1
    24    9   10 2
    25    9   42 1
    26   10   11 1
    27   10   43 1
    28   11   12 1
    29   11   44 1
    30   11   45 1
    31   12   13 2
    32   12   46 1
    33   13   14 1
    34   13   47 1
    35   14   15 1
    36   14   48 1
    37   14   49 1
    38   15   16 2
    39   15   50 1
    40   16   17 1
    41   16   51 1
    42   17   18 1
    43   17   52 1
    44   17   53 1
    45   18   19 1
    46   18   54 1
    47   18   55 1
    48   19   20 1
    49   19   56 1
    50   19   57 1
    51   20   21 1
    52   20   58 1
    53   20   59 1
    54   21   22 1
    55   22   23 1
    56   22   25 1
    57   22   60 1
    58   23   24 1
    59   23   61 1
    60   23   62 1
    61   24   63 1
    62   25   26 1
    63   25   64 1
    64   25   65 1
    65   26   66 1
@<TRIPOS>MOLECULE
ZINC13675373
   61    60     0     0     0
SMALL
USER_CHARGES

@<TRIPOS>ATOM
      1 C1          0.6453    3.0200   -2.1184 C.3       1 <0>        -0.1543
      2 C2          0.9747    1.5406   -1.9090 C.3       1 <0>        -0.1260
      3 C3          1.2342    0.8791   -3.2640 C.3       1 <0>        -0.1214
      4 C4          1.5635   -0.6003   -3.0546 C.3       1 <0>        -0.1145
      5 C5          1.8231   -1.2617   -4.4095 C.3       1 <0>        -0.1026
      6 C6          2.1475   -2.7189   -4.2033 C.2       1 <0>        -0.1578
      7 C7          1.4879   -3.6368   -4.8654 C.2       1 <0>        -0.1537
      8 C8          0.5222   -3.2356   -5.9506 C.3       1 <0>        -0.0838
      9 C9          0.8663   -3.9645   -7.2239 C.2       1 <0>        -0.1506
     10 C10        -0.0571   -4.6399   -7.8620 C.2       1 <0>        -0.1525
     11 C11        -1.4947   -4.5556   -7.4178 C.3       1 <0>        -0.0838
     12 C12        -2.3604   -4.1684   -8.5889 C.2       1 <0>        -0.1514
     13 C13        -3.4010   -4.8991   -8.9041 C.2       1 <0>        -0.1519
     14 C14        -3.8363   -6.0212   -7.9973 C.3       1 <0>        -0.0833
     15 C15        -5.2963   -5.8582   -7.6615 C.2       1 <0>        -0.1517
     16 C16        -6.1304   -6.8470   -7.8682 C.2       1 <0>        -0.1574
     17 C17        -5.6088   -8.1980   -8.2850 C.3       1 <0>        -0.1016
     18 C18        -6.1669   -9.2713   -7.3483 C.3       1 <0>        -0.0995
     19 C19        -5.6374  -10.6430   -7.7715 C.3       1 <0>        -0.1402
     20 C20        -6.1871  -11.7002   -6.8489 C.2       1 <0>         0.5136
     21 O1         -6.9293  -11.3874   -5.9421 O.2       1 <0>        -0.5320
     22 N1         -5.8539  -12.9933   -7.0314 N.am      1 <0>        -0.7361
     23 C21        -6.3883  -14.0210   -6.1345 C.3       1 <0>         0.1079
     24 C22        -5.8588  -15.3927   -6.5577 C.3       1 <0>        -0.0498
     25 Cl1        -6.5164  -16.6575   -5.4539 Cl        1 <0>        -0.1588
     26 H1          1.4846    3.5132   -2.6087 H         1 <0>         0.0534
     27 H2         -0.2437    3.1095   -2.7426 H         1 <0>         0.0534
     28 H3          0.4604    3.4912   -1.1531 H         1 <0>         0.0536
     29 H4          1.8637    1.4511   -1.2847 H         1 <0>         0.0606
     30 H5          0.1353    1.0474   -1.4187 H         1 <0>         0.0606
     31 H6          0.3451    0.9686   -3.8882 H         1 <0>         0.0610
     32 H7          2.0735    1.3723   -3.7542 H         1 <0>         0.0613
     33 H8          2.4526   -0.6897   -2.4303 H         1 <0>         0.0617
     34 H9          0.7242   -1.0935   -2.5643 H         1 <0>         0.0620
     35 H10         0.9340   -1.1722   -5.0338 H         1 <0>         0.0756
     36 H11         2.6624   -0.7685   -4.8998 H         1 <0>         0.0688
     37 H12         2.9237   -3.0063   -3.5096 H         1 <0>         0.1089
     38 H13         1.6361   -4.6812   -4.6336 H         1 <0>         0.1085
     39 H14        -0.4926   -3.4932   -5.6473 H         1 <0>         0.0830
     40 H15         0.5897   -2.1606   -6.1177 H         1 <0>         0.0841
     41 H16         1.8742   -3.9300   -7.6103 H         1 <0>         0.1097
     42 H17         0.2118   -5.2572   -8.7064 H         1 <0>         0.1097
     43 H18        -1.8140   -5.5248   -7.0346 H         1 <0>         0.0833
     44 H19        -1.5889   -3.8055   -6.6326 H         1 <0>         0.0835
     45 H20        -2.1230   -3.2885   -9.1684 H         1 <0>         0.1098
     46 H21        -3.9470   -4.6972   -9.8138 H         1 <0>         0.1098
     47 H22        -3.6838   -6.9756   -8.5013 H         1 <0>         0.0834
     48 H23        -3.2476   -5.9965   -7.0803 H         1 <0>         0.0831
     49 H24        -5.6550   -4.9261   -7.2504 H         1 <0>         0.1094
     50 H25        -7.1917   -6.6940   -7.7398 H         1 <0>         0.1106
     51 H26        -5.9227   -8.4090   -9.3073 H         1 <0>         0.0707
     52 H27        -4.5201   -8.1995   -8.2316 H         1 <0>         0.0767
     53 H28        -5.8530   -9.0603   -6.3260 H         1 <0>         0.0716
     54 H29        -7.2556   -9.2698   -7.4017 H         1 <0>         0.0714
     55 H30        -5.9513  -10.8540   -8.7938 H         1 <0>         0.0956
     56 H31        -4.5487  -10.6445   -7.7181 H         1 <0>         0.0952
     57 H32        -5.2603  -13.2435   -7.7566 H         1 <0>         0.4022
     58 H33        -6.0744  -13.8100   -5.1122 H         1 <0>         0.0804
     59 H34        -7.4770  -14.0195   -6.1879 H         1 <0>         0.0805
     60 H35        -6.1727  -15.6037   -7.5800 H         1 <0>         0.1001
     61 H36        -4.7701  -15.3942   -6.5043 H         1 <0>         0.1001
@<TRIPOS>BOND
     1    1    2 1
     2    1   26 1
     3    1   27 1
     4    1   28 1
     5    2    3 1
     6    2   29 1
     7    2   30 1
     8    3    4 1
     9    3   31 1
    10    3   32 1
    11    4    5 1
    12    4   33 1
    13    4   34 1
    14    5    6 1
    15    5   35 1
    16    5   36 1
    17    6    7 2
    18    6   37 1
    19    7    8 1
    20    7   38 1
    21    8    9 1
    22    8   39 1
    23    8   40 1
    24    9   10 2
    25    9   41 1
    26   10   11 1
    27   10   42 1
    28   11   12 1
    29   11   43 1
    30   11   44 1
    31   12   13 2
    32   12   45 1
    33   13   14 1
    34   13   46 1
    35   14   15 1
    36   14   47 1
    37   14   48 1
    38   15   16 2
    39   15   49 1
    40   16   17 1
    41   16   50 1
    42   17   18 1
    43   17   51 1
    44   17   52 1
    45   18   19 1
    46   18   53 1
    47   18   54 1
    48   19   20 1
    49   19   55 1
    50   19   56 1
    51   20   21 2
    52   20   22 am
    53   22   23 1
    54   22   57 1
    55   23   24 1
    56   23   58 1
    57   23   59 1
    58   24   25 1
    59   24   60 1
    60   24   61 1
@<TRIPOS>MOLECULE
ZINC04533831
   55    54     0     0     0
SMALL
USER_CHARGES

@<TRIPOS>ATOM
      1 C1          1.4699    3.0103    1.6795 C.3       1 <0>        -0.1543
      2 C2          1.1470    1.5224    1.8304 C.3       1 <0>        -0.1260
      3 C3          2.2011    0.8593    2.7193 C.3       1 <0>        -0.1214
      4 C4          1.8782   -0.6286    2.8702 C.3       1 <0>        -0.1145
      5 C5          2.9323   -1.2916    3.7591 C.3       1 <0>        -0.1026
      6 C6          2.6142   -2.7572    3.9077 C.2       1 <0>        -0.1580
      7 C7          3.5316   -3.6560    3.6493 C.2       1 <0>        -0.1536
      8 C8          4.9477   -3.2268    3.3638 C.3       1 <0>        -0.0837
      9 C9          5.8898   -3.9597    4.2837 C.2       1 <0>        -0.1509
     10 C10         6.9144   -4.6095    3.7897 C.2       1 <0>        -0.1523
     11 C11         7.2468   -4.4906    2.3247 C.3       1 <0>        -0.0839
     12 C12         8.6877   -4.0777    2.1683 C.2       1 <0>        -0.1517
     13 C13         9.4920   -4.7809    1.4103 C.2       1 <0>        -0.1516
     14 C14         8.9417   -5.8950    0.5577 C.3       1 <0>        -0.0835
     15 C15         9.3779   -5.6965   -0.8711 C.2       1 <0>        -0.1522
     16 C16         9.9891   -6.6633   -1.5096 C.2       1 <0>        -0.1571
     17 C17        10.1105   -8.0256   -0.8767 C.3       1 <0>        -0.1019
     18 C18         9.5949   -9.0878   -1.8497 C.3       1 <0>        -0.1001
     19 C19         9.7182  -10.4708   -1.2070 C.3       1 <0>        -0.1434
     20 C20         9.2103  -11.5171   -2.1654 C.2       1 <0>         0.5138
     21 O1          8.7910  -11.1889   -3.2551 O.2       1 <0>        -0.5427
     22 N1          9.2220  -12.8175   -1.8115 N.am      1 <0>        -0.8593
     23 H1          2.4534    3.1242    1.2236 H         1 <0>         0.0534
     24 H2          0.7189    3.4826    1.0462 H         1 <0>         0.0535
     25 H3          1.4674    3.4840    2.6612 H         1 <0>         0.0534
     26 H4          0.1635    1.4084    2.2863 H         1 <0>         0.0605
     27 H5          1.1495    1.0487    0.8487 H         1 <0>         0.0606
     28 H6          3.1846    0.9733    2.2634 H         1 <0>         0.0610
     29 H7          2.1986    1.3330    3.7010 H         1 <0>         0.0613
     30 H8          0.8947   -0.7425    3.3261 H         1 <0>         0.0617
     31 H9          1.8807   -1.1023    1.8885 H         1 <0>         0.0620
     32 H10         3.9158   -1.1777    3.3032 H         1 <0>         0.0756
     33 H11         2.9298   -0.8179    4.7408 H         1 <0>         0.0688
     34 H12         1.6300   -3.0664    4.2272 H         1 <0>         0.1089
     35 H13         3.2730   -4.7045    3.6409 H         1 <0>         0.1085
     36 H14         5.1962   -3.4599    2.3284 H         1 <0>         0.0830
     37 H15         5.0419   -2.1533    3.5273 H         1 <0>         0.0841
     38 H16         5.7203   -3.9492    5.3503 H         1 <0>         0.1096
     39 H17         7.5209   -5.2304    4.4324 H         1 <0>         0.1098
     40 H18         7.0897   -5.4528    1.8372 H         1 <0>         0.0834
     41 H19         6.6022   -3.7411    1.8655 H         1 <0>         0.0834
     42 H20         9.0572   -3.2020    2.6812 H         1 <0>         0.1098
     43 H21        10.5496   -4.5623    1.3965 H         1 <0>         0.1098
     44 H22         9.3168   -6.8511    0.9226 H         1 <0>         0.0835
     45 H23         7.8529   -5.8882    0.6094 H         1 <0>         0.0830
     46 H24         9.1867   -4.7572   -1.3685 H         1 <0>         0.1094
     47 H25        10.4060   -6.4842   -2.4897 H         1 <0>         0.1106
     48 H26        11.1560   -8.2251   -0.6416 H         1 <0>         0.0707
     49 H27         9.5202   -8.0546    0.0392 H         1 <0>         0.0767
     50 H28         8.5494   -8.8883   -2.0848 H         1 <0>         0.0713
     51 H29        10.1852   -9.0588   -2.7655 H         1 <0>         0.0710
     52 H30        10.7637  -10.6704   -0.9719 H         1 <0>         0.0949
     53 H31         9.1279  -10.4999   -0.2912 H         1 <0>         0.0945
     54 H32         9.5574  -13.0800   -0.9400 H         1 <0>         0.4018
     55 H33         8.8951  -13.4910   -2.4284 H         1 <0>         0.4013
@<TRIPOS>BOND
     1    1    2 1
     2    1   23 1
     3    1   24 1
     4    1   25 1
     5    2    3 1
     6    2   26 1
     7    2   27 1
     8    3    4 1
     9    3   28 1
    10    3   29 1
    11    4    5 1
    12    4   30 1
    13    4   31 1
    14    5    6 1
    15    5   32 1
    16    5   33 1
    17    6    7 2
    18    6   34 1
    19    7    8 1
    20    7   35 1
    21    8    9 1
    22    8   36 1
    23    8   37 1
    24    9   10 2
    25    9   38 1
    26   10   11 1
    27   10   39 1
    28   11   12 1
    29   11   40 1
    30   11   41 1
    31   12   13 2
    32   12   42 1
    33   13   14 1
    34   13   43 1
    35   14   15 1
    36   14   44 1
    37   14   45 1
    38   15   16 2
    39   15   46 1
    40   16   17 1
    41   16   47 1
    42   17   18 1
    43   17   48 1
    44   17   49 1
    45   18   19 1
    46   18   50 1
    47   18   51 1
    48   19   20 1
    49   19   52 1
    50   19   53 1
    51   20   21 2
    52   20   22 am
    53   22   54 1
    54   22   55 1
@<TRIPOS>MOLECULE
ZINC27636674
   58    61     0     0     0
SMALL
USER_CHARGES
[2-methyl-1-[(1R)-1-methylhexyl]indol-3-yl]-(1-naphthyl)methanone
@<TRIPOS>ATOM
      1 C1         -0.7028    3.5436    1.3370 C.3       1 <0>        -0.1562
      2 C2         -0.6804    2.0138    1.3285 C.3       1 <0>        -0.1255
      3 C3          0.0213    1.5211    0.0613 C.3       1 <0>        -0.1209
      4 C4          0.0438   -0.0087    0.0528 C.3       1 <0>        -0.1182
      5 C5          0.7454   -0.5015   -1.2145 C.3       1 <0>        -0.1335
      6 C6          0.7679   -2.0313   -1.2229 C.3       1 <0>         0.1326
      7 H1          1.2630   -2.4165   -0.3193 H         1 <0>         0.1005
      8 C7         -0.6639   -2.5618   -1.3207 C.3       1 <0>        -0.1706
      9 N1          1.5427   -2.5019   -2.3738 N.pl3     1 <0>        -0.4645
     10 C8          2.6565   -3.2679   -2.2938 C.2       1 <0>         0.1350
     11 C9          3.1292   -3.5274   -3.5486 C.2       1 <0>        -0.2502
     12 C10         2.2133   -2.8533   -4.4873 C.ar      1 <0>        -0.0705
     13 C11         1.2368   -2.2319   -3.6921 C.ar      1 <0>         0.1010
     14 C12         0.2225   -1.5028   -4.3034 C.ar      1 <0>        -0.1239
     15 C13         0.1790   -1.4035   -5.6774 C.ar      1 <0>        -0.1013
     16 C14         1.1417   -2.0217   -6.4614 C.ar      1 <0>        -0.1365
     17 C15         2.1571   -2.7452   -5.8741 C.ar      1 <0>        -0.0768
     18 C16         4.3147   -4.3217   -3.8947 C.2       1 <0>         0.4845
     19 O1          5.3837   -3.7699   -4.0820 O.2       1 <0>        -0.4417
     20 C17         4.2106   -5.7879   -4.0155 C.ar      1 <0>        -0.1588
     21 C18         2.9779   -6.4215   -3.9204 C.ar      1 <0>        -0.0395
     22 C19         2.8827   -7.8015   -4.0345 C.ar      1 <0>        -0.1391
     23 C20         3.9786   -8.5823   -4.2415 C.ar      1 <0>        -0.0659
     24 C21         5.2569   -8.0093   -4.3481 C.ar      1 <0>        -0.0676
     25 C22         5.4009   -6.6040   -4.2436 C.ar      1 <0>        -0.0128
     26 C23         6.6737   -6.0295   -4.3443 C.ar      1 <0>        -0.1196
     27 C24         7.7588   -6.8283   -4.5511 C.ar      1 <0>        -0.1089
     28 C25         7.6201   -8.2101   -4.6588 C.ar      1 <0>        -0.1182
     29 C26         6.3979   -8.8020   -4.5612 C.ar      1 <0>        -0.1044
     30 C27         3.2807   -3.7593   -1.0132 C.3       1 <0>        -0.1057
     31 H2         -1.2073    3.8978    2.2480 H         1 <0>         0.0547
     32 H3         -1.2458    3.9073    0.4522 H         1 <0>         0.0542
     33 H4          0.3286    3.9255    1.3169 H         1 <0>         0.0541
     34 H5         -0.1374    1.6501    2.2133 H         1 <0>         0.0613
     35 H6         -1.7118    1.6319    1.3486 H         1 <0>         0.0615
     36 H7         -0.5218    1.8848   -0.8235 H         1 <0>         0.0630
     37 H8          1.0526    1.9031    0.0411 H         1 <0>         0.0625
     38 H9          0.5869   -0.3723    0.9376 H         1 <0>         0.0652
     39 H10        -0.9875   -0.3907    0.0731 H         1 <0>         0.0690
     40 H11         0.2023   -0.1379   -2.0993 H         1 <0>         0.0753
     41 H12         1.7767   -0.1195   -1.2348 H         1 <0>         0.0713
     42 H13        -0.6478   -3.6617   -1.3267 H         1 <0>         0.0643
     43 H14        -1.1275   -2.1968   -2.2490 H         1 <0>         0.0693
     44 H15        -1.2457   -2.2083   -0.4566 H         1 <0>         0.0808
     45 H16        -0.5323   -1.0179   -3.7022 H         1 <0>         0.1213
     46 H17        -0.6125   -0.8393   -6.1480 H         1 <0>         0.1263
     47 H18         1.0953   -1.9359   -7.5370 H         1 <0>         0.1247
     48 H19         2.9052   -3.2263   -6.4867 H         1 <0>         0.1200
     49 H20         2.0859   -5.8352   -3.7560 H         1 <0>         0.1324
     50 H21         1.9123   -8.2690   -3.9564 H         1 <0>         0.1286
     51 H22         3.8642   -9.6531   -4.3242 H         1 <0>         0.1306
     52 H23         6.7946   -4.9594   -4.2626 H         1 <0>         0.1583
     53 H24         8.7396   -6.3836   -4.6322 H         1 <0>         0.1252
     54 H25         8.4954   -8.8212   -4.8226 H         1 <0>         0.1244
     55 H26         6.3055   -9.8746   -4.6474 H         1 <0>         0.1289
     56 H27         4.1733   -4.3582   -1.2467 H         1 <0>         0.0855
     57 H28         2.5555   -4.3798   -0.4664 H         1 <0>         0.0822
     58 H29         3.5689   -2.8985   -0.3919 H         1 <0>         0.0819
@<TRIPOS>BOND
     1    1    2 1
     2    1   31 1
     3    1   32 1
     4    1   33 1
     5    2    3 1
     6    2   34 1
     7    2   35 1
     8    3    4 1
     9    3   36 1
    10    3   37 1
    11    4    5 1
    12    4   38 1
    13    4   39 1
    14    5    6 1
    15    5   40 1
    16    5   41 1
    17    6    7 1
    18    6    8 1
    19    6    9 1
    20    8   42 1
    21    8   43 1
    22    8   44 1
    23    9   13 1
    24    9   10 1
    25   10   11 2
    26   10   30 1
    27   11   12 1
    28   11   18 1
    29   12   17 ar
    30   12   13 ar
    31   13   14 ar
    32   14   15 ar
    33   14   45 1
    34   15   16 ar
    35   15   46 1
    36   16   17 ar
    37   16   47 1
    38   17   48 1
    39   18   19 2
    40   18   20 1
    41   20   25 ar
    42   20   21 ar
    43   21   22 ar
    44   21   49 1
    45   22   23 ar
    46   22   50 1
    47   23   24 ar
    48   23   51 1
    49   24   29 ar
    50   24   25 ar
    51   25   26 ar
    52   26   27 ar
    53   26   52 1
    54   27   28 ar
    55   27   53 1
    56   28   29 ar
    57   28   54 1
    58   29   55 1
    59   30   56 1
    60   30   57 1
    61   30   58 1
@<TRIPOS>MOLECULE
ZINC27640867
   58    61     0     0     0
SMALL
USER_CHARGES
[2-methyl-1-[(1S)-1-methylhexyl]indol-3-yl]-(1-naphthyl)methanone
@<TRIPOS>ATOM
      1 C1         -5.1298   15.3730   -3.6161 C.3       1 <0>        -0.1562
      2 C2         -5.2554   14.5089   -2.3598 C.3       1 <0>        -0.1255
      3 C3         -4.1507   13.4504   -2.3563 C.3       1 <0>        -0.1209
      4 C4         -4.2763   12.5863   -1.0999 C.3       1 <0>        -0.1182
      5 C5         -3.1716   11.5277   -1.0965 C.3       1 <0>        -0.1335
      6 C6         -3.2971   10.6636    0.1599 C.3       1 <0>         0.1326
      7 H1         -4.2927   10.1989    0.2127 H         1 <0>         0.1004
      8 C7         -3.0376   11.5236    1.3984 C.3       1 <0>        -0.1705
      9 N1         -2.3159    9.5772    0.1054 N.pl3     1 <0>        -0.4645
     10 C8         -2.6224    8.2582    0.1197 C.2       1 <0>         0.1350
     11 C9         -1.4766    7.5175    0.0569 C.2       1 <0>        -0.2501
     12 C10        -0.3602    8.4794    0.0042 C.ar      1 <0>        -0.0707
     13 C11        -0.9492    9.7539    0.0323 C.ar      1 <0>         0.1011
     14 C12        -0.1365   10.8816   -0.0091 C.ar      1 <0>        -0.1239
     15 C13         1.2325   10.7404   -0.0825 C.ar      1 <0>        -0.1013
     16 C14         1.8123    9.4809   -0.1152 C.ar      1 <0>        -0.1365
     17 C15         1.0238    8.3513   -0.0756 C.ar      1 <0>        -0.0768
     18 C16        -1.3760    6.0526    0.0498 C.2       1 <0>         0.4846
     19 O1         -1.3006    5.4527   -1.0069 O.2       1 <0>        -0.4416
     20 C17        -1.3663    5.3079    1.3228 C.ar      1 <0>        -0.1588
     21 C18        -1.3338    5.9808    2.5378 C.ar      1 <0>        -0.0396
     22 C19        -1.3256    5.2775    3.7344 C.ar      1 <0>        -0.1391
     23 C20        -1.3489    3.9167    3.7678 C.ar      1 <0>        -0.0659
     24 C21        -1.3818    3.1712    2.5775 C.ar      1 <0>        -0.0676
     25 C22        -1.3908    3.8470    1.3326 C.ar      1 <0>        -0.0128
     26 C23        -1.4239    3.1077    0.1442 C.ar      1 <0>        -0.1196
     27 C24        -1.4398    1.7457    0.1984 C.ar      1 <0>        -0.1089
     28 C25        -1.4369    1.0781    1.4209 C.ar      1 <0>        -0.1182
     29 C26        -1.4057    1.7659    2.5955 C.ar      1 <0>        -0.1044
     30 C27        -4.0173    7.6930    0.1941 C.3       1 <0>        -0.1057
     31 H2         -5.9241   16.1340   -3.6186 H         1 <0>         0.0547
     32 H3         -5.2275   14.7381   -4.5091 H         1 <0>         0.0541
     33 H4         -4.1476   15.8681   -3.6239 H         1 <0>         0.0543
     34 H5         -5.1577   15.1438   -1.4668 H         1 <0>         0.0615
     35 H6         -6.2376   14.0138   -2.3520 H         1 <0>         0.0613
     36 H7         -4.2484   12.8155   -3.2493 H         1 <0>         0.0625
     37 H8         -3.1684   13.9455   -2.3641 H         1 <0>         0.0630
     38 H9         -4.1785   13.2212   -0.2070 H         1 <0>         0.0690
     39 H10        -5.2586   12.0913   -1.0920 H         1 <0>         0.0652
     40 H11        -3.2694   10.8928   -1.9894 H         1 <0>         0.0713
     41 H12        -2.1893   12.0227   -1.1044 H         1 <0>         0.0753
     42 H13        -3.1278   10.9023    2.3017 H         1 <0>         0.0643
     43 H14        -3.7744   12.3393    1.4393 H         1 <0>         0.0808
     44 H15        -2.0240   11.9474    1.3446 H         1 <0>         0.0693
     45 H16        -0.5777   11.8670    0.0166 H         1 <0>         0.1213
     46 H17         1.8599   11.6190   -0.1144 H         1 <0>         0.1263
     47 H18         2.8865    9.3849   -0.1724 H         1 <0>         0.1247
     48 H19         1.4775    7.3716   -0.1015 H         1 <0>         0.1200
     49 H20        -1.3150    7.0605    2.5514 H         1 <0>         0.1324
     50 H21        -1.3005    5.8250    4.6649 H         1 <0>         0.1286
     51 H22        -1.3423    3.4051    4.7189 H         1 <0>         0.1306
     52 H23        -1.4313    3.6134   -0.8101 H         1 <0>         0.1583
     53 H24        -1.4603    1.1764   -0.7192 H         1 <0>         0.1253
     54 H25        -1.4552   -0.0016    1.4372 H         1 <0>         0.1244
     55 H26        -1.3997    1.2347    3.5358 H         1 <0>         0.1289
     56 H27        -3.9684    6.5941    0.1896 H         1 <0>         0.0855
     57 H28        -4.5993    8.0377   -0.6733 H         1 <0>         0.0819
     58 H29        -4.5024    8.0346    1.1204 H         1 <0>         0.0822
@<TRIPOS>BOND
     1    1    2 1
     2    1   31 1
     3    1   32 1
     4    1   33 1
     5    2    3 1
     6    2   34 1
     7    2   35 1
     8    3    4 1
     9    3   36 1
    10    3   37 1
    11    4    5 1
    12    4   38 1
    13    4   39 1
    14    5    6 1
    15    5   40 1
    16    5   41 1
    17    6    7 1
    18    6    8 1
    19    6    9 1
    20    8   42 1
    21    8   43 1
    22    8   44 1
    23    9   13 1
    24    9   10 1
    25   10   11 2
    26   10   30 1
    27   11   12 1
    28   11   18 1
    29   12   17 ar
    30   12   13 ar
    31   13   14 ar
    32   14   15 ar
    33   14   45 1
    34   15   16 ar
    35   15   46 1
    36   16   17 ar
    37   16   47 1
    38   17   48 1
    39   18   19 2
    40   18   20 1
    41   20   25 ar
    42   20   21 ar
    43   21   22 ar
    44   21   49 1
    45   22   23 ar
    46   22   50 1
    47   23   24 ar
    48   23   51 1
    49   24   29 ar
    50   24   25 ar
    51   25   26 ar
    52   26   27 ar
    53   26   52 1
    54   27   28 ar
    55   27   53 1
    56   28   29 ar
    57   28   54 1
    58   29   55 1
    59   30   56 1
    60   30   57 1
    61   30   58 1
@<TRIPOS>MOLECULE
ZINC03809850
   62    61     0     0     0
SMALL
USER_CHARGES

@<TRIPOS>ATOM
      1 C1         -2.2312    2.9666    0.4945 C.3       1 <0>        -0.1543
      2 C2         -2.1773    1.4868    0.1097 C.3       1 <0>        -0.1260
      3 C3         -3.4636    0.7944    0.5647 C.3       1 <0>        -0.1214
      4 C4         -3.4097   -0.6855    0.1800 C.3       1 <0>        -0.1146
      5 C5         -4.6960   -1.3779    0.6349 C.3       1 <0>        -0.1025
      6 C6         -4.6429   -2.8355    0.2560 C.2       1 <0>        -0.1582
      7 C7         -4.8635   -3.7561    1.1614 C.2       1 <0>        -0.1534
      8 C8         -5.3306   -3.3617    2.5389 C.3       1 <0>        -0.0837
      9 C9         -6.5867   -4.1212    2.8800 C.2       1 <0>        -0.1511
     10 C10        -6.6608   -4.7947    4.0011 C.2       1 <0>        -0.1520
     11 C11        -5.5599   -4.6791    5.0237 C.3       1 <0>        -0.0839
     12 C12        -6.1510   -4.3020    6.3577 C.2       1 <0>        -0.1519
     13 C13        -5.8856   -5.0225    7.4190 C.2       1 <0>        -0.1513
     14 C14        -4.8547   -6.1194    7.3465 C.3       1 <0>        -0.0836
     15 C15        -3.8385   -5.9270    8.4425 C.2       1 <0>        -0.1524
     16 C16        -3.5758   -6.9066    9.2716 C.2       1 <0>        -0.1566
     17 C17        -4.1634   -8.2737    9.0331 C.3       1 <0>        -0.1019
     18 C18        -3.0466   -9.3192    9.0518 C.3       1 <0>        -0.0985
     19 C19        -3.6432  -10.7071    8.8097 C.3       1 <0>        -0.1408
     20 C20        -2.5431  -11.7370    8.8281 C.2       1 <0>         0.5104
     21 O1         -1.3950  -11.3946    9.0165 O.2       1 <0>        -0.5404
     22 N1         -2.8352  -13.0385    8.6354 N.am      1 <0>        -0.7286
     23 C21        -1.7658  -14.0397    8.6533 C.3       1 <0>         0.1176
     24 C22        -2.3624  -15.4276    8.4112 C.3       1 <0>         0.0628
     25 O2         -2.9130  -15.4861    7.0938 O.3       1 <0>        -0.5722
     26 H1         -1.3148    3.4599    0.1703 H         1 <0>         0.0535
     27 H2         -3.0875    3.4368    0.0110 H         1 <0>         0.0534
     28 H3         -2.3296    3.0574    1.5762 H         1 <0>         0.0534
     29 H4         -2.0789    1.3959   -0.9720 H         1 <0>         0.0605
     30 H5         -1.3210    1.0166    0.5932 H         1 <0>         0.0606
     31 H6         -3.5620    0.8852    1.6464 H         1 <0>         0.0610
     32 H7         -4.3199    1.2645    0.0812 H         1 <0>         0.0613
     33 H8         -3.3113   -0.7763   -0.9018 H         1 <0>         0.0616
     34 H9         -2.5534   -1.1557    0.6635 H         1 <0>         0.0621
     35 H10        -4.7944   -1.2871    1.7167 H         1 <0>         0.0756
     36 H11        -5.5523   -0.9077    0.1514 H         1 <0>         0.0687
     37 H12        -4.4230   -3.1211   -0.7621 H         1 <0>         0.1088
     38 H13        -4.7107   -4.7978    0.9208 H         1 <0>         0.1086
     39 H14        -4.5545   -3.5973    3.2670 H         1 <0>         0.0830
     40 H15        -5.5360   -2.2914    2.5602 H         1 <0>         0.0840
     41 H16        -7.4259   -4.1101    2.2002 H         1 <0>         0.1096
     42 H17        -7.5108   -5.4329    4.1925 H         1 <0>         0.1098
     43 H18        -5.0443   -5.6354    5.1121 H         1 <0>         0.0835
     44 H19        -4.8518   -3.9121    4.7102 H         1 <0>         0.0834
     45 H20        -6.7935   -3.4376    6.4387 H         1 <0>         0.1097
     46 H21        -6.4054   -4.8305    8.3460 H         1 <0>         0.1098
     47 H22        -5.3434   -7.0860    7.4698 H         1 <0>         0.0837
     48 H23        -4.3556   -6.0855    6.3781 H         1 <0>         0.0830
     49 H24        -3.3267   -4.9814    8.5444 H         1 <0>         0.1092
     50 H25        -2.9381   -6.7345   10.1261 H         1 <0>         0.1103
     51 H26        -4.8864   -8.5002    9.8168 H         1 <0>         0.0705
     52 H27        -4.6612   -8.2911    8.0635 H         1 <0>         0.0766
     53 H28        -2.3236   -9.0927    8.2682 H         1 <0>         0.0711
     54 H29        -2.5488   -9.3018   10.0214 H         1 <0>         0.0706
     55 H30        -4.3661  -10.9337    9.5933 H         1 <0>         0.0937
     56 H31        -4.1409  -10.7245    7.8401 H         1 <0>         0.0940
     57 H32        -3.7534  -13.3124    8.4848 H         1 <0>         0.4035
     58 H33        -1.0428  -13.8132    7.8697 H         1 <0>         0.0752
     59 H34        -1.2680  -14.0223    9.6229 H         1 <0>         0.0823
     60 H35        -1.5816  -16.1814    8.5125 H         1 <0>         0.0647
     61 H36        -3.1482  -15.6179    9.1422 H         1 <0>         0.0540
     62 H37        -3.3095  -16.3394    6.8708 H         1 <0>         0.3841
@<TRIPOS>BOND
     1    1    2 1
     2    1   26 1
     3    1   27 1
     4    1   28 1
     5    2    3 1
     6    2   29 1
     7    2   30 1
     8    3    4 1
     9    3   31 1
    10    3   32 1
    11    4    5 1
    12    4   33 1
    13    4   34 1
    14    5    6 1
    15    5   35 1
    16    5   36 1
    17    6    7 2
    18    6   37 1
    19    7    8 1
    20    7   38 1
    21    8    9 1
    22    8   39 1
    23    8   40 1
    24    9   10 2
    25    9   41 1
    26   10   11 1
    27   10   42 1
    28   11   12 1
    29   11   43 1
    30   11   44 1
    31   12   13 2
    32   12   45 1
    33   13   14 1
    34   13   46 1
    35   14   15 1
    36   14   47 1
    37   14   48 1
    38   15   16 2
    39   15   49 1
    40   16   17 1
    41   16   50 1
    42   17   18 1
    43   17   51 1
    44   17   52 1
    45   18   19 1
    46   18   53 1
    47   18   54 1
    48   19   20 1
    49   19   55 1
    50   19   56 1
    51   20   21 2
    52   20   22 am
    53   22   23 1
    54   22   57 1
    55   23   24 1
    56   23   58 1
    57   23   59 1
    58   24   25 1
    59   24   60 1
    60   24   61 1
    61   25   62 1
@<TRIPOS>MOLECULE
ZINC03964747
   52    55     0     0     0
SMALL
USER_CHARGES

@<TRIPOS>ATOM
      1 C1         -0.0178    1.4608    0.0101 C.3       1 <0>         0.0895
      2 N1          0.0021   -0.0041    0.0020 N.pl3     1 <0>        -0.7468
      3 C2          0.5971   -0.6781   -1.0390 C.2       1 <0>         0.7865
      4 N2          0.6148   -1.9816   -1.0462 N.2       1 <0>        -1.0499
      5 S1         -0.0791   -2.8260    0.1979 S.o2      1 <0>         2.6522
      6 O1          0.6932   -2.5479    1.3579 O.2       1 <0>        -0.9801
      7 O2         -1.4754   -2.5706    0.1331 O.2       1 <0>        -0.9801
      8 C3          0.1362   -4.5395   -0.1515 C.ar      1 <0>        -0.6348
      9 C4         -0.8192   -5.2210   -0.8821 C.ar      1 <0>        -0.0039
     10 C5         -0.6509   -6.5651   -1.1565 C.ar      1 <0>        -0.1319
     11 C6          0.4740   -7.2286   -0.6998 C.ar      1 <0>         0.0177
     12 C7          1.4298   -6.5460    0.0314 C.ar      1 <0>        -0.1319
     13 C8          1.2631   -5.2005    0.3003 C.ar      1 <0>        -0.0039
     14 Cl1         0.6858   -8.9170   -1.0436 Cl        1 <0>        -0.0529
     15 N3          1.1738    0.0236   -2.0731 N.pl3     1 <0>        -0.4420
     16 C9          1.8357   -0.5696   -3.2459 C.3       1 <0>         0.1086
     17 C10         2.2883    0.6560   -4.0641 C.3       1 <0>        -0.0598
     18 H1          1.8107    0.6592   -5.0439 H         1 <0>         0.1230
     19 C11         1.8201    1.8356   -3.2421 C.2       1 <0>         0.1551
     20 N4          1.2211    1.4118   -2.1835 N.2       1 <0>        -0.2350
     21 C12         2.0135    3.2530   -3.6007 C.ar      1 <0>        -0.0305
     22 C13         2.6704    3.5935   -4.7856 C.ar      1 <0>        -0.0692
     23 C14         2.8480    4.9208   -5.1150 C.ar      1 <0>        -0.1110
     24 C15         2.3769    5.9151   -4.2740 C.ar      1 <0>        -0.0162
     25 C16         1.7253    5.5843   -3.0976 C.ar      1 <0>        -0.1127
     26 C17         1.5356    4.2608   -2.7596 C.ar      1 <0>        -0.0674
     27 Cl2         2.6046    7.5836   -4.6961 Cl        1 <0>        -0.0603
     28 C18         3.7882    0.6706   -4.2086 C.ar      1 <0>        -0.0817
     29 C19         4.5905    0.7192   -3.0839 C.ar      1 <0>        -0.1036
     30 C20         5.9664    0.7326   -3.2164 C.ar      1 <0>        -0.1125
     31 C21         6.5401    0.6969   -4.4736 C.ar      1 <0>        -0.1116
     32 C22         5.7378    0.6474   -5.5982 C.ar      1 <0>        -0.1143
     33 C23         4.3620    0.6297   -5.4656 C.ar      1 <0>        -0.1088
     34 H2          1.0048    1.8381    0.0023 H         1 <0>         0.0746
     35 H3         -0.5450    1.8219   -0.8730 H         1 <0>         0.0753
     36 H4         -0.5280    1.8123    0.9069 H         1 <0>         0.0802
     37 H5         -1.6974   -4.7031   -1.2383 H         1 <0>         0.1505
     38 H6         -1.3975   -7.0975   -1.7271 H         1 <0>         0.1462
     39 H7          2.3080   -7.0634    0.3885 H         1 <0>         0.1462
     40 H8          2.0115   -4.6665    0.8671 H         1 <0>         0.1504
     41 H9          2.6956   -1.1657   -2.9404 H         1 <0>         0.1017
     42 H10         1.1323   -1.1744   -3.8183 H         1 <0>         0.1017
     43 H11         3.0385    2.8190   -5.4421 H         1 <0>         0.1395
     44 H12         3.3560    5.1854   -6.0306 H         1 <0>         0.1411
     45 H13         1.3605    6.3645   -2.4459 H         1 <0>         0.1412
     46 H14         1.0231    4.0041   -1.8443 H         1 <0>         0.1421
     47 H15         4.1423    0.7471   -2.1017 H         1 <0>         0.1159
     48 H16         6.5932    0.7713   -2.3377 H         1 <0>         0.1241
     49 H17         7.6150    0.7081   -4.5772 H         1 <0>         0.1245
     50 H18         6.1860    0.6198   -6.5805 H         1 <0>         0.1265
     51 H19         3.7352    0.5872   -6.3441 H         1 <0>         0.1269
     52 H20        -0.4044   -0.4986    0.7308 H         1 <0>         0.4118
@<TRIPOS>BOND
     1    1    2 1
     2    1   34 1
     3    1   35 1
     4    1   36 1
     5    2    3 1
     6    2   52 1
     7    3    4 2
     8    3   15 1
     9    4    5 1
    10    5    6 2
    11    5    7 2
    12    5    8 1
    13    8   13 ar
    14    8    9 ar
    15    9   10 ar
    16    9   37 1
    17   10   11 ar
    18   10   38 1
    19   11   12 ar
    20   11   14 1
    21   12   13 ar
    22   12   39 1
    23   13   40 1
    24   15   20 1
    25   15   16 1
    26   16   17 1
    27   16   41 1
    28   16   42 1
    29   17   18 1
    30   17   19 1
    31   17   28 1
    32   19   20 2
    33   19   21 1
    34   21   26 ar
    35   21   22 ar
    36   22   23 ar
    37   22   43 1
    38   23   24 ar
    39   23   44 1
    40   24   25 ar
    41   24   27 1
    42   25   26 ar
    43   25   45 1
    44   26   46 1
    45   28   33 ar
    46   28   29 ar
    47   29   30 ar
    48   29   47 1
    49   30   31 ar
    50   30   48 1
    51   31   32 ar
    52   31   49 1
    53   32   33 ar
    54   32   50 1
    55   33   51 1
@<TRIPOS>MOLECULE
ZINC03964747
   52    55     0     0     0
SMALL
USER_CHARGES

@<TRIPOS>ATOM
      1 C1          1.1621   -2.7818   -2.2479 C.3       1 <0>         0.0566
      2 N1          0.6009   -2.0835   -1.0888 N.pl3     1 <0>        -0.6945
      3 C2          0.6049   -0.7086   -1.0459 C.2       1 <0>         0.7809
      4 N2          0.2063   -0.0888    0.0296 N.2       1 <0>        -1.0456
      5 S1          0.1735    1.5664    0.0672 S.o2      1 <0>         2.6892
      6 O1          1.5212    2.0021   -0.0473 O.2       1 <0>        -0.9732
      7 O2         -0.8387    1.9733   -0.8433 O.2       1 <0>        -0.9698
      8 C3         -0.3741    2.0402    1.6736 C.ar      1 <0>        -0.6551
      9 C4         -1.7237    2.2067    1.9223 C.ar      1 <0>        -0.0069
     10 C5         -2.1539    2.5783    3.1821 C.ar      1 <0>        -0.1332
     11 C6         -1.2334    2.7837    4.1944 C.ar      1 <0>         0.0141
     12 C7          0.1172    2.6169    3.9449 C.ar      1 <0>        -0.1334
     13 C8          0.5457    2.2398    2.6861 C.ar      1 <0>        -0.0071
     14 Cl1        -1.7729    3.2510    5.7769 Cl        1 <0>        -0.0562
     15 N3          1.0298    0.0128   -2.1383 N.pl3     1 <0>        -0.5091
     16 C9          1.6047   -0.5551   -3.3682 C.3       1 <0>         0.0693
     17 C10         1.8959    0.6846   -4.2370 C.3       1 <0>        -0.0567
     18 H1          1.3224    0.6458   -5.1630 H         1 <0>         0.1254
     19 C11         1.4419    1.8447   -3.3801 C.2       1 <0>         0.1844
     20 N4          0.9803    1.3997   -2.2629 N.2       1 <0>        -0.2411
     21 C12         1.5106    3.2662   -3.7666 C.ar      1 <0>        -0.0342
     22 C13         2.0219    3.6298   -5.0147 C.ar      1 <0>        -0.0690
     23 C14         2.0834    4.9609   -5.3701 C.ar      1 <0>        -0.1140
     24 C15         1.6397    5.9362   -4.4926 C.ar      1 <0>        -0.0136
     25 C16         1.1321    5.5824   -3.2536 C.ar      1 <0>        -0.1143
     26 C17         1.0593    4.2545   -2.8885 C.ar      1 <0>        -0.0546
     27 Cl2         1.7206    7.6096   -4.9477 Cl        1 <0>        -0.0613
     28 C18         3.3698    0.7878   -4.5336 C.ar      1 <0>        -0.0855
     29 C19         4.2773    0.8998   -3.4969 C.ar      1 <0>        -0.1038
     30 C20         5.6293    0.9944   -3.7690 C.ar      1 <0>        -0.1119
     31 C21         6.0738    0.9766   -5.0778 C.ar      1 <0>        -0.1106
     32 C22         5.1664    0.8637   -6.1145 C.ar      1 <0>        -0.1152
     33 C23         3.8148    0.7647   -5.8422 C.ar      1 <0>        -0.1080
     34 H2          0.5637   -2.5587   -3.1313 H         1 <0>         0.0706
     35 H3          2.1876   -2.4501   -2.4105 H         1 <0>         0.0733
     36 H4          1.1526   -3.8562   -2.0645 H         1 <0>         0.0950
     37 H5         -2.4421    2.0466    1.1319 H         1 <0>         0.1484
     38 H6         -3.2082    2.7087    3.3762 H         1 <0>         0.1445
     39 H7          0.8362    2.7774    4.7346 H         1 <0>         0.1442
     40 H8          1.5996    2.1049    2.4925 H         1 <0>         0.1478
     41 H9          2.5261   -1.0940   -3.1476 H         1 <0>         0.1045
     42 H10         0.8854   -1.2088   -3.8615 H         1 <0>         0.1063
     43 H11         2.3686    2.8702   -5.6997 H         1 <0>         0.1396
     44 H12         2.4788    5.2434   -6.3346 H         1 <0>         0.1419
     45 H13         0.7880    6.3478   -2.5738 H         1 <0>         0.1420
     46 H14         0.6588    3.9796   -1.9240 H         1 <0>         0.1401
     47 H15         3.9300    0.9137   -2.4744 H         1 <0>         0.1204
     48 H16         6.3383    1.0827   -2.9591 H         1 <0>         0.1249
     49 H17         7.1301    1.0512   -5.2904 H         1 <0>         0.1249
     50 H18         5.5137    0.8501   -7.1371 H         1 <0>         0.1269
     51 H19         3.1061    0.6727   -6.6520 H         1 <0>         0.1274
     52 H20         0.2265   -2.5907   -0.3516 H         1 <0>         0.4351
@<TRIPOS>BOND
     1    1    2 1
     2    1   34 1
     3    1   35 1
     4    1   36 1
     5    2    3 1
     6    2   52 1
     7    3    4 2
     8    3   15 1
     9    4    5 1
    10    5    6 2
    11    5    7 2
    12    5    8 1
    13    8   13 ar
    14    8    9 ar
    15    9   10 ar
    16    9   37 1
    17   10   11 ar
    18   10   38 1
    19   11   12 ar
    20   11   14 1
    21   12   13 ar
    22   12   39 1
    23   13   40 1
    24   15   20 1
    25   15   16 1
    26   16   17 1
    27   16   41 1
    28   16   42 1
    29   17   18 1
    30   17   19 1
    31   17   28 1
    32   19   20 2
    33   19   21 1
    34   21   26 ar
    35   21   22 ar
    36   22   23 ar
    37   22   43 1
    38   23   24 ar
    39   23   44 1
    40   24   25 ar
    41   24   27 1
    42   25   26 ar
    43   25   45 1
    44   26   46 1
    45   28   33 ar
    46   28   29 ar
    47   29   30 ar
    48   29   47 1
    49   30   31 ar
    50   30   48 1
    51   31   32 ar
    52   31   49 1
    53   32   33 ar
    54   32   50 1
    55   33   51 1
@<TRIPOS>MOLECULE
ZINC13559250
   52    55     0     0     0
SMALL
USER_CHARGES

@<TRIPOS>ATOM
      1 C1         -0.0178    1.4608    0.0101 C.3       1 <0>         0.0895
      2 N1          0.0021   -0.0041    0.0020 N.pl3     1 <0>        -0.7469
      3 C2          0.5971   -0.6781   -1.0390 C.2       1 <0>         0.7865
      4 N2          0.6148   -1.9816   -1.0462 N.2       1 <0>        -1.0499
      5 S1         -0.0791   -2.8260    0.1979 S.o2      1 <0>         2.6522
      6 O1          0.6932   -2.5479    1.3579 O.2       1 <0>        -0.9801
      7 O2         -1.4754   -2.5706    0.1331 O.2       1 <0>        -0.9801
      8 C3          0.1362   -4.5395   -0.1515 C.ar      1 <0>        -0.6348
      9 C4         -0.8192   -5.2210   -0.8821 C.ar      1 <0>        -0.0039
     10 C5         -0.6509   -6.5651   -1.1565 C.ar      1 <0>        -0.1319
     11 C6          0.4740   -7.2286   -0.6998 C.ar      1 <0>         0.0177
     12 C7          1.4298   -6.5460    0.0314 C.ar      1 <0>        -0.1320
     13 C8          1.2631   -5.2005    0.3003 C.ar      1 <0>        -0.0039
     14 Cl1         0.6858   -8.9170   -1.0436 Cl        1 <0>        -0.0529
     15 N3          1.1738    0.0236   -2.0731 N.pl3     1 <0>        -0.4420
     16 C9          1.8357   -0.5696   -3.2459 C.3       1 <0>         0.1087
     17 C10         2.2883    0.6560   -4.0641 C.3       1 <0>        -0.0598
     18 H1          3.3734    0.6679   -4.1665 H         1 <0>         0.1229
     19 C11         1.8201    1.8356   -3.2421 C.2       1 <0>         0.1550
     20 N4          1.2211    1.4118   -2.1835 N.2       1 <0>        -0.2350
     21 C12         2.0135    3.2530   -3.6007 C.ar      1 <0>        -0.0306
     22 C13         2.6704    3.5935   -4.7856 C.ar      1 <0>        -0.0693
     23 C14         2.8480    4.9208   -5.1150 C.ar      1 <0>        -0.1110
     24 C15         2.3769    5.9151   -4.2740 C.ar      1 <0>        -0.0161
     25 C16         1.7253    5.5843   -3.0976 C.ar      1 <0>        -0.1127
     26 C17         1.5356    4.2608   -2.7596 C.ar      1 <0>        -0.0673
     27 Cl2         2.6046    7.5836   -4.6961 Cl        1 <0>        -0.0603
     28 C18         1.6307    0.6586   -5.4201 C.ar      1 <0>        -0.0818
     29 C19         0.2528    0.7064   -5.5199 C.ar      1 <0>        -0.1036
     30 C20        -0.3504    0.7087   -6.7637 C.ar      1 <0>        -0.1125
     31 C21         0.4244    0.6637   -7.9077 C.ar      1 <0>        -0.1116
     32 C22         1.8023    0.6167   -7.8078 C.ar      1 <0>        -0.1143
     33 C23         2.4056    0.6187   -6.5641 C.ar      1 <0>        -0.1088
     34 H2          1.0048    1.8381    0.0023 H         1 <0>         0.0753
     35 H3         -0.5450    1.8219   -0.8730 H         1 <0>         0.0746
     36 H4         -0.5280    1.8123    0.9069 H         1 <0>         0.0802
     37 H5         -1.6974   -4.7031   -1.2383 H         1 <0>         0.1503
     38 H6         -1.3975   -7.0975   -1.7271 H         1 <0>         0.1462
     39 H7          2.3080   -7.0634    0.3885 H         1 <0>         0.1463
     40 H8          2.0115   -4.6665    0.8671 H         1 <0>         0.1505
     41 H9          2.6956   -1.1657   -2.9404 H         1 <0>         0.1021
     42 H10         1.1323   -1.1744   -3.8183 H         1 <0>         0.1013
     43 H11         3.0385    2.8190   -5.4421 H         1 <0>         0.1396
     44 H12         3.3560    5.1854   -6.0306 H         1 <0>         0.1411
     45 H13         1.3605    6.3645   -2.4459 H         1 <0>         0.1412
     46 H14         1.0231    4.0041   -1.8443 H         1 <0>         0.1421
     47 H15        -0.3525    0.7416   -4.6262 H         1 <0>         0.1158
     48 H16        -1.4269    0.7454   -6.8417 H         1 <0>         0.1241
     49 H17        -0.0469    0.6647   -8.8794 H         1 <0>         0.1246
     50 H18         2.4076    0.5812   -8.7016 H         1 <0>         0.1265
     51 H19         3.4823    0.5858   -6.4861 H         1 <0>         0.1270
     52 H20        -0.4044   -0.4986    0.7308 H         1 <0>         0.4118
@<TRIPOS>BOND
     1    1    2 1
     2    1   34 1
     3    1   35 1
     4    1   36 1
     5    2    3 1
     6    2   52 1
     7    3    4 2
     8    3   15 1
     9    4    5 1
    10    5    6 2
    11    5    7 2
    12    5    8 1
    13    8   13 ar
    14    8    9 ar
    15    9   10 ar
    16    9   37 1
    17   10   11 ar
    18   10   38 1
    19   11   12 ar
    20   11   14 1
    21   12   13 ar
    22   12   39 1
    23   13   40 1
    24   15   20 1
    25   15   16 1
    26   16   17 1
    27   16   41 1
    28   16   42 1
    29   17   18 1
    30   17   19 1
    31   17   28 1
    32   19   20 2
    33   19   21 1
    34   21   26 ar
    35   21   22 ar
    36   22   23 ar
    37   22   43 1
    38   23   24 ar
    39   23   44 1
    40   24   25 ar
    41   24   27 1
    42   25   26 ar
    43   25   45 1
    44   26   46 1
    45   28   33 ar
    46   28   29 ar
    47   29   30 ar
    48   29   47 1
    49   30   31 ar
    50   30   48 1
    51   31   32 ar
    52   31   49 1
    53   32   33 ar
    54   32   50 1
    55   33   51 1
@<TRIPOS>MOLECULE
ZINC03976110
   50    52     0     0     0
SMALL
USER_CHARGES
[4-[3-(4,4,4-trifluorobutylsulfonyloxy)phenoxy]indan-2-yl]methanol
@<TRIPOS>ATOM
      1 C1          0.1362   -2.1449    1.2015 C.ar      1 <0>        -0.0806
      2 C2          0.1222   -2.8120   -0.0087 C.ar      1 <0>        -0.1186
      3 C3          0.0287   -2.0978   -1.1949 C.ar      1 <0>         0.1085
      4 C4         -0.0555   -0.7139   -1.1648 C.ar      1 <0>        -0.1395
      5 C5         -0.0360   -0.0470    0.0502 C.ar      1 <0>         0.0795
      6 C6          0.0576   -0.7659    1.2337 C.ar      1 <0>        -0.0877
      7 O1         -0.1141    1.3093    0.0827 O.3       1 <0>        -0.6567
      8 S1          1.2370    2.0085    0.0372 S.o2      1 <0>         2.5939
      9 O2          0.9528    3.3670    0.3422 O.2       1 <0>        -0.9161
     10 O3          2.0741    1.2353    0.8862 O.2       1 <0>        -0.9407
     11 C7          1.7831    1.8560   -1.6859 C.3       1 <0>        -0.6558
     12 C8          3.1462    2.5310   -1.8506 C.3       1 <0>        -0.1158
     13 C9          3.6068    2.4024   -3.3039 C.3       1 <0>        -0.1594
     14 C10         4.9699    3.0775   -3.4686 C.3       1 <0>         0.4510
     15 F1          5.9012    2.4588   -2.6278 F         1 <0>        -0.1811
     16 F2          5.3910    2.9598   -4.7975 F         1 <0>        -0.1816
     17 F3          4.8638    4.4310   -3.1311 F         1 <0>        -0.1810
     18 O4          0.0141   -2.7543   -2.3845 O.3       1 <0>        -0.2517
     19 C11        -1.0667   -3.5253   -2.6744 C.ar      1 <0>         0.1291
     20 C12        -2.1659   -3.5226   -1.8291 C.ar      1 <0>        -0.1955
     21 C13        -3.2636   -4.3066   -2.1256 C.ar      1 <0>        -0.0782
     22 C14        -3.2648   -5.0920   -3.2625 C.ar      1 <0>        -0.1337
     23 C15        -2.1692   -5.0979   -4.1099 C.ar      1 <0>        -0.0575
     24 C16        -1.0711   -4.3110   -3.8207 C.ar      1 <0>        -0.1195
     25 C17        -0.0134   -4.4955   -4.8876 C.3       1 <0>        -0.0657
     26 C18        -0.4039   -5.7939   -5.6251 C.3       1 <0>        -0.0890
     27 H1          0.0918   -6.6565   -5.1798 H         1 <0>         0.0906
     28 C19        -1.9289   -5.8588   -5.3963 C.3       1 <0>        -0.0726
     29 C20        -0.0815   -5.6948   -7.1175 C.3       1 <0>         0.0843
     30 O5         -0.4655   -6.9071   -7.7693 O.3       1 <0>        -0.5725
     31 H2          0.2090   -2.7024    2.1236 H         1 <0>         0.1515
     32 H3          0.1837   -3.8900   -0.0313 H         1 <0>         0.1453
     33 H4         -0.1328   -0.1565   -2.0866 H         1 <0>         0.1508
     34 H5          0.0688   -0.2469    2.1808 H         1 <0>         0.1496
     35 H6          1.8657    0.8014   -1.9488 H         1 <0>         0.1406
     36 H7          1.0574    2.3380   -2.3410 H         1 <0>         0.1456
     37 H8          3.0635    3.5856   -1.5876 H         1 <0>         0.0974
     38 H9          3.8719    2.0490   -1.1955 H         1 <0>         0.0974
     39 H10         3.6894    1.3478   -3.5669 H         1 <0>         0.1167
     40 H11         2.8811    2.8844   -3.9590 H         1 <0>         0.1169
     41 H12        -2.1635   -2.9089   -0.9404 H         1 <0>         0.1318
     42 H13        -4.1208   -4.3061   -1.4687 H         1 <0>         0.1311
     43 H14        -4.1243   -5.7046   -3.4913 H         1 <0>         0.1263
     44 H15         0.9717   -4.6003   -4.4331 H         1 <0>         0.0809
     45 H16        -0.0250   -3.6510   -5.5767 H         1 <0>         0.0821
     46 H17        -2.2515   -6.8944   -5.2891 H         1 <0>         0.0827
     47 H18        -2.4573   -5.3822   -6.2219 H         1 <0>         0.0855
     48 H19        -0.6293   -4.8590   -7.5528 H         1 <0>         0.0489
     49 H20         0.9888   -5.5353   -7.2482 H         1 <0>         0.0502
     50 H21        -0.2899   -6.9151   -8.7202 H         1 <0>         0.3824
@<TRIPOS>BOND
     1    1    6 ar
     2    1    2 ar
     3    1   31 1
     4    2    3 ar
     5    2   32 1
     6    3    4 ar
     7    3   18 1
     8    4    5 ar
     9    4   33 1
    10    5    6 ar
    11    5    7 1
    12    6   34 1
    13    7    8 1
    14    8    9 2
    15    8   10 2
    16    8   11 1
    17   11   12 1
    18   11   35 1
    19   11   36 1
    20   12   13 1
    21   12   37 1
    22   12   38 1
    23   13   14 1
    24   13   39 1
    25   13   40 1
    26   14   15 1
    27   14   16 1
    28   14   17 1
    29   18   19 1
    30   19   24 ar
    31   19   20 ar
    32   20   21 ar
    33   20   41 1
    34   21   22 ar
    35   21   42 1
    36   22   23 ar
    37   22   43 1
    38   23   28 1
    39   23   24 ar
    40   24   25 1
    41   25   26 1
    42   25   44 1
    43   25   45 1
    44   26   27 1
    45   26   28 1
    46   26   29 1
    47   28   46 1
    48   28   47 1
    49   29   30 1
    50   29   48 1
    51   29   49 1
    52   30   50 1
@<TRIPOS>MOLECULE
ZINC08214635
   88    88     0     0     0
SMALL
USER_CHARGES

@<TRIPOS>ATOM
      1 C1         -0.0187    1.5258    0.0104 C.3       1 <0>        -0.1544
      2 C2          0.0021   -0.0041    0.0020 C.3       1 <0>        -0.1261
      3 C3          0.7421   -0.5109    1.2415 C.3       1 <0>        -0.1213
      4 C4          0.7628   -2.0407    1.2331 C.3       1 <0>        -0.1211
      5 C5          1.5028   -2.5476    2.4727 C.3       1 <0>        -0.1207
      6 C6          1.5236   -4.0774    2.4642 C.3       1 <0>        -0.1205
      7 C7          2.2636   -4.5842    3.7038 C.3       1 <0>        -0.1205
      8 C8          2.2843   -6.1141    3.6954 C.3       1 <0>        -0.1201
      9 C9          3.0243   -6.6209    4.9349 C.3       1 <0>        -0.1193
     10 C10         3.0450   -8.1508    4.9265 C.3       1 <0>        -0.1194
     11 C11         3.7850   -8.6576    6.1660 C.3       1 <0>        -0.1168
     12 C12         3.8058  -10.1874    6.1576 C.3       1 <0>         0.0940
     13 H1          4.2361  -10.5398    5.2201 H         1 <0>         0.0875
     14 C13         4.6512  -10.6925    7.3285 C.3       1 <0>        -0.1574
     15 C14         4.7753  -12.2153    7.2485 C.3       1 <0>         0.0556
     16 H2          5.0062  -12.5666    6.2429 H         1 <0>         0.1361
     17 C15         5.6887  -12.8107    8.3277 C.3       1 <0>        -0.1706
     18 H3          6.4145  -12.1160    8.7504 H         1 <0>         0.1148
     19 C16         4.3489  -12.8371    9.0268 C.2       1 <0>         0.4711
     20 O1          4.0091  -12.8049   10.1859 O.2       1 <0>        -0.4341
     21 O2          3.6781  -12.9098    7.8576 O.3       1 <0>        -0.3020
     22 C17         6.2714  -14.1854    7.9938 C.3       1 <0>        -0.0893
     23 C18         7.2541  -14.6027    9.0897 C.3       1 <0>        -0.1208
     24 C19         7.8368  -15.9774    8.7559 C.3       1 <0>        -0.1201
     25 C20         8.8195  -16.3947    9.8518 C.3       1 <0>        -0.1209
     26 C21         9.4022  -17.7694    9.5179 C.3       1 <0>        -0.1259
     27 C22        10.3849  -18.1866   10.6139 C.3       1 <0>        -0.1542
     28 O3          2.4714  -10.6826    6.2851 O.3       1 <0>        -0.3440
     29 C23         2.2014  -11.8629    5.7056 C.2       1 <0>         0.4567
     30 O4          3.0693  -12.4559    5.1098 O.2       1 <0>        -0.4778
     31 C24         0.8158  -12.4483    5.7980 C.3       1 <0>         0.1602
     32 H4          0.0777  -11.6545    5.6837 H         1 <0>         0.1156
     33 C25         0.6358  -13.1196    7.1610 C.3       1 <0>        -0.1217
     34 C26        -0.8084  -13.6043    7.3040 C.3       1 <0>        -0.0910
     35 C27        -0.9574  -14.3844    8.6117 C.3       1 <0>        -0.1468
     36 C28        -1.7516  -12.3997    7.3184 C.3       1 <0>        -0.1519
     37 N1          0.6335  -13.4414    4.7366 N.am      1 <0>        -0.7301
     38 C29         1.4394  -14.5200    4.6772 C.2       1 <0>         0.4919
     39 O5          2.3155  -14.6685    5.5026 O.2       1 <0>        -0.5112
     40 H5          1.0039    1.9031    0.0027 H         1 <0>         0.0533
     41 H6         -0.5459    1.8868   -0.8726 H         1 <0>         0.0535
     42 H7         -0.5289    1.8773    0.9072 H         1 <0>         0.0534
     43 H8         -1.0205   -0.3814    0.0098 H         1 <0>         0.0602
     44 H9          0.5123   -0.3556   -0.8948 H         1 <0>         0.0602
     45 H10         1.7647   -0.1336    1.2338 H         1 <0>         0.0605
     46 H11         0.2319   -0.1594    2.1383 H         1 <0>         0.0606
     47 H12        -0.2598   -2.4180    1.2409 H         1 <0>         0.0605
     48 H13         1.2730   -2.3923    0.3363 H         1 <0>         0.0604
     49 H14         2.5254   -2.1703    2.4649 H         1 <0>         0.0604
     50 H15         0.9926   -2.1961    3.3695 H         1 <0>         0.0606
     51 H16         0.5010   -4.4547    2.4720 H         1 <0>         0.0604
     52 H17         2.0337   -4.4289    1.5675 H         1 <0>         0.0602
     53 H18         3.2861   -4.2070    3.6960 H         1 <0>         0.0605
     54 H19         1.7534   -4.2327    4.6006 H         1 <0>         0.0609
     55 H20         1.2617   -6.4914    3.7031 H         1 <0>         0.0608
     56 H21         2.7945   -6.4656    2.7986 H         1 <0>         0.0602
     57 H22         4.0469   -6.2436    4.9271 H         1 <0>         0.0617
     58 H23         2.5141   -6.2694    5.8317 H         1 <0>         0.0629
     59 H24         2.0224   -8.5280    4.9342 H         1 <0>         0.0667
     60 H25         3.5552   -8.5023    4.0297 H         1 <0>         0.0607
     61 H26         4.8076   -8.2803    6.1583 H         1 <0>         0.0846
     62 H27         3.2748   -8.3061    7.0628 H         1 <0>         0.0771
     63 H28         5.6436  -10.2441    7.2801 H         1 <0>         0.1069
     64 H29         4.1729  -10.4157    8.2680 H         1 <0>         0.0834
     65 H30         5.4652  -14.9163    7.9311 H         1 <0>         0.0763
     66 H31         6.7927  -14.1366    7.0377 H         1 <0>         0.0834
     67 H32         8.0603  -13.8718    9.1524 H         1 <0>         0.0664
     68 H33         6.7328  -14.6515   10.0458 H         1 <0>         0.0650
     69 H34         7.0306  -16.7083    8.6932 H         1 <0>         0.0629
     70 H35         8.3581  -15.9286    7.7998 H         1 <0>         0.0634
     71 H36         9.6257  -15.6638    9.9145 H         1 <0>         0.0614
     72 H37         8.2982  -16.4435   10.8079 H         1 <0>         0.0615
     73 H38         8.5960  -18.5003    9.4553 H         1 <0>         0.0607
     74 H39         9.9235  -17.7206    8.5619 H         1 <0>         0.0606
     75 H40         9.8636  -18.2354   11.5699 H         1 <0>         0.0535
     76 H41        10.8000  -19.1660   10.3760 H         1 <0>         0.0535
     77 H42        11.1911  -17.4557   10.6765 H         1 <0>         0.0533
     78 H43         1.3137  -13.9695    7.2398 H         1 <0>         0.0982
     79 H44         0.8584  -12.4028    7.9514 H         1 <0>         0.0771
     80 H45        -1.0591  -14.2520    6.4640 H         1 <0>         0.0707
     81 H46        -0.7067  -13.7367    9.4518 H         1 <0>         0.0555
     82 H47        -1.9863  -14.7297    8.7136 H         1 <0>         0.0555
     83 H48        -0.2855  -15.2426    8.6015 H         1 <0>         0.0543
     84 H49        -1.5008  -11.7520    8.1584 H         1 <0>         0.0573
     85 H50        -1.6454  -11.8439    6.3868 H         1 <0>         0.0527
     86 H51        -2.7804  -12.7450    7.4203 H         1 <0>         0.0562
     87 H52        -0.0673  -13.3226    4.0765 H         1 <0>         0.4072
     88 H53         1.3049  -15.2522    3.8947 H         1 <0>         0.1291
@<TRIPOS>BOND
     1    1    2 1
     2    1   40 1
     3    1   41 1
     4    1   42 1
     5    2    3 1
     6    2   43 1
     7    2   44 1
     8    3    4 1
     9    3   45 1
    10    3   46 1
    11    4    5 1
    12    4   47 1
    13    4   48 1
    14    5    6 1
    15    5   49 1
    16    5   50 1
    17    6    7 1
    18    6   51 1
    19    6   52 1
    20    7    8 1
    21    7   53 1
    22    7   54 1
    23    8    9 1
    24    8   55 1
    25    8   56 1
    26    9   10 1
    27    9   57 1
    28    9   58 1
    29   10   11 1
    30   10   59 1
    31   10   60 1
    32   11   12 1
    33   11   61 1
    34   11   62 1
    35   12   13 1
    36   12   14 1
    37   12   28 1
    38   14   15 1
    39   14   63 1
    40   14   64 1
    41   15   16 1
    42   15   21 1
    43   15   17 1
    44   17   18 1
    45   17   19 1
    46   17   22 1
    47   19   20 2
    48   19   21 1
    49   22   23 1
    50   22   65 1
    51   22   66 1
    52   23   24 1
    53   23   67 1
    54   23   68 1
    55   24   25 1
    56   24   69 1
    57   24   70 1
    58   25   26 1
    59   25   71 1
    60   25   72 1
    61   26   27 1
    62   26   73 1
    63   26   74 1
    64   27   75 1
    65   27   76 1
    66   27   77 1
    67   28   29 1
    68   29   30 2
    69   29   31 1
    70   31   32 1
    71   31   33 1
    72   31   37 1
    73   33   34 1
    74   33   78 1
    75   33   79 1
    76   34   35 1
    77   34   36 1
    78   34   80 1
    79   35   81 1
    80   35   82 1
    81   35   83 1
    82   36   84 1
    83   36   85 1
    84   36   86 1
    85   37   38 am
    86   37   87 1
    87   38   39 2
    88   38   88 1
@<TRIPOS>MOLECULE
ZINC01548888
   58    61     0     0     0
SMALL
USER_CHARGES

@<TRIPOS>ATOM
      1 C1         -0.0795    1.4751   -0.0409 C.3       1 <0>        -0.1545
      2 C2         -0.0400   -0.0544   -0.0381 C.3       1 <0>        -0.1240
      3 C3          0.7015   -0.5431    1.2078 C.3       1 <0>        -0.1175
      4 C4          0.7410   -2.0726    1.2106 C.3       1 <0>        -0.1184
      5 C5          1.4824   -2.5614    2.4565 C.3       1 <0>         0.0575
      6 O1          1.5194   -3.9899    2.4590 O.3       1 <0>        -0.3132
      7 C6          2.1475   -4.5898    3.5067 C.ar      1 <0>         0.0040
      8 C7          3.5058   -4.8656    3.4382 C.ar      1 <0>         0.1837
      9 C8          4.1575   -5.4794    4.5066 C.ar      1 <0>        -0.2255
     10 C9          3.4712   -5.8178    5.6342 C.ar      1 <0>         0.0000
     11 C10         2.0951   -5.5492    5.7272 C.ar      1 <0>        -0.1713
     12 C11         1.4300   -4.9235    4.6532 C.ar      1 <0>         0.2269
     13 N1          0.0791   -4.6468    4.7291 N.am      1 <0>        -0.6164
     14 H1         -0.3647   -4.2197    3.9798 H         1 <0>         0.4239
     15 C12        -0.6302   -4.9622    5.8290 C.2       1 <0>         0.5545
     16 O2         -1.8208   -4.7102    5.8773 O.2       1 <0>        -0.5257
     17 C13         0.0276   -5.6088    6.9686 C.2       1 <0>        -0.2576
     18 C14         1.3794   -5.8997    6.8940 C.2       1 <0>         0.0766
     19 C15        -0.7428   -5.9558    8.1736 C.2       1 <0>         0.5780
     20 O3         -0.2200   -6.5954    9.0665 O.2       1 <0>        -0.5449
     21 N2         -2.0276   -5.5650    8.2879 N.am      1 <0>        -0.7157
     22 C16        -2.7610   -5.8135    9.5314 C.3       1 <0>         0.1640
     23 C17        -4.1658   -5.2838    9.4006 C.ar      1 <0>        -0.0984
     24 C18        -4.4471   -3.9788    9.7599 C.ar      1 <0>        -0.0871
     25 C19        -5.7340   -3.4881    9.6412 C.ar      1 <0>        -0.1015
     26 C20        -6.7457   -4.3042    9.1618 C.ar      1 <0>         0.0400
     27 C21        -6.4624   -5.6188    8.7998 C.ar      1 <0>         0.0304
     28 C22        -5.1691   -6.1021    8.9161 C.ar      1 <0>        -0.0793
     29 O4         -7.6133   -6.2089    8.3634 O.3       1 <0>        -0.3074
     30 C23        -8.6811   -5.3719    8.8454 C.3       1 <0>         0.2128
     31 O5         -8.0741   -4.0706    8.9520 O.3       1 <0>        -0.3080
     32 O6          4.2051   -4.5356    2.3219 O.3       1 <0>        -0.2951
     33 C24         5.5999   -4.8464    2.3146 C.3       1 <0>         0.0196
     34 H2          0.9384    1.8649   -0.0475 H         1 <0>         0.0540
     35 H3         -0.6077    1.8233   -0.9285 H         1 <0>         0.0555
     36 H4         -0.5974    1.8268    0.8515 H         1 <0>         0.0541
     37 H5         -1.0579   -0.4441   -0.0314 H         1 <0>         0.0633
     38 H6          0.4779   -0.4061   -0.9304 H         1 <0>         0.0634
     39 H7          1.7194   -0.1534    1.2011 H         1 <0>         0.0649
     40 H8          0.1836   -0.1915    2.1001 H         1 <0>         0.0640
     41 H9         -0.2769   -2.4624    1.2172 H         1 <0>         0.0726
     42 H10         1.2589   -2.4243    0.3182 H         1 <0>         0.0760
     43 H11         2.5004   -2.1716    2.4498 H         1 <0>         0.0592
     44 H12         0.9646   -2.2097    3.3488 H         1 <0>         0.0499
     45 H13         5.2149   -5.6887    4.4400 H         1 <0>         0.1471
     46 H14         3.9852   -6.2930    6.4566 H         1 <0>         0.1508
     47 H15         1.8832   -6.3753    7.7225 H         1 <0>         0.1622
     48 H16        -2.4666   -5.1191    7.5467 H         1 <0>         0.4178
     49 H17        -2.7936   -6.8855    9.7260 H         1 <0>         0.0810
     50 H18        -2.2581   -5.3096   10.3568 H         1 <0>         0.0823
     51 H19        -3.6598   -3.3414   10.1345 H         1 <0>         0.1410
     52 H20        -5.9509   -2.4682    9.9227 H         1 <0>         0.1389
     53 H21        -4.9456   -7.1197    8.6319 H         1 <0>         0.1378
     54 H22        -9.5048   -5.3530    8.1318 H         1 <0>         0.1333
     55 H23        -9.0260   -5.7148    9.8209 H         1 <0>         0.0864
     56 H24         6.0374   -4.5312    1.3673 H         1 <0>         0.1078
     57 H25         6.0929   -4.3237    3.1342 H         1 <0>         0.0626
     58 H26         5.7333   -5.9213    2.4366 H         1 <0>         0.0638
@<TRIPOS>BOND
     1    1    2 1
     2    1   34 1
     3    1   35 1
     4    1   36 1
     5    2    3 1
     6    2   37 1
     7    2   38 1
     8    3    4 1
     9    3   39 1
    10    3   40 1
    11    4    5 1
    12    4   41 1
    13    4   42 1
    14    5    6 1
    15    5   43 1
    16    5   44 1
    17    6    7 1
    18    7   12 ar
    19    7    8 ar
    20    8    9 ar
    21    8   32 1
    22    9   10 ar
    23    9   45 1
    24   10   11 ar
    25   10   46 1
    26   11   18 1
    27   11   12 ar
    28   12   13 1
    29   13   14 1
    30   13   15 am
    31   15   16 2
    32   15   17 1
    33   17   18 2
    34   17   19 1
    35   18   47 1
    36   19   20 2
    37   19   21 am
    38   21   22 1
    39   21   48 1
    40   22   23 1
    41   22   49 1
    42   22   50 1
    43   23   28 ar
    44   23   24 ar
    45   24   25 ar
    46   24   51 1
    47   25   26 ar
    48   25   52 1
    49   26   31 1
    50   26   27 ar
    51   27   28 ar
    52   27   29 1
    53   28   53 1
    54   29   30 1
    55   30   31 1
    56   30   54 1
    57   30   55 1
    58   32   33 1
    59   33   56 1
    60   33   57 1
    61   33   58 1
@<TRIPOS>MOLECULE
ZINC28332661
   54    57     0     0     0
SMALL
USER_CHARGES

@<TRIPOS>ATOM
      1 C1         -0.0407    1.5177   -0.0007 C.3       1 <0>        -0.1058
      2 C2         -0.0085    0.0110    0.0001 C.2       1 <0>         0.1439
      3 C3          0.0071   -0.7753   -1.1165 C.2       1 <0>        -0.2470
      4 C4          0.0383   -2.1716   -0.6431 C.ar      1 <0>        -0.0524
      5 C5          0.0645   -3.4089   -1.2815 C.ar      1 <0>        -0.0683
      6 C6          0.0909   -4.5636   -0.5305 C.ar      1 <0>        -0.1055
      7 C7          0.0913   -4.4972    0.8558 C.ar      1 <0>        -0.0811
      8 C8          0.0651   -3.2790    1.5003 C.ar      1 <0>        -0.0835
      9 C9          0.0388   -2.1022    0.7591 C.ar      1 <0>         0.0964
     10 N1          0.0151   -0.7672    1.1080 N.pl3     1 <0>        -0.4642
     11 C10         0.0123   -0.2630    2.4835 C.3       1 <0>         0.1072
     12 C11        -1.4308   -0.1191    2.9709 C.3       1 <0>         0.0374
     13 N2         -1.4337    0.3865    4.3502 N.3       1 <0>        -0.5328
     14 C12        -0.8561   -0.6003    5.2742 C.3       1 <0>         0.0102
     15 C13        -0.8238   -0.0109    6.6868 C.3       1 <0>         0.0637
     16 O1         -2.1470    0.3769    7.0665 O.3       1 <0>        -0.3833
     17 C14        -2.7397    1.3377    6.1885 C.3       1 <0>         0.0636
     18 C15        -2.7914    0.7619    4.7709 C.3       1 <0>         0.0183
     19 I1          0.1316   -6.2649    1.9794 I         1 <0>        -0.0359
     20 C16        -0.0055   -0.3203   -2.5123 C.2       1 <0>         0.4831
     21 O2         -1.0592   -0.2377   -3.1160 O.2       1 <0>        -0.4461
     22 C17         1.2599    0.0371   -3.1838 C.ar      1 <0>        -0.2031
     23 C18         2.4802   -0.1689   -2.5344 C.ar      1 <0>        -0.0204
     24 C19         3.6581    0.1658   -3.1640 C.ar      1 <0>        -0.1669
     25 C20         3.6347    0.7078   -4.4439 C.ar      1 <0>         0.1623
     26 C21         2.4231    0.9142   -5.0933 C.ar      1 <0>        -0.2237
     27 C22         1.2410    0.5768   -4.4728 C.ar      1 <0>        -0.0181
     28 O3          4.7979    1.0367   -5.0609 O.3       1 <0>        -0.3122
     29 C23         4.7014    1.5891   -6.3752 C.3       1 <0>         0.0235
     30 H1          0.9789    1.9029   -0.0075 H         1 <0>         0.0892
     31 H2         -0.5678    1.8693   -0.8876 H         1 <0>         0.0879
     32 H3         -0.5565    1.8705    0.8923 H         1 <0>         0.0793
     33 H4          0.0638   -3.4631   -2.3601 H         1 <0>         0.1312
     34 H5          0.1108   -5.5247   -1.0227 H         1 <0>         0.1329
     35 H6          0.0657   -3.2383    2.5795 H         1 <0>         0.1253
     36 H7          0.5454   -0.9621    3.1278 H         1 <0>         0.0924
     37 H8          0.5051    0.7087    2.5153 H         1 <0>         0.1053
     38 H9         -1.9640    0.5800    2.3266 H         1 <0>         0.0855
     39 H10        -1.9237   -1.0908    2.9391 H         1 <0>         0.0456
     40 H11        -1.4666   -1.5033    5.2705 H         1 <0>         0.0477
     41 H12         0.1581   -0.8446    4.9585 H         1 <0>         0.0871
     42 H13        -0.4494   -0.7595    7.3851 H         1 <0>         0.1007
     43 H14        -0.1704    0.8614    6.7024 H         1 <0>         0.0619
     44 H15        -3.7509    1.5644    6.5264 H         1 <0>         0.1011
     45 H16        -2.1419    2.2491    6.1896 H         1 <0>         0.0620
     46 H17        -3.1898    1.5120    4.0877 H         1 <0>         0.0891
     47 H18        -3.4328   -0.1193    4.7591 H         1 <0>         0.0467
     48 H19         2.4992   -0.5896   -1.5398 H         1 <0>         0.1367
     49 H20         4.6015    0.0073   -2.6627 H         1 <0>         0.1371
     50 H21         2.4091    1.3355   -6.0876 H         1 <0>         0.1355
     51 H22         0.3004    0.7333   -4.9798 H         1 <0>         0.1371
     52 H23         4.1178    2.5091   -6.3408 H         1 <0>         0.0595
     53 H24         5.7007    1.8067   -6.7522 H         1 <0>         0.1041
     54 H25         4.2120    0.8729   -7.0353 H         1 <0>         0.0596
@<TRIPOS>BOND
     1    1    2 1
     2    1   30 1
     3    1   31 1
     4    1   32 1
     5    2   10 1
     6    2    3 2
     7    3    4 1
     8    3   20 1
     9    4    9 ar
    10    4    5 ar
    11    5    6 ar
    12    5   33 1
    13    6    7 ar
    14    6   34 1
    15    7    8 ar
    16    7   19 1
    17    8    9 ar
    18    8   35 1
    19    9   10 1
    20   10   11 1
    21   11   12 1
    22   11   36 1
    23   11   37 1
    24   12   13 1
    25   12   38 1
    26   12   39 1
    27   13   18 1
    28   13   14 1
    29   14   15 1
    30   14   40 1
    31   14   41 1
    32   15   16 1
    33   15   42 1
    34   15   43 1
    35   16   17 1
    36   17   18 1
    37   17   44 1
    38   17   45 1
    39   18   46 1
    40   18   47 1
    41   20   21 2
    42   20   22 1
    43   22   27 ar
    44   22   23 ar
    45   23   24 ar
    46   23   48 1
    47   24   25 ar
    48   24   49 1
    49   25   26 ar
    50   25   28 1
    51   26   27 ar
    52   26   50 1
    53   27   51 1
    54   28   29 1
    55   29   52 1
    56   29   53 1
    57   29   54 1
@<TRIPOS>MOLECULE
ZINC25783468
   58    63     0     0     0
SMALL
USER_CHARGES

@<TRIPOS>ATOM
      1 C1         -0.0374    1.5268   -0.0073 C.3       1 <0>        -0.1044
      2 C2         -0.0077    0.0201   -0.0011 C.2       1 <0>         0.1547
      3 C3          0.0066   -0.7741   -1.1268 C.2       1 <0>        -0.2554
      4 C4          0.0350   -2.1719   -0.6642 C.ar      1 <0>        -0.0233
      5 C5          0.0587   -3.4480   -1.2264 C.ar      1 <0>        -0.1048
      6 C6          0.0811   -4.5535   -0.3988 C.ar      1 <0>        -0.0978
      7 C7          0.0810   -4.4382    0.9903 C.ar      1 <0>        -0.1296
      8 C8          0.0586   -3.1921    1.5629 C.ar      1 <0>         0.1205
      9 C9          0.0360   -2.0798    0.7175 C.ar      1 <0>        -0.0026
     10 N1          0.0145   -0.7420    1.0985 N.pl3     1 <0>        -0.4650
     11 C10         0.0177   -0.4438    2.5386 C.3       1 <0>         0.1137
     12 H1         -0.6023    0.4308    2.7355 H         1 <0>         0.1113
     13 C11        -0.5557   -1.6636    3.2747 C.3       1 <0>         0.0655
     14 O1          0.0567   -2.8934    2.8886 O.3       1 <0>        -0.3019
     15 C12         1.4494   -0.1797    3.0092 C.3       1 <0>         0.0483
     16 N2          1.4330    0.2340    4.4187 N.3       1 <0>        -0.5319
     17 C13         0.7735    1.5383    4.5774 C.3       1 <0>         0.0086
     18 C14         0.7254    1.9023    6.0636 C.3       1 <0>         0.0640
     19 O2          2.0539    1.8993    6.5933 O.3       1 <0>        -0.3830
     20 C15         2.7255    0.6441    6.4561 C.3       1 <0>         0.0635
     21 C16         2.7939    0.2674    4.9738 C.3       1 <0>         0.0203
     22 C17        -0.0050   -0.3146   -2.5213 C.2       1 <0>         0.4865
     23 O3         -1.0583   -0.2315   -3.1261 O.2       1 <0>        -0.4401
     24 C18         1.2594    0.0462   -3.1892 C.ar      1 <0>        -0.1579
     25 C19         2.4789   -0.1528   -2.5542 C.ar      1 <0>        -0.0402
     26 C20         3.6674    0.1881   -3.1851 C.ar      1 <0>        -0.1396
     27 C21         3.6882    0.7244   -4.4362 C.ar      1 <0>        -0.0651
     28 C22         2.4927    0.9533   -5.1376 C.ar      1 <0>        -0.0674
     29 C23         1.2562    0.6149   -4.5351 C.ar      1 <0>        -0.0124
     30 C24         0.0629    0.8364   -5.2330 C.ar      1 <0>        -0.1198
     31 C25         0.1048    1.3695   -6.4869 C.ar      1 <0>        -0.1084
     32 C26         1.3194    1.6976   -7.0848 C.ar      1 <0>        -0.1179
     33 C27         2.4977    1.5071   -6.4296 C.ar      1 <0>        -0.1043
     34 H2          0.9829    1.9103   -0.0155 H         1 <0>         0.0860
     35 H3         -0.5640    1.8761   -0.8954 H         1 <0>         0.0890
     36 H4         -0.5525    1.8837    0.8845 H         1 <0>         0.0740
     37 H5          0.0591   -3.5706   -2.2994 H         1 <0>         0.1262
     38 H6          0.0990   -5.5383   -0.8419 H         1 <0>         0.1327
     39 H7          0.0979   -5.3223    1.6103 H         1 <0>         0.1377
     40 H8         -0.4207   -1.5222    4.3470 H         1 <0>         0.1380
     41 H9         -1.6228   -1.7318    3.0632 H         1 <0>         0.0655
     42 H10         2.0400   -1.0898    2.9045 H         1 <0>         0.0918
     43 H11         1.8909    0.6116    2.4034 H         1 <0>         0.0479
     44 H12         1.3351    2.2985    4.0344 H         1 <0>         0.0484
     45 H13        -0.2411    1.4834    4.1830 H         1 <0>         0.0852
     46 H14         0.2888    2.8940    6.1815 H         1 <0>         0.1007
     47 H15         0.1189    1.1710    6.5980 H         1 <0>         0.0624
     48 H16         3.7355    0.7260    6.8578 H         1 <0>         0.1018
     49 H17         2.1772   -0.1237    7.0019 H         1 <0>         0.0632
     50 H18         3.2541   -0.7151    4.8688 H         1 <0>         0.0909
     51 H19         3.3878    1.0073    4.4372 H         1 <0>         0.0468
     52 H20         2.5024   -0.5762   -1.5610 H         1 <0>         0.1312
     53 H21         4.6016    0.0237   -2.6688 H         1 <0>         0.1284
     54 H22         4.6333    0.9767   -4.8940 H         1 <0>         0.1308
     55 H23        -0.8854    0.5860   -4.7808 H         1 <0>         0.1584
     56 H24        -0.8164    1.5396   -7.0244 H         1 <0>         0.1255
     57 H25         1.3260    2.1188   -8.0792 H         1 <0>         0.1246
     58 H26         3.4318    1.7666   -6.9055 H         1 <0>         0.1291
@<TRIPOS>BOND
     1    1    2 1
     2    1   34 1
     3    1   35 1
     4    1   36 1
     5    2   10 1
     6    2    3 2
     7    3    4 1
     8    3   22 1
     9    4    9 ar
    10    4    5 ar
    11    5    6 ar
    12    5   37 1
    13    6    7 ar
    14    6   38 1
    15    7    8 ar
    16    7   39 1
    17    8   14 1
    18    8    9 ar
    19    9   10 1
    20   10   11 1
    21   11   12 1
    22   11   13 1
    23   11   15 1
    24   13   14 1
    25   13   40 1
    26   13   41 1
    27   15   16 1
    28   15   42 1
    29   15   43 1
    30   16   21 1
    31   16   17 1
    32   17   18 1
    33   17   44 1
    34   17   45 1
    35   18   19 1
    36   18   46 1
    37   18   47 1
    38   19   20 1
    39   20   21 1
    40   20   48 1
    41   20   49 1
    42   21   50 1
    43   21   51 1
    44   22   23 2
    45   22   24 1
    46   24   29 ar
    47   24   25 ar
    48   25   26 ar
    49   25   52 1
    50   26   27 ar
    51   26   53 1
    52   27   28 ar
    53   27   54 1
    54   28   33 ar
    55   28   29 ar
    56   29   30 ar
    57   30   31 ar
    58   30   55 1
    59   31   32 ar
    60   31   56 1
    61   32   33 ar
    62   32   57 1
    63   33   58 1
@<TRIPOS>MOLECULE
ZINC04097406
   53    54     0     0     0
SMALL
USER_CHARGES
2-(6-isopropenyl-3-methyl-1-cyclohex-2-enyl)-5-pentyl-benzene-1,3-diol
@<TRIPOS>ATOM
      1 C1         -1.4906   -2.6859   10.5600 C.3       1 <0>        -0.1542
      2 C2         -2.1649   -2.1025    9.3167 C.3       1 <0>        -0.1258
      3 C3         -1.1034   -1.7896    8.2602 C.3       1 <0>        -0.1210
      4 C4         -1.7776   -1.2062    7.0169 C.3       1 <0>        -0.1139
      5 C5         -0.7161   -0.8934    5.9604 C.3       1 <0>        -0.0814
      6 C6         -1.3802   -0.3186    4.7357 C.ar      1 <0>        -0.0518
      7 C7         -1.5608    1.0468    4.6257 C.ar      1 <0>        -0.1500
      8 C8         -2.1725    1.5785    3.4992 C.ar      1 <0>         0.1285
      9 C9         -2.6026    0.7383    2.4838 C.ar      1 <0>        -0.1233
     10 C10        -2.4254   -0.6318    2.5991 C.ar      1 <0>         0.1325
     11 C11        -1.8080   -1.1581    3.7250 C.ar      1 <0>        -0.1513
     12 O1         -2.8514   -1.4584    1.6081 O.3       1 <0>        -0.4853
     13 C12        -3.2671    1.3130    1.2593 C.3       1 <0>         0.0017
     14 H1         -3.3137    2.3981    1.3517 H         1 <0>         0.0949
     15 C13        -4.6587    0.7633    1.1444 C.2       1 <0>        -0.1403
     16 C14        -5.1912    0.3635    0.0343 C.2       1 <0>        -0.1173
     17 C15        -4.4878    0.3845   -1.2911 C.3       1 <0>        -0.0824
     18 C16        -3.2691    1.3077   -1.2265 C.3       1 <0>        -0.1100
     19 C17        -2.4506    0.9442    0.0188 C.3       1 <0>        -0.0425
     20 H2         -2.2400   -0.1253    0.0195 H         1 <0>         0.0756
     21 C18        -1.1558    1.7153    0.0169 C.2       1 <0>        -0.1095
     22 C19        -0.0126    1.0758    0.0080 C.2       1 <0>        -0.2004
     23 C20        -1.1763    3.2222    0.0251 C.3       1 <0>        -0.1176
     24 C21        -6.6053   -0.1557    0.0757 C.3       1 <0>        -0.1207
     25 O2         -2.3502    2.9215    3.3917 O.3       1 <0>        -0.4919
     26 H3         -0.9641   -3.6018   10.2917 H         1 <0>         0.0536
     27 H4         -0.7806   -1.9629   10.9613 H         1 <0>         0.0536
     28 H5         -2.2469   -2.9088   11.3126 H         1 <0>         0.0537
     29 H6         -2.6915   -1.1866    9.5849 H         1 <0>         0.0606
     30 H7         -2.8750   -2.8255    8.9153 H         1 <0>         0.0608
     31 H8         -0.5768   -2.7055    7.9919 H         1 <0>         0.0624
     32 H9         -0.3933   -1.0666    8.6615 H         1 <0>         0.0624
     33 H10        -2.3042   -0.2903    7.2851 H         1 <0>         0.0633
     34 H11        -2.4877   -1.9292    6.6155 H         1 <0>         0.0638
     35 H12        -0.1895   -1.8092    5.6921 H         1 <0>         0.0743
     36 H13        -0.0060   -0.1703    6.3617 H         1 <0>         0.0745
     37 H14        -1.2252    1.7010    5.4169 H         1 <0>         0.1290
     38 H15        -1.6658   -2.2250    3.8133 H         1 <0>         0.1285
     39 H16        -2.1877   -1.6292    0.9259 H         1 <0>         0.3841
     40 H17        -5.2528    0.6967    2.0438 H         1 <0>         0.0989
     41 H18        -5.1734    0.7443   -2.0583 H         1 <0>         0.0714
     42 H19        -4.1634   -0.6249   -1.5440 H         1 <0>         0.0730
     43 H20        -3.5982    2.3446   -1.1588 H         1 <0>         0.0672
     44 H21        -2.6585    1.1714   -2.1190 H         1 <0>         0.0683
     45 H22         0.0021   -0.0041    0.0020 H         1 <0>         0.0909
     46 H23         0.9153    1.6285    0.0021 H         1 <0>         0.0967
     47 H24        -1.1861    3.5910   -1.0005 H         1 <0>         0.0642
     48 H25        -2.0687    3.5706    0.5451 H         1 <0>         0.0666
     49 H26        -0.2889    3.5948    0.5368 H         1 <0>         0.0617
     50 H27        -6.5926   -1.2302    0.2583 H         1 <0>         0.0653
     51 H28        -7.1520    0.3425    0.8763 H         1 <0>         0.0592
     52 H29        -7.0941    0.0451   -0.8776 H         1 <0>         0.0600
     53 H30        -3.1891    3.2375    3.7543 H         1 <0>         0.3896
@<TRIPOS>BOND
     1    1    2 1
     2    1   26 1
     3    1   27 1
     4    1   28 1
     5    2    3 1
     6    2   29 1
     7    2   30 1
     8    3    4 1
     9    3   31 1
    10    3   32 1
    11    4    5 1
    12    4   33 1
    13    4   34 1
    14    5    6 1
    15    5   35 1
    16    5   36 1
    17    6   11 ar
    18    6    7 ar
    19    7    8 ar
    20    7   37 1
    21    8    9 ar
    22    8   25 1
    23    9   10 ar
    24    9   13 1
    25   10   11 ar
    26   10   12 1
    27   11   38 1
    28   12   39 1
    29   13   14 1
    30   13   19 1
    31   13   15 1
    32   15   16 2
    33   15   40 1
    34   16   17 1
    35   16   24 1
    36   17   18 1
    37   17   41 1
    38   17   42 1
    39   18   19 1
    40   18   43 1
    41   18   44 1
    42   19   20 1
    43   19   21 1
    44   21   22 2
    45   21   23 1
    46   22   45 1
    47   22   46 1
    48   23   47 1
    49   23   48 1
    50   23   49 1
    51   24   50 1
    52   24   51 1
    53   24   52 1
    54   25   53 1
@<TRIPOS>MOLECULE
ZINC13476371
   52    56     0     0     0
SMALL
USER_CHARGES

@<TRIPOS>ATOM
      1 C1         -1.0078    1.4178    0.0275 C.3       1 <0>        -0.1176
      2 C2         -0.7719   -0.0706    0.0154 C.ar      1 <0>        -0.0682
      3 C3         -0.6991   -0.7488   -1.1885 C.ar      1 <0>        -0.1178
      4 C4         -0.4830   -2.1105   -1.2087 C.ar      1 <0>        -0.0923
      5 C5         -0.3365   -2.8113   -0.0084 C.ar      1 <0>        -0.0385
      6 C6         -0.4118   -2.1170    1.1991 C.ar      1 <0>        -0.0667
      7 C7         -0.6226   -0.7563    1.2086 C.ar      1 <0>        -0.0973
      8 C8         -0.2185   -3.1296    2.3021 C.3       1 <0>        -0.0099
      9 C9         -0.0280   -4.4538    1.6117 C.2       1 <0>        -0.1357
     10 C10        -0.1005   -4.2445    0.2663 C.2       1 <0>         0.0388
     11 N1          0.0761   -5.4657   -0.3259 N.pl3     1 <0>        -0.2205
     12 N2          0.2457   -6.3684    0.5726 N.2       1 <0>        -0.2294
     13 C11         0.1959   -5.8328    1.7786 C.2       1 <0>         0.0280
     14 C12         0.3465   -6.5475    3.0623 C.2       1 <0>         0.6236
     15 O1          0.2795   -5.9352    4.1105 O.2       1 <0>        -0.4950
     16 N3          0.5582   -7.8785    3.0717 N.am      1 <0>        -0.5717
     17 N4          0.6975   -8.5395    4.2590 N.3       1 <0>        -0.2926
     18 C13         2.0428   -9.1141    4.3867 C.3       1 <0>         0.0378
     19 C14         2.2103   -9.7187    5.7826 C.3       1 <0>        -0.1138
     20 C15         1.1498  -10.8027    5.9946 C.3       1 <0>        -0.1252
     21 C16        -0.2405  -10.1887    5.8084 C.3       1 <0>        -0.1138
     22 C17        -0.3370   -9.5705    4.4118 C.3       1 <0>         0.0383
     23 C18         0.0720   -5.6972   -1.7073 C.ar      1 <0>         0.1384
     24 C19         0.8336   -4.8972   -2.5490 C.ar      1 <0>        -0.0857
     25 C20         0.8279   -5.1274   -3.9105 C.ar      1 <0>        -0.0883
     26 C21         0.0641   -6.1546   -4.4373 C.ar      1 <0>        -0.0146
     27 C22        -0.6964   -6.9534   -3.6018 C.ar      1 <0>        -0.0896
     28 C23        -0.6897   -6.7315   -2.2375 C.ar      1 <0>        -0.0112
     29 Cl1        -1.6378   -7.7388   -1.1886 Cl        1 <0>        -0.0226
     30 Cl2         0.0597   -6.4407   -6.1496 Cl        1 <0>        -0.0384
     31 H1         -0.0503    1.9377   -0.0040 H         1 <0>         0.0749
     32 H2         -1.6024    1.6984   -0.8419 H         1 <0>         0.0696
     33 H3         -1.5414    1.6937    0.9370 H         1 <0>         0.0704
     34 H4         -0.8124   -0.2089   -2.1170 H         1 <0>         0.1295
     35 H5         -0.4274   -2.6351   -2.1511 H         1 <0>         0.1210
     36 H6         -0.6752   -0.2245    2.1471 H         1 <0>         0.1325
     37 H7          0.6650   -2.8813    2.8903 H         1 <0>         0.1106
     38 H8         -1.1004   -3.1621    2.9418 H         1 <0>         0.1104
     39 H9          0.6117   -8.3670    2.2354 H         1 <0>         0.3867
     40 H10         2.1783   -9.8921    3.6353 H         1 <0>         0.0405
     41 H11         2.7874   -8.3321    4.2379 H         1 <0>         0.0819
     42 H12         3.2035  -10.1589    5.8717 H         1 <0>         0.0739
     43 H13         2.0887   -8.9386    6.5340 H         1 <0>         0.0774
     44 H14         1.2954  -11.6018    5.2678 H         1 <0>         0.0605
     45 H15         1.2378  -11.2060    7.0034 H         1 <0>         0.0702
     46 H16        -0.9983  -10.9647    5.9160 H         1 <0>         0.0740
     47 H17        -0.4007   -9.4160    6.5603 H         1 <0>         0.0774
     48 H18        -1.3208   -9.1199    4.2813 H         1 <0>         0.0819
     49 H19        -0.1903  -10.3463    3.6603 H         1 <0>         0.0408
     50 H20         1.4297   -4.0953   -2.1390 H         1 <0>         0.1530
     51 H21         1.4199   -4.5051   -4.5652 H         1 <0>         0.1562
     52 H22        -1.2917   -7.7540   -4.0155 H         1 <0>         0.1581
@<TRIPOS>BOND
     1    1    2 1
     2    1   31 1
     3    1   32 1
     4    1   33 1
     5    2    7 ar
     6    2    3 ar
     7    3    4 ar
     8    3   34 1
     9    4    5 ar
    10    4   35 1
    11    5   10 1
    12    5    6 ar
    13    6    7 ar
    14    6    8 1
    15    7   36 1
    16    8    9 1
    17    8   37 1
    18    8   38 1
    19    9   13 1
    20    9   10 2
    21   10   11 1
    22   11   12 1
    23   11   23 1
    24   12   13 2
    25   13   14 1
    26   14   15 2
    27   14   16 am
    28   16   17 1
    29   16   39 1
    30   17   22 1
    31   17   18 1
    32   18   19 1
    33   18   40 1
    34   18   41 1
    35   19   20 1
    36   19   42 1
    37   19   43 1
    38   20   21 1
    39   20   44 1
    40   20   45 1
    41   21   22 1
    42   21   46 1
    43   21   47 1
    44   22   48 1
    45   22   49 1
    46   23   28 ar
    47   23   24 ar
    48   24   25 ar
    49   24   50 1
    50   25   26 ar
    51   25   51 1
    52   26   27 ar
    53   26   30 1
    54   27   28 ar
    55   27   52 1
    56   28   29 1
@<TRIPOS>MOLECULE
ZINC28701758
   61    63     0     0     0
SMALL
USER_CHARGES
N-[(1S,2S)-3-(4-chlorophenyl)-2-(3-cyanophenyl)-1-methyl-propyl]-2-methyl-2-[[5-(trifluoromethyl)-2-pyridyl]oxy]propanamide
@<TRIPOS>ATOM
      1 C1         -2.3215    5.2144   -1.0734 C.3       1 <0>        -0.1663
      2 C2         -0.8948    5.7507   -1.2064 C.3       1 <0>         0.1560
      3 H1         -0.9015    6.8442   -1.3253 H         1 <0>         0.0952
      4 C3         -0.0815    5.3476    0.0252 C.3       1 <0>        -0.0487
      5 H2         -0.0977    4.2540    0.1425 H         1 <0>         0.0934
      6 C4          1.3608    5.8324   -0.1350 C.3       1 <0>        -0.0756
      7 C5          2.1905    5.3305    1.0186 C.ar      1 <0>        -0.0775
      8 C6          2.3118    6.0926    2.1655 C.ar      1 <0>        -0.0955
      9 C7          3.0680    5.6303    3.2260 C.ar      1 <0>        -0.1072
     10 C8          3.7129    4.4096    3.1352 C.ar      1 <0>        -0.0366
     11 C9          3.5957    3.6499    1.9849 C.ar      1 <0>        -0.1088
     12 C10         2.8346    4.1107    0.9272 C.ar      1 <0>        -0.1046
     13 Cl1         4.6682    3.8312    4.4643 Cl        1 <0>        -0.0703
     14 C11        -0.6881    5.9734    1.2546 C.ar      1 <0>        -0.0715
     15 C12        -0.8278    7.3480    1.3322 C.ar      1 <0>        -0.0863
     16 C13        -1.3880    7.9305    2.4550 C.ar      1 <0>        -0.1138
     17 C14        -1.8027    7.1440    3.5100 C.ar      1 <0>        -0.0707
     18 C15        -1.6652    5.7565    3.4382 C.ar      1 <0>        -0.0222
     19 C16        -1.1033    5.1748    2.2997 C.ar      1 <0>        -0.0603
     20 C17        -2.0989    4.9335    4.5268 C.1       1 <0>         0.2481
     21 N1         -2.4430    4.2806    5.3905 N.1       1 <0>        -0.4097
     22 N2         -0.2722    5.1895   -2.4079 N.am      1 <0>        -0.7315
     23 C18        -0.4667    5.7773   -3.6050 C.2       1 <0>         0.5326
     24 O1         -1.1573    6.7708   -3.6876 O.2       1 <0>        -0.5176
     25 C19         0.1738    5.1999   -4.8409 C.3       1 <0>         0.1101
     26 C20         1.6946    5.1971   -4.6734 C.3       1 <0>        -0.1836
     27 C21        -0.3191    3.7664   -5.0486 C.3       1 <0>        -0.1838
     28 O2         -0.1790    5.9939   -5.9755 O.3       1 <0>        -0.2683
     29 C22         0.3195    5.6074   -7.1767 C.ar      1 <0>         0.3586
     30 C23         0.0073    6.3360   -8.3176 C.ar      1 <0>        -0.1875
     31 C24         0.5270    5.9347   -9.5358 C.ar      1 <0>         0.0130
     32 C25         1.3353    4.8065   -9.5715 C.ar      1 <0>        -0.2798
     33 C26         1.5989    4.1272   -8.3990 C.ar      1 <0>         0.1914
     34 N3          1.0934    4.5377   -7.2512 N.ar      1 <0>        -0.5303
     35 C27         1.9190    4.3289  -10.8761 C.3       1 <0>         0.5202
     36 F1          2.6907    3.1840  -10.6503 F         1 <0>        -0.1753
     37 F2          0.8838    4.0252  -11.7668 F         1 <0>        -0.1746
     38 F3          2.7244    5.3339  -11.4224 F         1 <0>        -0.1746
     39 H3         -2.9062    5.5042   -1.9589 H         1 <0>         0.0635
     40 H4         -2.7890    5.6358   -0.1713 H         1 <0>         0.0708
     41 H5         -2.2950    4.1176   -0.9944 H         1 <0>         0.0602
     42 H6          1.7743    5.4475   -1.0789 H         1 <0>         0.0835
     43 H7          1.3786    6.9322   -0.1484 H         1 <0>         0.0818
     44 H8          1.8119    7.0475    2.2346 H         1 <0>         0.1299
     45 H9          3.1591    6.2238    4.1237 H         1 <0>         0.1317
     46 H10         4.0986    2.6968    1.9135 H         1 <0>         0.1324
     47 H11         2.7428    3.5176    0.0293 H         1 <0>         0.1307
     48 H12        -0.5017    7.9687    0.5107 H         1 <0>         0.1309
     49 H13        -1.4975    9.0037    2.5075 H         1 <0>         0.1356
     50 H14        -2.2368    7.6002    4.3874 H         1 <0>         0.1330
     51 H15        -0.9944    4.1021    2.2375 H         1 <0>         0.1307
     52 H16         0.3541    4.2883   -2.3330 H         1 <0>         0.4194
     53 H17         2.1620    4.7756   -5.5755 H         1 <0>         0.1043
     54 H18         1.9661    4.5859   -3.8001 H         1 <0>         0.0762
     55 H19         2.0489    6.2277   -4.5242 H         1 <0>         0.0656
     56 H20         0.1485    3.3450   -5.9507 H         1 <0>         0.1042
     57 H21        -1.4125    3.7685   -5.1691 H         1 <0>         0.0651
     58 H22        -0.0476    3.1552   -4.1753 H         1 <0>         0.0765
     59 H23        -0.6286    7.2066   -8.2541 H         1 <0>         0.1569
     60 H24         0.3054    6.4842  -10.4388 H         1 <0>         0.1547
     61 H25         2.2270    3.2490   -8.4213 H         1 <0>         0.1762
@<TRIPOS>BOND
     1    1    2 1
     2    1   39 1
     3    1   40 1
     4    1   41 1
     5    2    3 1
     6    2    4 1
     7    2   22 1
     8    4    5 1
     9    4    6 1
    10    4   14 1
    11    6    7 1
    12    6   42 1
    13    6   43 1
    14    7   12 ar
    15    7    8 ar
    16    8    9 ar
    17    8   44 1
    18    9   10 ar
    19    9   45 1
    20   10   11 ar
    21   10   13 1
    22   11   12 ar
    23   11   46 1
    24   12   47 1
    25   14   19 ar
    26   14   15 ar
    27   15   16 ar
    28   15   48 1
    29   16   17 ar
    30   16   49 1
    31   17   18 ar
    32   17   50 1
    33   18   19 ar
    34   18   20 1
    35   19   51 1
    36   20   21 3
    37   22   23 am
    38   22   52 1
    39   23   24 2
    40   23   25 1
    41   25   26 1
    42   25   27 1
    43   25   28 1
    44   26   53 1
    45   26   54 1
    46   26   55 1
    47   27   56 1
    48   27   57 1
    49   27   58 1
    50   28   29 1
    51   29   34 ar
    52   29   30 ar
    53   30   31 ar
    54   30   59 1
    55   31   32 ar
    56   31   60 1
    57   32   33 ar
    58   32   35 1
    59   33   34 ar
    60   33   61 1
    61   35   36 1
    62   35   37 1
    63   35   38 1
@<TRIPOS>MOLECULE
ZINC13676003
   70    71     0     0     0
SMALL
USER_CHARGES
N-cyclopropyl-11-(3-hydroxy-5-pentyl-phenoxy)undecanamide
@<TRIPOS>ATOM
      1 C1         -4.2587    0.5159    9.5333 C.3       1 <0>        -0.1543
      2 C2         -3.5966    0.0589    8.2319 C.3       1 <0>        -0.1258
      3 C3         -2.5587    1.0953    7.7964 C.3       1 <0>        -0.1212
      4 C4         -1.8967    0.6384    6.4950 C.3       1 <0>        -0.1141
      5 C5         -0.8588    1.6748    6.0595 C.3       1 <0>        -0.0824
      6 C6         -0.2067    1.2247    4.7776 C.ar      1 <0>        -0.0246
      7 C7          0.9314    0.4419    4.8204 C.ar      1 <0>        -0.1812
      8 C8          1.5334    0.0258    3.6416 C.ar      1 <0>         0.1483
      9 C9          0.9900    0.3929    2.4199 C.ar      1 <0>        -0.2430
     10 C10        -0.1488    1.1821    2.3796 C.ar      1 <0>         0.1514
     11 C11        -0.7478    1.5950    3.5616 C.ar      1 <0>        -0.1601
     12 O1         -0.6816    1.5467    1.1837 O.3       1 <0>        -0.3127
     13 C12        -0.0127    1.0858    0.0080 C.3       1 <0>         0.0579
     14 C13        -0.7527    1.5927   -1.2315 C.3       1 <0>        -0.1189
     15 C14        -0.0366    1.0992   -2.4903 C.3       1 <0>        -0.1174
     16 C15        -0.7766    1.6061   -3.7298 C.3       1 <0>        -0.1187
     17 C16        -0.0604    1.1126   -4.9886 C.3       1 <0>        -0.1212
     18 C17        -0.8004    1.6195   -6.2282 C.3       1 <0>        -0.1201
     19 C18        -0.0843    1.1261   -7.4870 C.3       1 <0>        -0.1208
     20 C19        -0.8243    1.6329   -8.7265 C.3       1 <0>        -0.1201
     21 C20        -0.1081    1.1395   -9.9853 C.3       1 <0>        -0.1054
     22 C21        -0.8481    1.6463  -11.2248 C.3       1 <0>        -0.1403
     23 C22        -0.1427    1.1603  -12.4647 C.2       1 <0>         0.5151
     24 O2          0.8537    0.4760  -12.3666 O.2       1 <0>        -0.5363
     25 N1         -0.6192    1.4862  -13.6826 N.am      1 <0>        -0.7067
     26 C23         0.0665    1.0137  -14.8879 C.3       1 <0>         0.0761
     27 C24         0.2633    2.0157  -16.0273 C.3       1 <0>        -0.1931
     28 C25        -0.7617    0.8875  -16.1682 C.3       1 <0>        -0.1890
     29 O3          2.6520   -0.7447    3.6843 O.3       1 <0>        -0.4985
     30 H1         -4.9981   -0.2225    9.8436 H         1 <0>         0.0535
     31 H2         -3.5007    0.6194   10.3097 H         1 <0>         0.0536
     32 H3         -4.7490    1.4762    9.3738 H         1 <0>         0.0537
     33 H4         -4.3546   -0.0446    7.4555 H         1 <0>         0.0609
     34 H5         -3.1063   -0.9014    8.3913 H         1 <0>         0.0606
     35 H6         -1.8007    1.1989    8.5728 H         1 <0>         0.0626
     36 H7         -3.0490    2.0557    7.6369 H         1 <0>         0.0629
     37 H8         -2.6547    0.5349    5.7185 H         1 <0>         0.0649
     38 H9         -1.4064   -0.3220    6.6544 H         1 <0>         0.0639
     39 H10        -0.1008    1.7783    6.8359 H         1 <0>         0.0766
     40 H11        -1.3491    2.6351    5.9000 H         1 <0>         0.0769
     41 H12         1.3523    0.1534    5.7723 H         1 <0>         0.1296
     42 H13         1.4552    0.0672    1.5012 H         1 <0>         0.1330
     43 H14        -1.6375    2.2065    3.5307 H         1 <0>         0.1328
     44 H15         0.0021   -0.0041    0.0020 H         1 <0>         0.0624
     45 H16         1.0099    1.4631    0.0003 H         1 <0>         0.0631
     46 H17        -1.7753    1.2154   -1.2238 H         1 <0>         0.0744
     47 H18        -0.7675    2.6825   -1.2255 H         1 <0>         0.0746
     48 H19         0.9860    1.4765   -2.4981 H         1 <0>         0.0655
     49 H20        -0.0218    0.0093   -2.4963 H         1 <0>         0.0652
     50 H21        -1.7991    1.2288   -3.7221 H         1 <0>         0.0634
     51 H22        -0.7913    2.6960   -3.7239 H         1 <0>         0.0635
     52 H23         0.9622    1.4899   -4.9964 H         1 <0>         0.0619
     53 H24        -0.0456    0.0228   -4.9946 H         1 <0>         0.0617
     54 H25        -1.8230    1.2422   -6.2204 H         1 <0>         0.0611
     55 H26        -0.8152    2.7094   -6.2222 H         1 <0>         0.0612
     56 H27         0.9383    1.5033   -7.4947 H         1 <0>         0.0624
     57 H28        -0.0695    0.0362   -7.4930 H         1 <0>         0.0623
     58 H29        -1.8469    1.2556   -8.7188 H         1 <0>         0.0622
     59 H30        -0.8390    2.7228   -8.7205 H         1 <0>         0.0622
     60 H31         0.9145    1.5168   -9.9930 H         1 <0>         0.0700
     61 H32        -0.0933    0.0496   -9.9913 H         1 <0>         0.0700
     62 H33        -1.8707    1.2690  -11.2171 H         1 <0>         0.0944
     63 H34        -0.8629    2.7362  -11.2188 H         1 <0>         0.0943
     64 H35        -1.4162    2.0335  -13.7610 H         1 <0>         0.4021
     65 H36         0.8536    0.2780  -14.7231 H         1 <0>         0.1376
     66 H37        -0.1174    3.0264  -15.8801 H         1 <0>         0.0971
     67 H38         1.1798    1.9389  -16.6124 H         1 <0>         0.1032
     68 H39        -0.5191    0.0690  -16.8459 H         1 <0>         0.1045
     69 H40        -1.8168    1.1556  -16.1136 H         1 <0>         0.0976
     70 H41         2.4745   -1.6952    3.6975 H         1 <0>         0.3935
@<TRIPOS>BOND
     1    1    2 1
     2    1   30 1
     3    1   31 1
     4    1   32 1
     5    2    3 1
     6    2   33 1
     7    2   34 1
     8    3    4 1
     9    3   35 1
    10    3   36 1
    11    4    5 1
    12    4   37 1
    13    4   38 1
    14    5    6 1
    15    5   39 1
    16    5   40 1
    17    6   11 ar
    18    6    7 ar
    19    7    8 ar
    20    7   41 1
    21    8    9 ar
    22    8   29 1
    23    9   10 ar
    24    9   42 1
    25   10   11 ar
    26   10   12 1
    27   11   43 1
    28   12   13 1
    29   13   14 1
    30   13   44 1
    31   13   45 1
    32   14   15 1
    33   14   46 1
    34   14   47 1
    35   15   16 1
    36   15   48 1
    37   15   49 1
    38   16   17 1
    39   16   50 1
    40   16   51 1
    41   17   18 1
    42   17   52 1
    43   17   53 1
    44   18   19 1
    45   18   54 1
    46   18   55 1
    47   19   20 1
    48   19   56 1
    49   19   57 1
    50   20   21 1
    51   20   58 1
    52   20   59 1
    53   21   22 1
    54   21   60 1
    55   21   61 1
    56   22   23 1
    57   22   62 1
    58   22   63 1
    59   23   24 2
    60   23   25 am
    61   25   26 1
    62   25   64 1
    63   26   28 1
    64   26   27 1
    65   26   65 1
    66   27   28 1
    67   27   66 1
    68   27   67 1
    69   28   68 1
    70   28   69 1
    71   29   70 1
@<TRIPOS>MOLECULE
ZINC01530832
   53    54     0     0     0
SMALL
USER_CHARGES
2-[(1R,6S)-6-isopropenyl-3-methyl-1-cyclohex-2-enyl]-5-pentyl-benzene-1,3-diol
@<TRIPOS>ATOM
      1 C1         -3.3196    6.4132   -5.8020 C.3       1 <0>        -0.1541
      2 C2         -3.2863    6.3150   -4.2755 C.3       1 <0>        -0.1260
      3 C3         -3.3521    4.8447   -3.8575 C.3       1 <0>        -0.1206
      4 C4         -3.3188    4.7465   -2.3310 C.3       1 <0>        -0.1143
      5 C5         -3.3846    3.2762   -1.9130 C.3       1 <0>        -0.0810
      6 C6         -3.3518    3.1795   -0.4094 C.ar      1 <0>        -0.0524
      7 C7         -2.1418    3.0675    0.2483 C.ar      1 <0>        -0.1510
      8 C8         -2.1088    2.9832    1.6331 C.ar      1 <0>         0.1317
      9 C9         -3.2917    3.0003    2.3559 C.ar      1 <0>        -0.1188
     10 C10        -4.5047    3.1074    1.6933 C.ar      1 <0>         0.1296
     11 C11        -4.5322    3.1972    0.3087 C.ar      1 <0>        -0.1551
     12 O1         -5.6660    3.1239    2.3990 O.3       1 <0>        -0.4802
     13 C12        -3.2590    2.9021    3.8593 C.3       1 <0>         0.0081
     14 H1         -2.3157    2.4542    4.1717 H         1 <0>         0.0828
     15 C13        -4.3947    2.0394    4.3262 C.2       1 <0>        -0.1711
     16 C14        -5.4859    2.4980    4.8503 C.2       1 <0>        -0.0915
     17 C15        -5.7636    3.9558    5.0734 C.3       1 <0>        -0.0746
     18 C16        -4.8097    4.8085    4.2339 C.3       1 <0>        -0.1184
     19 C17        -3.3794    4.3035    4.4619 C.3       1 <0>        -0.0402
     20 H2         -3.1716    4.2617    5.5311 H         1 <0>         0.0750
     21 C18        -2.4013    5.2306    3.7874 C.2       1 <0>        -0.1024
     22 C19        -1.2945    5.5726    4.3990 C.2       1 <0>        -0.1962
     23 C20        -2.6965    5.7643    2.4093 C.3       1 <0>        -0.1254
     24 C21        -6.5435    1.5062    5.2615 C.3       1 <0>        -0.1273
     25 O2         -0.9181    2.8787    2.2798 O.3       1 <0>        -0.4872
     26 H3         -2.4663    5.8784   -6.2192 H         1 <0>         0.0534
     27 H4         -4.2433    5.9705   -6.1746 H         1 <0>         0.0534
     28 H5         -3.2728    7.4607   -6.0999 H         1 <0>         0.0537
     29 H6         -4.1396    6.8498   -3.8584 H         1 <0>         0.0608
     30 H7         -2.3626    6.7577   -3.9030 H         1 <0>         0.0609
     31 H8         -2.4988    4.3099   -4.2746 H         1 <0>         0.0620
     32 H9         -4.2758    4.4020   -4.2300 H         1 <0>         0.0620
     33 H10        -4.1721    5.2813   -1.9139 H         1 <0>         0.0639
     34 H11        -2.3951    5.1892   -1.9585 H         1 <0>         0.0639
     35 H12        -4.3083    2.8335   -2.2855 H         1 <0>         0.0737
     36 H13        -2.5313    2.7414   -2.3301 H         1 <0>         0.0737
     37 H14        -1.2209    3.0494   -0.3155 H         1 <0>         0.1279
     38 H15        -5.4769    3.2807   -0.2079 H         1 <0>         0.1281
     39 H16        -6.0488    2.2484    2.5470 H         1 <0>         0.3794
     40 H17        -4.2957    0.9694    4.2180 H         1 <0>         0.1008
     41 H18        -5.6262    4.1924    6.1285 H         1 <0>         0.0657
     42 H19        -6.7919    4.1739    4.7851 H         1 <0>         0.0723
     43 H20        -4.8835    5.8515    4.5417 H         1 <0>         0.0561
     44 H21        -5.0660    4.7190    3.1782 H         1 <0>         0.0970
     45 H22        -1.0829    5.1902    5.3866 H         1 <0>         0.0920
     46 H23        -0.5936    6.2371    3.9156 H         1 <0>         0.0931
     47 H24        -3.1613    6.7467    2.4920 H         1 <0>         0.0570
     48 H25        -1.7675    5.8482    1.8455 H         1 <0>         0.0579
     49 H26        -3.3743    5.0839    1.8937 H         1 <0>         0.0739
     50 H27        -7.2207    1.3298    4.4258 H         1 <0>         0.0665
     51 H28        -6.0694    0.5679    5.5493 H         1 <0>         0.0610
     52 H29        -7.1053    1.9037    6.1067 H         1 <0>         0.0634
     53 H30        -0.6538    1.9688    2.4728 H         1 <0>         0.3868
@<TRIPOS>BOND
     1    1    2 1
     2    1   26 1
     3    1   27 1
     4    1   28 1
     5    2    3 1
     6    2   29 1
     7    2   30 1
     8    3    4 1
     9    3   31 1
    10    3   32 1
    11    4    5 1
    12    4   33 1
    13    4   34 1
    14    5    6 1
    15    5   35 1
    16    5   36 1
    17    6   11 ar
    18    6    7 ar
    19    7    8 ar
    20    7   37 1
    21    8    9 ar
    22    8   25 1
    23    9   10 ar
    24    9   13 1
    25   10   11 ar
    26   10   12 1
    27   11   38 1
    28   12   39 1
    29   13   14 1
    30   13   19 1
    31   13   15 1
    32   15   16 2
    33   15   40 1
    34   16   17 1
    35   16   24 1
    36   17   18 1
    37   17   41 1
    38   17   42 1
    39   18   19 1
    40   18   43 1
    41   18   44 1
    42   19   20 1
    43   19   21 1
    44   21   22 2
    45   21   23 1
    46   22   45 1
    47   22   46 1
    48   23   47 1
    49   23   48 1
    50   23   49 1
    51   24   50 1
    52   24   51 1
    53   24   52 1
    54   25   53 1
@<TRIPOS>MOLECULE
ZINC28710494
   52    55     0     0     0
SMALL
USER_CHARGES
1-naphthyl-(4-pentoxy-1-naphthyl)methanone
@<TRIPOS>ATOM
      1 C1          3.2997   16.2947   -0.2986 C.3       1 <0>        -0.1561
      2 C2          1.8680   15.7611   -0.2177 C.3       1 <0>        -0.1247
      3 C3          1.8939   14.2313   -0.2048 C.3       1 <0>        -0.1185
      4 C4          0.4623   13.6977   -0.1239 C.3       1 <0>        -0.1207
      5 C5          0.4881   12.1680   -0.1109 C.3       1 <0>         0.0538
      6 O1         -0.8490   11.6696   -0.0354 O.3       1 <0>        -0.3049
      7 C6         -1.0035   10.3234   -0.0146 C.ar      1 <0>         0.1742
      8 C7          0.1066    9.5051   -0.0653 C.ar      1 <0>        -0.2336
      9 C8         -0.0066    8.1267   -0.0426 C.ar      1 <0>        -0.0235
     10 C9         -1.2574    7.5177    0.0246 C.ar      1 <0>        -0.1880
     11 C10        -2.4512    8.3611    0.0805 C.ar      1 <0>         0.0127
     12 C11        -2.2987    9.7675    0.0592 C.ar      1 <0>        -0.0735
     13 C12        -3.4400   10.5828    0.1129 C.ar      1 <0>        -0.0759
     14 C13        -4.6744   10.0105    0.1848 C.ar      1 <0>        -0.1289
     15 C14        -4.8218    8.6264    0.2057 C.ar      1 <0>        -0.0879
     16 C15        -3.7336    7.8058    0.1548 C.ar      1 <0>        -0.1241
     17 C16        -1.3754    6.0526    0.0450 C.2       1 <0>         0.4584
     18 O2         -1.1182    5.4354    1.0623 O.2       1 <0>        -0.4375
     19 C17        -1.8053    5.3308   -1.1663 C.ar      1 <0>        -0.1644
     20 C18        -2.2122    6.0253   -2.2992 C.ar      1 <0>        -0.0393
     21 C19        -2.6168    5.3430   -3.4380 C.ar      1 <0>        -0.1393
     22 C20        -2.6322    3.9826   -3.4930 C.ar      1 <0>        -0.0625
     23 C21        -2.2340    3.2161   -2.3849 C.ar      1 <0>        -0.0680
     24 C22        -1.8132    3.8698   -1.2009 C.ar      1 <0>        -0.0113
     25 C23        -1.4162    3.1096   -0.0946 C.ar      1 <0>        -0.1210
     26 C24        -1.4441    1.7485   -0.1674 C.ar      1 <0>        -0.1070
     27 C25        -1.8522    1.1025   -1.3319 C.ar      1 <0>        -0.1181
     28 C26        -2.2448    1.8111   -2.4263 C.ar      1 <0>        -0.1033
     29 H1          3.2811   17.3945   -0.3079 H         1 <0>         0.0561
     30 H2          3.7761   15.9282   -1.2199 H         1 <0>         0.0548
     31 H3          3.8712   15.9450    0.5738 H         1 <0>         0.0548
     32 H4          1.3916   16.1276    0.7036 H         1 <0>         0.0639
     33 H5          1.2965   16.1108   -1.0901 H         1 <0>         0.0638
     34 H6          2.3703   13.8649   -1.1261 H         1 <0>         0.0663
     35 H7          2.4654   13.8816    0.6676 H         1 <0>         0.0664
     36 H8         -0.0141   14.0642    0.7974 H         1 <0>         0.0760
     37 H9         -0.1092   14.0474   -0.9963 H         1 <0>         0.0760
     38 H10         0.9645   11.8015   -1.0321 H         1 <0>         0.0682
     39 H11         1.0595   11.8183    0.7615 H         1 <0>         0.0681
     40 H12         1.0882    9.9520   -0.1208 H         1 <0>         0.1347
     41 H13         0.8837    7.5165   -0.0799 H         1 <0>         0.1312
     42 H14        -3.3402   11.6581    0.0978 H         1 <0>         0.1354
     43 H15        -5.5512   10.6397    0.2264 H         1 <0>         0.1285
     44 H16        -5.8110    8.1967    0.2634 H         1 <0>         0.1284
     45 H17        -3.8609    6.7335    0.1721 H         1 <0>         0.1264
     46 H18        -2.2138    7.1052   -2.2933 H         1 <0>         0.1330
     47 H19        -2.9285    5.9069   -4.3047 H         1 <0>         0.1304
     48 H20        -2.9534    3.4878   -4.3976 H         1 <0>         0.1318
     49 H21        -1.0937    3.5984    0.8128 H         1 <0>         0.1580
     50 H22        -1.1414    1.1631    0.6882 H         1 <0>         0.1259
     51 H23        -1.8617    0.0230   -1.3659 H         1 <0>         0.1251
     52 H24        -2.5631    1.2966   -3.3209 H         1 <0>         0.1297
@<TRIPOS>BOND
     1    1    2 1
     2    1   29 1
     3    1   30 1
     4    1   31 1
     5    2    3 1
     6    2   32 1
     7    2   33 1
     8    3    4 1
     9    3   34 1
    10    3   35 1
    11    4    5 1
    12    4   36 1
    13    4   37 1
    14    5    6 1
    15    5   38 1
    16    5   39 1
    17    6    7 1
    18    7   12 ar
    19    7    8 ar
    20    8    9 ar
    21    8   40 1
    22    9   10 ar
    23    9   41 1
    24   10   11 ar
    25   10   17 1
    26   11   16 ar
    27   11   12 ar
    28   12   13 ar
    29   13   14 ar
    30   13   42 1
    31   14   15 ar
    32   14   43 1
    33   15   16 ar
    34   15   44 1
    35   16   45 1
    36   17   18 2
    37   17   19 1
    38   19   24 ar
    39   19   20 ar
    40   20   21 ar
    41   20   46 1
    42   21   22 ar
    43   21   47 1
    44   22   23 ar
    45   22   48 1
    46   23   28 ar
    47   23   24 ar
    48   24   25 ar
    49   25   26 ar
    50   25   49 1
    51   26   27 ar
    52   26   50 1
    53   27   28 ar
    54   27   51 1
    55   28   52 1
@<TRIPOS>MOLECULE
ZINC01509872
   51    54     0     0     0
SMALL
USER_CHARGES

@<TRIPOS>ATOM
      1 C1         -0.5254    1.4732    0.1373 C.3       1 <0>        -0.2007
      2 C2         -0.3098   -0.0173    0.0833 C.ar      1 <0>         0.0599
      3 C3         -0.3350   -0.6732   -1.1351 C.ar      1 <0>        -0.1526
      4 C4         -0.1381   -2.0371   -1.1918 C.ar      1 <0>        -0.0023
      5 C5          0.0871   -2.7563   -0.0160 C.ar      1 <0>        -0.1462
      6 C6          0.1113   -2.0883    1.2097 C.ar      1 <0>         0.0488
      7 C7         -0.0820   -0.7229    1.2513 C.ar      1 <0>        -0.6948
      8 S1         -0.0454    0.1233    2.7964 S.o2      1 <0>         2.6934
      9 O1         -1.1487    1.0189    2.7952 O.2       1 <0>        -0.9474
     10 O2          0.1295   -0.8686    3.7987 O.2       1 <0>        -0.9483
     11 N1          1.3222    1.0571    2.8109 N.pl3     1 <0>        -0.9930
     12 C8          2.6102    0.4917    3.2352 C.3       1 <0>         0.1190
     13 C9          3.6472    0.7489    2.1373 C.3       1 <0>        -0.1375
     14 C10         3.6909    2.2460    1.8230 C.3       1 <0>        -0.1175
     15 C11         2.3225    2.7018    1.3113 C.3       1 <0>        -0.1426
     16 C12         1.2717    2.4651    2.3941 C.3       1 <0>         0.1078
     17 C13         0.2984   -4.2173   -0.0690 C.2       1 <0>         0.5148
     18 O3          0.4941   -4.8403    0.9555 O.2       1 <0>        -0.4812
     19 O4          0.2740   -4.8590   -1.2533 O.3       1 <0>        -0.2801
     20 C14         0.5767   -6.1832   -1.2675 C.ar      1 <0>         0.1085
     21 C15         1.8522   -6.5934   -1.5347 C.ar      1 <0>        -0.0966
     22 C16         2.1812   -7.9457   -1.5536 C.ar      1 <0>        -0.1066
     23 C17         1.2403   -8.8990   -1.3057 C.ar      1 <0>        -0.0854
     24 C18        -0.0816   -8.5166   -1.0266 C.ar      1 <0>        -0.0954
     25 C19        -0.4228   -7.1420   -1.0007 C.ar      1 <0>         0.1245
     26 N2         -1.6782   -6.7729   -0.7315 N.ar      1 <0>        -0.4693
     27 C20        -2.6110   -7.6598   -0.4833 C.ar      1 <0>         0.1383
     28 C21        -2.3422   -9.0270   -0.4876 C.ar      1 <0>        -0.1703
     29 C22        -1.0815   -9.4727   -0.7658 C.ar      1 <0>        -0.0535
     30 H1          0.4397    1.9796    0.1519 H         1 <0>         0.0999
     31 H2         -1.0891    1.7908   -0.7399 H         1 <0>         0.0910
     32 H3         -1.0827    1.7273    1.0389 H         1 <0>         0.1188
     33 H4         -0.5097   -0.1159   -2.0435 H         1 <0>         0.1445
     34 H5         -0.1584   -2.5478   -2.1432 H         1 <0>         0.1486
     35 H6          0.2845   -2.6385    2.1227 H         1 <0>         0.1578
     36 H7          2.9318    0.9693    4.1607 H         1 <0>         0.0800
     37 H8          2.5039   -0.5815    3.3932 H         1 <0>         0.0895
     38 H9          4.6284    0.4201    2.4794 H         1 <0>         0.0779
     39 H10         3.3707    0.1966    1.2391 H         1 <0>         0.0665
     40 H11         3.9432    2.7997    2.7274 H         1 <0>         0.0674
     41 H12         4.4455    2.4349    1.0595 H         1 <0>         0.0664
     42 H13         2.3609    3.7630    1.0657 H         1 <0>         0.0803
     43 H14         2.0585    2.1311    0.4210 H         1 <0>         0.0706
     44 H15         0.2825    2.6935    1.9973 H         1 <0>         0.0981
     45 H16         1.4818    3.1072    3.2495 H         1 <0>         0.0798
     46 H17         2.6167   -5.8572   -1.7346 H         1 <0>         0.1396
     47 H18         3.1969   -8.2435   -1.7683 H         1 <0>         0.1399
     48 H19         1.5099   -9.9446   -1.3241 H         1 <0>         0.1390
     49 H20        -3.6143   -7.3219   -0.2695 H         1 <0>         0.1631
     50 H21        -3.1318   -9.7338   -0.2793 H         1 <0>         0.1428
     51 H22        -0.8553  -10.5287   -0.7737 H         1 <0>         0.1449
@<TRIPOS>BOND
     1    1    2 1
     2    1   30 1
     3    1   31 1
     4    1   32 1
     5    2    7 ar
     6    2    3 ar
     7    3    4 ar
     8    3   33 1
     9    4    5 ar
    10    4   34 1
    11    5    6 ar
    12    5   17 1
    13    6    7 ar
    14    6   35 1
    15    7    8 1
    16    8    9 2
    17    8   10 2
    18    8   11 1
    19   11   16 1
    20   11   12 1
    21   12   13 1
    22   12   36 1
    23   12   37 1
    24   13   14 1
    25   13   38 1
    26   13   39 1
    27   14   15 1
    28   14   40 1
    29   14   41 1
    30   15   16 1
    31   15   42 1
    32   15   43 1
    33   16   44 1
    34   16   45 1
    35   17   18 2
    36   17   19 1
    37   19   20 1
    38   20   25 ar
    39   20   21 ar
    40   21   22 ar
    41   21   46 1
    42   22   23 ar
    43   22   47 1
    44   23   24 ar
    45   23   48 1
    46   24   29 ar
    47   24   25 ar
    48   25   26 ar
    49   26   27 ar
    50   27   28 ar
    51   27   49 1
    52   28   29 ar
    53   28   50 1
    54   29   51 1
@<TRIPOS>MOLECULE
ZINC14982453
   41    43     0     0     0
SMALL
USER_CHARGES
5-(4-chlorophenyl)-N-(3,5-dimethoxyphenyl)furan-2-carboxamide
@<TRIPOS>ATOM
      1 C1          2.6766   -2.4088    1.0951 C.3       1 <0>         0.0261
      2 O1          1.4013   -1.7670    1.1562 O.3       1 <0>        -0.3115
      3 C2          1.2979   -0.5435    0.5738 C.ar      1 <0>         0.1852
      4 C3          0.0890    0.1348    0.5966 C.ar      1 <0>        -0.2114
      5 C4         -0.0165    1.3849    0.0016 C.ar      1 <0>         0.2188
      6 C5          1.0890    1.9545   -0.6158 C.ar      1 <0>        -0.1889
      7 C6          2.2972    1.2750   -0.6373 C.ar      1 <0>         0.1853
      8 C7          2.4018    0.0264   -0.0427 C.ar      1 <0>        -0.3081
      9 O2          3.3796    1.8328   -1.2408 O.3       1 <0>        -0.3088
     10 C8          4.5923    1.0771   -1.2250 C.3       1 <0>         0.0257
     11 N1         -1.2367    2.0671    0.0192 N.am      1 <0>        -0.6612
     12 C9         -1.2562    3.4103    0.1283 C.2       1 <0>         0.6085
     13 O3         -0.2122    4.0363    0.1269 O.2       1 <0>        -0.4884
     14 C10        -2.5336    4.1167    0.2485 C.2       1 <0>        -0.0814
     15 C11        -2.6960    5.4796    0.3719 C.2       1 <0>        -0.1003
     16 C12        -4.0719    5.7162    0.4533 C.2       1 <0>        -0.1969
     17 C13        -4.6928    4.5018    0.3869 C.2       1 <0>         0.0677
     18 O4         -3.7567    3.5459    0.2637 O.3       1 <0>        -0.1559
     19 C14        -6.1512    4.2764    0.4422 C.ar      1 <0>        -0.0249
     20 C15        -7.0233    5.3587    0.5787 C.ar      1 <0>        -0.0777
     21 C16        -8.3844    5.1420    0.6249 C.ar      1 <0>        -0.1062
     22 C17        -8.8865    3.8536    0.5470 C.ar      1 <0>        -0.0241
     23 C18        -8.0266    2.7757    0.4168 C.ar      1 <0>        -0.1072
     24 C19        -6.6638    2.9796    0.3641 C.ar      1 <0>        -0.0837
     25 Cl1       -10.6009    3.5885    0.6132 Cl        1 <0>        -0.0594
     26 H1          2.9599   -2.5557    0.0529 H         1 <0>         0.0569
     27 H2          3.4213   -1.7852    1.5897 H         1 <0>         0.0568
     28 H3          2.6214   -3.3753    1.5962 H         1 <0>         0.1037
     29 H4         -0.7703   -0.3088    1.0774 H         1 <0>         0.1377
     30 H5          1.0076    2.9266   -1.0792 H         1 <0>         0.1505
     31 H6          3.3434   -0.5023   -0.0595 H         1 <0>         0.1371
     32 H7          5.3749    1.6353   -1.7390 H         1 <0>         0.1038
     33 H8          4.8936    0.8952   -0.1934 H         1 <0>         0.0565
     34 H9          4.4336    0.1246   -1.7306 H         1 <0>         0.0564
     35 H10        -2.0692    1.5737   -0.0472 H         1 <0>         0.4196
     36 H11        -1.9121    6.2220    0.3979 H         1 <0>         0.1686
     37 H12        -4.5527    6.6779    0.5543 H         1 <0>         0.1641
     38 H13        -6.6327    6.3635    0.6437 H         1 <0>         0.1419
     39 H14        -9.0601    5.9784    0.7263 H         1 <0>         0.1435
     40 H15        -8.4242    1.7733    0.3569 H         1 <0>         0.1416
     41 H16        -5.9942    2.1382    0.2630 H         1 <0>         0.1400
@<TRIPOS>BOND
     1    1    2 1
     2    1   26 1
     3    1   27 1
     4    1   28 1
     5    2    3 1
     6    3    8 ar
     7    3    4 ar
     8    4    5 ar
     9    4   29 1
    10    5    6 ar
    11    5   11 1
    12    6    7 ar
    13    6   30 1
    14    7    8 ar
    15    7    9 1
    16    8   31 1
    17    9   10 1
    18   10   32 1
    19   10   33 1
    20   10   34 1
    21   11   12 am
    22   11   35 1
    23   12   13 2
    24   12   14 1
    25   14   18 1
    26   14   15 2
    27   15   16 1
    28   15   36 1
    29   16   17 2
    30   16   37 1
    31   17   18 1
    32   17   19 1
    33   19   24 ar
    34   19   20 ar
    35   20   21 ar
    36   20   38 1
    37   21   22 ar
    38   21   39 1
    39   22   23 ar
    40   22   25 1
    41   23   24 ar
    42   23   40 1
    43   24   41 1
@<TRIPOS>MOLECULE
ZINC09673165
   62    65     0     0     0
SMALL
USER_CHARGES

@<TRIPOS>ATOM
      1 C1         -0.0184    1.5028    0.0103 C.3       1 <0>        -0.1013
      2 C2          0.0021   -0.0041    0.0020 C.2       1 <0>        -0.0578
      3 C3          0.0088   -0.8769   -1.1714 C.ar      1 <0>        -0.1642
      4 C4         -0.0013   -0.6545   -2.5506 C.ar      1 <0>         0.0561
      5 C5          0.0091   -1.7181   -3.4080 C.ar      1 <0>        -0.6956
      6 C6          0.0293   -3.0169   -2.9177 C.ar      1 <0>         0.0044
      7 C7          0.0391   -3.2575   -1.5610 C.ar      1 <0>        -0.1237
      8 C8          0.0297   -2.1913   -0.6689 C.ar      1 <0>         0.1222
      9 O1          0.0350   -2.1131    0.6760 O.3       1 <0>        -0.1799
     10 C9          0.0240   -0.8264    1.0826 C.2       1 <0>        -0.0452
     11 C10         0.0311   -0.3820    2.4836 C.2       1 <0>         0.6028
     12 O2          0.0168    0.8061    2.7450 O.2       1 <0>        -0.5061
     13 N1          0.0534   -1.2907    3.4787 N.am      1 <0>        -0.7191
     14 C11         0.0604   -0.8478    4.8751 C.3       1 <0>         0.1236
     15 C12         0.0864   -2.0684    5.7972 C.3       1 <0>        -0.0920
     16 C13         0.0937   -1.6128    7.2337 C.ar      1 <0>        -0.0859
     17 C14         1.2939   -1.3815    7.8794 C.ar      1 <0>        -0.1134
     18 C15         1.3006   -0.9635    9.1970 C.ar      1 <0>        -0.1178
     19 C16         0.1070   -0.7764    9.8688 C.ar      1 <0>        -0.1194
     20 C17        -1.0932   -1.0069    9.2228 C.ar      1 <0>        -0.1177
     21 C18        -1.1000   -1.4207    7.9039 C.ar      1 <0>        -0.1133
     22 S1         -0.0036   -1.4396   -5.1478 S.o2      1 <0>         2.6925
     23 O3         -0.5411   -2.6127   -5.7430 O.2       1 <0>        -0.9489
     24 O4         -0.5735   -0.1536   -5.3491 O.2       1 <0>        -0.9502
     25 N2          1.5747   -1.3402   -5.6394 N.pl3     1 <0>        -0.9945
     26 C19         2.2735   -0.0479   -5.6559 C.3       1 <0>         0.1224
     27 C20         3.5721   -0.1793   -4.8539 C.3       1 <0>        -0.1085
     28 H1          3.3355   -0.3667   -3.8066 H         1 <0>         0.0740
     29 C21         4.3937   -1.3454   -5.4085 C.3       1 <0>        -0.1077
     30 C22         3.6009   -2.6460   -5.2607 C.3       1 <0>        -0.1087
     31 H2          3.3640   -2.8102   -4.2094 H         1 <0>         0.0744
     32 C23         2.3045   -2.5435   -6.0614 C.3       1 <0>         0.1229
     33 C24         4.4365   -3.8157   -5.7845 C.3       1 <0>        -0.1479
     34 C25         4.3783    1.1157   -4.9716 C.3       1 <0>        -0.1483
     35 H3          1.0042    1.8801    0.0026 H         1 <0>         0.0837
     36 H4         -0.5455    1.8639   -0.8728 H         1 <0>         0.0751
     37 H5         -0.5286    1.8543    0.9071 H         1 <0>         0.0958
     38 H6         -0.0177    0.3537   -2.9372 H         1 <0>         0.1481
     39 H7          0.0370   -3.8479   -3.6075 H         1 <0>         0.1545
     40 H8          0.0541   -4.2722   -1.1914 H         1 <0>         0.1472
     41 H9          0.0647   -2.2380    3.2703 H         1 <0>         0.4076
     42 H10         0.9436   -0.2356    5.0577 H         1 <0>         0.0762
     43 H11        -0.8361   -0.2607    5.0746 H         1 <0>         0.0762
     44 H12        -0.7968   -2.6805    5.6147 H         1 <0>         0.0817
     45 H13         0.9829   -2.6554    5.5977 H         1 <0>         0.0817
     46 H14         2.2264   -1.5276    7.3545 H         1 <0>         0.1224
     47 H15         2.2383   -0.7835    9.7017 H         1 <0>         0.1235
     48 H16         0.1122   -0.4506   10.8985 H         1 <0>         0.1228
     49 H17        -2.0257   -0.8610    9.7478 H         1 <0>         0.1235
     50 H18        -2.0377   -1.5971    7.3981 H         1 <0>         0.1225
     51 H19         2.5056    0.2289   -6.6843 H         1 <0>         0.0795
     52 H20         1.6405    0.7157   -5.2038 H         1 <0>         0.0907
     53 H21         4.6089   -1.1691   -6.4624 H         1 <0>         0.0674
     54 H22         5.3295   -1.4256   -4.8555 H         1 <0>         0.0665
     55 H23         1.6919   -3.4260   -5.8768 H         1 <0>         0.0915
     56 H24         2.5391   -2.4747   -7.1237 H         1 <0>         0.0787
     57 H25         5.3612   -3.8870   -5.2118 H         1 <0>         0.0595
     58 H26         3.8715   -4.7419   -5.6790 H         1 <0>         0.0589
     59 H27         4.6722   -3.6517   -6.8360 H         1 <0>         0.0590
     60 H28         3.7914    1.9460   -4.5787 H         1 <0>         0.0588
     61 H29         5.3021    1.0217   -4.4008 H         1 <0>         0.0595
     62 H30         4.6156    1.3021   -6.0190 H         1 <0>         0.0592
@<TRIPOS>BOND
     1    1    2 1
     2    1   35 1
     3    1   36 1
     4    1   37 1
     5    2   10 2
     6    2    3 1
     7    3    8 ar
     8    3    4 ar
     9    4    5 ar
    10    4   38 1
    11    5    6 ar
    12    5   22 1
    13    6    7 ar
    14    6   39 1
    15    7    8 ar
    16    7   40 1
    17    8    9 1
    18    9   10 1
    19   10   11 1
    20   11   12 2
    21   11   13 am
    22   13   14 1
    23   13   41 1
    24   14   15 1
    25   14   42 1
    26   14   43 1
    27   15   16 1
    28   15   44 1
    29   15   45 1
    30   16   21 ar
    31   16   17 ar
    32   17   18 ar
    33   17   46 1
    34   18   19 ar
    35   18   47 1
    36   19   20 ar
    37   19   48 1
    38   20   21 ar
    39   20   49 1
    40   21   50 1
    41   22   23 2
    42   22   24 2
    43   22   25 1
    44   25   32 1
    45   25   26 1
    46   26   27 1
    47   26   51 1
    48   26   52 1
    49   27   28 1
    50   27   29 1
    51   27   34 1
    52   29   30 1
    53   29   53 1
    54   29   54 1
    55   30   31 1
    56   30   32 1
    57   30   33 1
    58   32   55 1
    59   32   56 1
    60   33   57 1
    61   33   58 1
    62   33   59 1
    63   34   60 1
    64   34   61 1
    65   34   62 1
@<TRIPOS>MOLECULE
ZINC09673166
   62    65     0     0     0
SMALL
USER_CHARGES

@<TRIPOS>ATOM
      1 C1         -0.0184    1.5028    0.0103 C.3       1 <0>        -0.1014
      2 C2          0.0021   -0.0041    0.0020 C.2       1 <0>        -0.0574
      3 C3          0.0088   -0.8769   -1.1714 C.ar      1 <0>        -0.1629
      4 C4         -0.0013   -0.6545   -2.5506 C.ar      1 <0>         0.0586
      5 C5          0.0091   -1.7181   -3.4080 C.ar      1 <0>        -0.6957
      6 C6          0.0293   -3.0169   -2.9177 C.ar      1 <0>         0.0048
      7 C7          0.0391   -3.2575   -1.5610 C.ar      1 <0>        -0.1238
      8 C8          0.0297   -2.1913   -0.6689 C.ar      1 <0>         0.1229
      9 O1          0.0350   -2.1131    0.6760 O.3       1 <0>        -0.1801
     10 C9          0.0240   -0.8264    1.0826 C.2       1 <0>        -0.0453
     11 C10         0.0311   -0.3820    2.4836 C.2       1 <0>         0.6026
     12 O2          0.0168    0.8061    2.7450 O.2       1 <0>        -0.5063
     13 N1          0.0534   -1.2907    3.4787 N.am      1 <0>        -0.7192
     14 C11         0.0604   -0.8478    4.8751 C.3       1 <0>         0.1237
     15 C12         0.0864   -2.0684    5.7972 C.3       1 <0>        -0.0920
     16 C13         0.0937   -1.6128    7.2337 C.ar      1 <0>        -0.0859
     17 C14         1.2939   -1.3815    7.8794 C.ar      1 <0>        -0.1134
     18 C15         1.3006   -0.9635    9.1970 C.ar      1 <0>        -0.1177
     19 C16         0.1070   -0.7764    9.8688 C.ar      1 <0>        -0.1194
     20 C17        -1.0932   -1.0069    9.2228 C.ar      1 <0>        -0.1177
     21 C18        -1.1000   -1.4207    7.9039 C.ar      1 <0>        -0.1133
     22 S1         -0.0036   -1.4396   -5.1478 S.o2      1 <0>         2.6915
     23 O3         -0.5411   -2.6127   -5.7430 O.2       1 <0>        -0.9497
     24 O4         -0.5735   -0.1536   -5.3491 O.2       1 <0>        -0.9506
     25 N2          1.5747   -1.3402   -5.6394 N.pl3     1 <0>        -0.9922
     26 C19         2.2735   -0.0479   -5.6559 C.3       1 <0>         0.1227
     27 C20         3.5721   -0.1793   -4.8539 C.3       1 <0>        -0.1073
     28 H1          4.1467    0.7431   -4.9382 H         1 <0>         0.0850
     29 C21         4.3937   -1.3454   -5.4085 C.3       1 <0>        -0.1071
     30 C22         3.6009   -2.6460   -5.2607 C.3       1 <0>        -0.1110
     31 H2          3.3640   -2.8102   -4.2094 H         1 <0>         0.0783
     32 C23         2.3045   -2.5435   -6.0614 C.3       1 <0>         0.1236
     33 C24         4.4365   -3.8157   -5.7845 C.3       1 <0>        -0.1481
     34 C25         3.2400   -0.4416   -3.3836 C.3       1 <0>        -0.1553
     35 H3          1.0042    1.8801    0.0026 H         1 <0>         0.0835
     36 H4         -0.5455    1.8639   -0.8728 H         1 <0>         0.0749
     37 H5         -0.5286    1.8543    0.9071 H         1 <0>         0.0956
     38 H6         -0.0177    0.3537   -2.9372 H         1 <0>         0.1472
     39 H7          0.0370   -3.8479   -3.6075 H         1 <0>         0.1540
     40 H8          0.0541   -4.2722   -1.1914 H         1 <0>         0.1466
     41 H9          0.0647   -2.2380    3.2703 H         1 <0>         0.4076
     42 H10         0.9436   -0.2356    5.0577 H         1 <0>         0.0761
     43 H11        -0.8361   -0.2607    5.0746 H         1 <0>         0.0761
     44 H12        -0.7968   -2.6805    5.6147 H         1 <0>         0.0817
     45 H13         0.9829   -2.6554    5.5977 H         1 <0>         0.0816
     46 H14         2.2264   -1.5276    7.3545 H         1 <0>         0.1223
     47 H15         2.2383   -0.7835    9.7017 H         1 <0>         0.1235
     48 H16         0.1122   -0.4506   10.8985 H         1 <0>         0.1228
     49 H17        -2.0257   -0.8610    9.7478 H         1 <0>         0.1235
     50 H18        -2.0377   -1.5971    7.3981 H         1 <0>         0.1225
     51 H19         2.5056    0.2289   -6.6843 H         1 <0>         0.0795
     52 H20         1.6405    0.7157   -5.2038 H         1 <0>         0.0908
     53 H21         4.6089   -1.1691   -6.4624 H         1 <0>         0.0669
     54 H22         5.3295   -1.4256   -4.8555 H         1 <0>         0.0661
     55 H23         1.6919   -3.4260   -5.8768 H         1 <0>         0.0909
     56 H24         2.5391   -2.4747   -7.1237 H         1 <0>         0.0786
     57 H25         5.3612   -3.8870   -5.2118 H         1 <0>         0.0591
     58 H26         3.8715   -4.7419   -5.6790 H         1 <0>         0.0584
     59 H27         4.6722   -3.6517   -6.8360 H         1 <0>         0.0585
     60 H28         2.6664   -1.3647   -3.2997 H         1 <0>         0.0598
     61 H29         4.1643   -0.5350   -2.8134 H         1 <0>         0.0576
     62 H30         2.6527    0.3881   -2.9902 H         1 <0>         0.0534
@<TRIPOS>BOND
     1    1    2 1
     2    1   35 1
     3    1   36 1
     4    1   37 1
     5    2   10 2
     6    2    3 1
     7    3    8 ar
     8    3    4 ar
     9    4    5 ar
    10    4   38 1
    11    5    6 ar
    12    5   22 1
    13    6    7 ar
    14    6   39 1
    15    7    8 ar
    16    7   40 1
    17    8    9 1
    18    9   10 1
    19   10   11 1
    20   11   12 2
    21   11   13 am
    22   13   14 1
    23   13   41 1
    24   14   15 1
    25   14   42 1
    26   14   43 1
    27   15   16 1
    28   15   44 1
    29   15   45 1
    30   16   21 ar
    31   16   17 ar
    32   17   18 ar
    33   17   46 1
    34   18   19 ar
    35   18   47 1
    36   19   20 ar
    37   19   48 1
    38   20   21 ar
    39   20   49 1
    40   21   50 1
    41   22   23 2
    42   22   24 2
    43   22   25 1
    44   25   32 1
    45   25   26 1
    46   26   27 1
    47   26   51 1
    48   26   52 1
    49   27   28 1
    50   27   29 1
    51   27   34 1
    52   29   30 1
    53   29   53 1
    54   29   54 1
    55   30   31 1
    56   30   32 1
    57   30   33 1
    58   32   55 1
    59   32   56 1
    60   33   57 1
    61   33   58 1
    62   33   59 1
    63   34   60 1
    64   34   61 1
    65   34   62 1
@<TRIPOS>MOLECULE
ZINC09673167
   62    65     0     0     0
SMALL
USER_CHARGES

@<TRIPOS>ATOM
      1 C1         -0.0184    1.5028    0.0103 C.3       1 <0>        -0.1013
      2 C2          0.0021   -0.0041    0.0020 C.2       1 <0>        -0.0578
      3 C3          0.0088   -0.8769   -1.1714 C.ar      1 <0>        -0.1638
      4 C4         -0.0013   -0.6545   -2.5506 C.ar      1 <0>         0.0563
      5 C5          0.0091   -1.7181   -3.4080 C.ar      1 <0>        -0.6951
      6 C6          0.0293   -3.0169   -2.9177 C.ar      1 <0>         0.0065
      7 C7          0.0391   -3.2575   -1.5610 C.ar      1 <0>        -0.1235
      8 C8          0.0297   -2.1913   -0.6689 C.ar      1 <0>         0.1231
      9 O1          0.0350   -2.1131    0.6760 O.3       1 <0>        -0.1801
     10 C9          0.0240   -0.8264    1.0826 C.2       1 <0>        -0.0452
     11 C10         0.0311   -0.3820    2.4836 C.2       1 <0>         0.6026
     12 O2          0.0168    0.8061    2.7450 O.2       1 <0>        -0.5063
     13 N1          0.0534   -1.2907    3.4787 N.am      1 <0>        -0.7191
     14 C11         0.0604   -0.8478    4.8751 C.3       1 <0>         0.1237
     15 C12         0.0864   -2.0684    5.7972 C.3       1 <0>        -0.0920
     16 C13         0.0937   -1.6128    7.2337 C.ar      1 <0>        -0.0859
     17 C14         1.2939   -1.3815    7.8794 C.ar      1 <0>        -0.1134
     18 C15         1.3006   -0.9635    9.1970 C.ar      1 <0>        -0.1178
     19 C16         0.1070   -0.7764    9.8688 C.ar      1 <0>        -0.1194
     20 C17        -1.0932   -1.0069    9.2228 C.ar      1 <0>        -0.1177
     21 C18        -1.1000   -1.4207    7.9039 C.ar      1 <0>        -0.1133
     22 S1         -0.0036   -1.4396   -5.1478 S.o2      1 <0>         2.6915
     23 O3         -0.5411   -2.6127   -5.7430 O.2       1 <0>        -0.9493
     24 O4         -0.5735   -0.1536   -5.3491 O.2       1 <0>        -0.9509
     25 N2          1.5747   -1.3402   -5.6394 N.pl3     1 <0>        -0.9922
     26 C19         2.2735   -0.0479   -5.6559 C.3       1 <0>         0.1232
     27 C20         3.5721   -0.1793   -4.8539 C.3       1 <0>        -0.1107
     28 H1          3.3355   -0.3667   -3.8066 H         1 <0>         0.0779
     29 C21         4.3937   -1.3454   -5.4085 C.3       1 <0>        -0.1072
     30 C22         3.6009   -2.6460   -5.2607 C.3       1 <0>        -0.1077
     31 H2          4.1960   -3.4793   -5.6344 H         1 <0>         0.0854
     32 C23         2.3045   -2.5435   -6.0614 C.3       1 <0>         0.1232
     33 C24         3.2691   -2.8769   -3.7850 C.3       1 <0>        -0.1557
     34 C25         4.3783    1.1157   -4.9716 C.3       1 <0>        -0.1485
     35 H3          1.0042    1.8801    0.0026 H         1 <0>         0.0835
     36 H4         -0.5455    1.8639   -0.8728 H         1 <0>         0.0750
     37 H5         -0.5286    1.8543    0.9071 H         1 <0>         0.0956
     38 H6         -0.0177    0.3537   -2.9372 H         1 <0>         0.1476
     39 H7          0.0370   -3.8479   -3.6075 H         1 <0>         0.1537
     40 H8          0.0541   -4.2722   -1.1914 H         1 <0>         0.1466
     41 H9          0.0647   -2.2380    3.2703 H         1 <0>         0.4076
     42 H10         0.9436   -0.2356    5.0577 H         1 <0>         0.0761
     43 H11        -0.8361   -0.2607    5.0746 H         1 <0>         0.0761
     44 H12        -0.7968   -2.6805    5.6147 H         1 <0>         0.0817
     45 H13         0.9829   -2.6554    5.5977 H         1 <0>         0.0816
     46 H14         2.2264   -1.5276    7.3545 H         1 <0>         0.1223
     47 H15         2.2383   -0.7835    9.7017 H         1 <0>         0.1235
     48 H16         0.1122   -0.4506   10.8985 H         1 <0>         0.1228
     49 H17        -2.0257   -0.8610    9.7478 H         1 <0>         0.1235
     50 H18        -2.0377   -1.5971    7.3981 H         1 <0>         0.1225
     51 H19         2.5056    0.2289   -6.6843 H         1 <0>         0.0794
     52 H20         1.6405    0.7157   -5.2038 H         1 <0>         0.0900
     53 H21         4.6089   -1.1691   -6.4624 H         1 <0>         0.0669
     54 H22         5.3295   -1.4256   -4.8555 H         1 <0>         0.0661
     55 H23         1.6919   -3.4260   -5.8768 H         1 <0>         0.0917
     56 H24         2.5391   -2.4747   -7.1237 H         1 <0>         0.0787
     57 H25         2.6731   -2.0440   -3.4120 H         1 <0>         0.0594
     58 H26         2.7045   -3.8033   -3.6802 H         1 <0>         0.0552
     59 H27         4.1934   -2.9478   -3.2116 H         1 <0>         0.0572
     60 H28         3.7914    1.9460   -4.5787 H         1 <0>         0.0583
     61 H29         5.3021    1.0217   -4.4008 H         1 <0>         0.0591
     62 H30         4.6156    1.3021   -6.0190 H         1 <0>         0.0587
@<TRIPOS>BOND
     1    1    2 1
     2    1   35 1
     3    1   36 1
     4    1   37 1
     5    2   10 2
     6    2    3 1
     7    3    8 ar
     8    3    4 ar
     9    4    5 ar
    10    4   38 1
    11    5    6 ar
    12    5   22 1
    13    6    7 ar
    14    6   39 1
    15    7    8 ar
    16    7   40 1
    17    8    9 1
    18    9   10 1
    19   10   11 1
    20   11   12 2
    21   11   13 am
    22   13   14 1
    23   13   41 1
    24   14   15 1
    25   14   42 1
    26   14   43 1
    27   15   16 1
    28   15   44 1
    29   15   45 1
    30   16   21 ar
    31   16   17 ar
    32   17   18 ar
    33   17   46 1
    34   18   19 ar
    35   18   47 1
    36   19   20 ar
    37   19   48 1
    38   20   21 ar
    39   20   49 1
    40   21   50 1
    41   22   23 2
    42   22   24 2
    43   22   25 1
    44   25   32 1
    45   25   26 1
    46   26   27 1
    47   26   51 1
    48   26   52 1
    49   27   28 1
    50   27   29 1
    51   27   34 1
    52   29   30 1
    53   29   53 1
    54   29   54 1
    55   30   31 1
    56   30   32 1
    57   30   33 1
    58   32   55 1
    59   32   56 1
    60   33   57 1
    61   33   58 1
    62   33   59 1
    63   34   60 1
    64   34   61 1
    65   34   62 1
@<TRIPOS>MOLECULE
ZINC08660772
   46    48     0     0     0
SMALL
USER_CHARGES

@<TRIPOS>ATOM
      1 C1          0.2202    1.5866   -0.5338 C.ar      1 <0>        -0.1731
      2 C2          1.4385    2.2458   -0.4684 C.ar      1 <0>        -0.0550
      3 C3          2.5968    1.4868   -0.4040 C.ar      1 <0>        -0.1680
      4 C4          2.4995    0.1079   -0.4071 C.ar      1 <0>         0.1205
      5 N1          1.3236   -0.4851   -0.4707 N.ar      1 <0>        -0.4839
      6 C5          0.2013    0.2049   -0.5326 C.ar      1 <0>         0.1089
      7 C6          3.9449    2.1565   -0.3320 C.3       1 <0>         0.1663
      8 N2          4.3067    2.3761    1.0705 N.am      1 <0>        -0.7223
      9 C7          5.4787    2.9654    1.3797 C.2       1 <0>         0.5599
     10 O1          6.2355    3.3147    0.4949 O.2       1 <0>        -0.5189
     11 C8          5.8438    3.1870    2.7947 C.ar      1 <0>        -0.1389
     12 C9          4.9792    2.7818    3.8134 C.ar      1 <0>        -0.0284
     13 C10         5.3254    2.9913    5.1316 C.ar      1 <0>        -0.1134
     14 C11         6.5277    3.6027    5.4460 C.ar      1 <0>         0.0194
     15 C12         7.3892    4.0068    4.4403 C.ar      1 <0>        -0.6633
     16 C13         7.0569    3.7971    3.1181 C.ar      1 <0>         0.0436
     17 S1          8.9165    4.7839    4.8504 S.o2      1 <0>         2.6797
     18 O2          9.4876    4.0246    5.9071 O.2       1 <0>        -0.9312
     19 O3          9.5967    5.0150    3.6244 O.2       1 <0>        -0.9426
     20 N3          8.5551    6.2726    5.4791 N.pl3     1 <0>        -0.9869
     21 C14         8.2598    7.4075    4.5939 C.3       1 <0>         0.1193
     22 C15         6.9120    8.0119    4.9999 C.3       1 <0>        -0.1363
     23 C16         6.9445    8.3675    6.4881 C.3       1 <0>        -0.1170
     24 C17         7.1729    7.0986    7.3126 C.3       1 <0>        -0.1416
     25 C18         8.5177    6.4823    6.9329 C.3       1 <0>         0.1090
     26 Br1         6.9942    3.8874    7.2563 Br        1 <0>        -0.0023
     27 H1         -0.7024    2.1460   -0.5805 H         1 <0>         0.1397
     28 H2          1.4839    3.3248   -0.4679 H         1 <0>         0.1375
     29 H3          3.3972   -0.4905   -0.3572 H         1 <0>         0.1579
     30 H4         -0.7434   -0.3161   -0.5830 H         1 <0>         0.1596
     31 H5          4.6926    1.5197   -0.8047 H         1 <0>         0.0864
     32 H6          3.9029    3.1142   -0.8507 H         1 <0>         0.0846
     33 H7          3.7029    2.0974    1.7766 H         1 <0>         0.4011
     34 H8          4.0411    2.3055    3.5695 H         1 <0>         0.1436
     35 H9          4.6575    2.6783    5.9205 H         1 <0>         0.1519
     36 H10         7.7318    4.1087    2.3346 H         1 <0>         0.1665
     37 H11         9.0421    8.1602    4.6914 H         1 <0>         0.0816
     38 H12         8.2091    7.0619    3.5613 H         1 <0>         0.0871
     39 H13         6.7260    8.9125    4.4147 H         1 <0>         0.0777
     40 H14         6.1184    7.2877    4.8162 H         1 <0>         0.0646
     41 H15         7.7542    9.0729    6.6753 H         1 <0>         0.0666
     42 H16         5.9952    8.8205    6.7741 H         1 <0>         0.0656
     43 H17         7.1727    7.3491    8.3735 H         1 <0>         0.0770
     44 H18         6.3768    6.3830    7.1071 H         1 <0>         0.0708
     45 H19         8.6371    5.5266    7.4431 H         1 <0>         0.0988
     46 H20         9.3215    7.1580    7.2254 H         1 <0>         0.0779
@<TRIPOS>BOND
     1    1    6 ar
     2    1    2 ar
     3    1   27 1
     4    2    3 ar
     5    2   28 1
     6    3    4 ar
     7    3    7 1
     8    4    5 ar
     9    4   29 1
    10    5    6 ar
    11    6   30 1
    12    7    8 1
    13    7   31 1
    14    7   32 1
    15    8    9 am
    16    8   33 1
    17    9   10 2
    18    9   11 1
    19   11   16 ar
    20   11   12 ar
    21   12   13 ar
    22   12   34 1
    23   13   14 ar
    24   13   35 1
    25   14   15 ar
    26   14   26 1
    27   15   16 ar
    28   15   17 1
    29   16   36 1
    30   17   18 2
    31   17   19 2
    32   17   20 1
    33   20   25 1
    34   20   21 1
    35   21   22 1
    36   21   37 1
    37   21   38 1
    38   22   23 1
    39   22   39 1
    40   22   40 1
    41   23   24 1
    42   23   41 1
    43   23   42 1
    44   24   25 1
    45   24   43 1
    46   24   44 1
    47   25   45 1
    48   25   46 1
@<TRIPOS>MOLECULE
ZINC09673206
   66    69     0     0     0
SMALL
USER_CHARGES

@<TRIPOS>ATOM
      1 C1         -0.0187    1.5258    0.0104 C.3       1 <0>        -0.1529
      2 C2          0.0021   -0.0041    0.0020 C.3       1 <0>         0.0540
      3 O1          0.6709   -0.4649   -1.1737 O.3       1 <0>        -0.3100
      4 C3          0.7768   -1.8100   -1.3361 C.ar      1 <0>         0.1494
      5 C4          0.2426   -2.6689   -0.3863 C.ar      1 <0>        -0.2119
      6 C5          0.3510   -4.0356   -0.5539 C.ar      1 <0>        -0.0676
      7 C6          0.9913   -4.5482   -1.6673 C.ar      1 <0>        -0.1592
      8 C7          1.5248   -3.6946   -2.6149 C.ar      1 <0>        -0.0593
      9 C8          1.4139   -2.3267   -2.4547 C.ar      1 <0>        -0.1497
     10 C9          1.9902   -1.3968   -3.4912 C.3       1 <0>         0.1730
     11 N1          3.2869   -0.8949   -3.0299 N.am      1 <0>        -0.7082
     12 C10         3.9915   -0.0415   -3.7992 C.2       1 <0>         0.6022
     13 O2          3.5507    0.3120   -4.8765 O.2       1 <0>        -0.5092
     14 C11         5.2925    0.4621   -3.3364 C.2       1 <0>        -0.0412
     15 C12         6.0846    1.3264   -4.0218 C.2       1 <0>        -0.0607
     16 C13         7.2651    1.5436   -3.1862 C.ar      1 <0>        -0.1629
     17 C14         8.4261    2.3088   -3.3210 C.ar      1 <0>         0.0560
     18 C15         9.3659    2.2937   -2.3295 C.ar      1 <0>        -0.6953
     19 C16         9.1746    1.5231   -1.1905 C.ar      1 <0>         0.0057
     20 C17         8.0366    0.7611   -1.0386 C.ar      1 <0>        -0.1235
     21 C18         7.0657    0.7611   -2.0337 C.ar      1 <0>         0.1225
     22 O3          5.8774    0.1399   -2.1637 O.3       1 <0>        -0.1796
     23 S1         10.8309    3.2582   -2.4976 S.o2      1 <0>         2.6917
     24 O4         11.8145    2.6499   -1.6719 O.2       1 <0>        -0.9497
     25 O5         11.0255    3.4618   -3.8904 O.2       1 <0>        -0.9511
     26 N2         10.5159    4.7456   -1.8413 N.pl3     1 <0>        -0.9924
     27 C19         9.9673    5.8282   -2.6693 C.3       1 <0>         0.1233
     28 C20         8.7002    6.3681   -1.9988 C.3       1 <0>        -0.1108
     29 H1          7.9339    5.5929   -1.9916 H         1 <0>         0.0781
     30 C21         9.0244    6.7793   -0.5607 C.3       1 <0>        -0.1071
     31 C22         9.5035    5.5567    0.2255 C.3       1 <0>        -0.1076
     32 H2          9.7119    5.8455    1.2557 H         1 <0>         0.0852
     33 C23        10.7740    5.0058   -0.4185 C.3       1 <0>         0.1233
     34 C24         8.4169    4.4797    0.2069 C.3       1 <0>        -0.1557
     35 C25         8.1897    7.5835   -2.7754 C.3       1 <0>        -0.1484
     36 C26         5.8043    1.9375   -5.3706 C.3       1 <0>        -0.1004
     37 H3          1.0039    1.9031    0.0027 H         1 <0>         0.0657
     38 H4         -0.5459    1.8868   -0.8726 H         1 <0>         0.0674
     39 H5         -0.5289    1.8773    0.9072 H         1 <0>         0.0800
     40 H6          0.5293   -0.3651    0.8851 H         1 <0>         0.0628
     41 H7         -1.0205   -0.3814    0.0098 H         1 <0>         0.0637
     42 H8         -0.2573   -2.2690    0.4836 H         1 <0>         0.1302
     43 H9         -0.0643   -4.7045    0.1853 H         1 <0>         0.1277
     44 H10         1.0751   -5.6171   -1.7966 H         1 <0>         0.1280
     45 H11         2.0247   -4.0973   -3.4834 H         1 <0>         0.1327
     46 H12         2.1220   -1.9356   -4.4295 H         1 <0>         0.0814
     47 H13         1.3103   -0.5590   -3.6457 H         1 <0>         0.0847
     48 H14         3.6384   -1.1767   -2.1709 H         1 <0>         0.4067
     49 H15         8.5802    2.9095   -4.2052 H         1 <0>         0.1474
     50 H16         9.9263    1.5207   -0.4151 H         1 <0>         0.1532
     51 H17         7.8989    0.1657   -0.1482 H         1 <0>         0.1458
     52 H18        10.7024    6.6280   -2.7589 H         1 <0>         0.0792
     53 H19         9.7213    5.4427   -3.6587 H         1 <0>         0.0901
     54 H20         9.8082    7.5366   -0.5675 H         1 <0>         0.0668
     55 H21         8.1301    7.1867   -0.0891 H         1 <0>         0.0659
     56 H22        11.0601    4.0779    0.0767 H         1 <0>         0.0916
     57 H23        11.5764    5.7371   -0.3205 H         1 <0>         0.0785
     58 H24         8.2097    4.1905   -0.8234 H         1 <0>         0.0597
     59 H25         8.7586    3.6092    0.7669 H         1 <0>         0.0551
     60 H26         7.5085    4.8721    0.6639 H         1 <0>         0.0570
     61 H27         7.9615    7.2903   -3.8001 H         1 <0>         0.0584
     62 H28         7.2882    7.9673   -2.2979 H         1 <0>         0.0590
     63 H29         8.9559    8.3588   -2.7813 H         1 <0>         0.0586
     64 H30         5.2678    2.8771   -5.2393 H         1 <0>         0.0828
     65 H31         6.7456    2.1256   -5.8869 H         1 <0>         0.0741
     66 H32         5.1968    1.2516   -5.9610 H         1 <0>         0.0959
@<TRIPOS>BOND
     1    1    2 1
     2    1   37 1
     3    1   38 1
     4    1   39 1
     5    2    3 1
     6    2   40 1
     7    2   41 1
     8    3    4 1
     9    4    9 ar
    10    4    5 ar
    11    5    6 ar
    12    5   42 1
    13    6    7 ar
    14    6   43 1
    15    7    8 ar
    16    7   44 1
    17    8    9 ar
    18    8   45 1
    19    9   10 1
    20   10   11 1
    21   10   46 1
    22   10   47 1
    23   11   12 am
    24   11   48 1
    25   12   13 2
    26   12   14 1
    27   14   22 1
    28   14   15 2
    29   15   16 1
    30   15   36 1
    31   16   21 ar
    32   16   17 ar
    33   17   18 ar
    34   17   49 1
    35   18   19 ar
    36   18   23 1
    37   19   20 ar
    38   19   50 1
    39   20   21 ar
    40   20   51 1
    41   21   22 1
    42   23   24 2
    43   23   25 2
    44   23   26 1
    45   26   33 1
    46   26   27 1
    47   27   28 1
    48   27   52 1
    49   27   53 1
    50   28   29 1
    51   28   30 1
    52   28   35 1
    53   30   31 1
    54   30   54 1
    55   30   55 1
    56   31   32 1
    57   31   33 1
    58   31   34 1
    59   33   56 1
    60   33   57 1
    61   34   58 1
    62   34   59 1
    63   34   60 1
    64   35   61 1
    65   35   62 1
    66   35   63 1
    67   36   64 1
    68   36   65 1
    69   36   66 1
@<TRIPOS>MOLECULE
ZINC09673207
   66    69     0     0     0
SMALL
USER_CHARGES

@<TRIPOS>ATOM
      1 C1         -0.0187    1.5258    0.0104 C.3       1 <0>        -0.1529
      2 C2          0.0021   -0.0041    0.0020 C.3       1 <0>         0.0540
      3 O1          0.6709   -0.4649   -1.1737 O.3       1 <0>        -0.3100
      4 C3          0.7768   -1.8100   -1.3361 C.ar      1 <0>         0.1494
      5 C4          0.2426   -2.6689   -0.3863 C.ar      1 <0>        -0.2119
      6 C5          0.3510   -4.0356   -0.5539 C.ar      1 <0>        -0.0676
      7 C6          0.9913   -4.5482   -1.6673 C.ar      1 <0>        -0.1592
      8 C7          1.5248   -3.6946   -2.6149 C.ar      1 <0>        -0.0593
      9 C8          1.4139   -2.3267   -2.4547 C.ar      1 <0>        -0.1497
     10 C9          1.9902   -1.3968   -3.4912 C.3       1 <0>         0.1730
     11 N1          3.2869   -0.8949   -3.0299 N.am      1 <0>        -0.7081
     12 C10         3.9915   -0.0415   -3.7992 C.2       1 <0>         0.6024
     13 O2          3.5507    0.3120   -4.8765 O.2       1 <0>        -0.5090
     14 C11         5.2925    0.4621   -3.3364 C.2       1 <0>        -0.0411
     15 C12         6.0846    1.3264   -4.0218 C.2       1 <0>        -0.0608
     16 C13         7.2651    1.5436   -3.1862 C.ar      1 <0>        -0.1633
     17 C14         8.4261    2.3088   -3.3210 C.ar      1 <0>         0.0557
     18 C15         9.3659    2.2937   -2.3295 C.ar      1 <0>        -0.6958
     19 C16         9.1746    1.5231   -1.1905 C.ar      1 <0>         0.0035
     20 C17         8.0366    0.7611   -1.0386 C.ar      1 <0>        -0.1237
     21 C18         7.0657    0.7611   -2.0337 C.ar      1 <0>         0.1216
     22 O3          5.8774    0.1399   -2.1637 O.3       1 <0>        -0.1794
     23 S1         10.8309    3.2582   -2.4976 S.o2      1 <0>         2.6927
     24 O4         11.8145    2.6499   -1.6719 O.2       1 <0>        -0.9493
     25 O5         11.0255    3.4618   -3.8904 O.2       1 <0>        -0.9503
     26 N2         10.5159    4.7456   -1.8413 N.pl3     1 <0>        -0.9946
     27 C19         9.9673    5.8282   -2.6693 C.3       1 <0>         0.1226
     28 C20         8.7002    6.3681   -1.9988 C.3       1 <0>        -0.1086
     29 H1          7.9339    5.5929   -1.9916 H         1 <0>         0.0741
     30 C21         9.0244    6.7793   -0.5607 C.3       1 <0>        -0.1076
     31 C22         9.5035    5.5567    0.2255 C.3       1 <0>        -0.1088
     32 H2          8.7296    4.7892    0.2117 H         1 <0>         0.0745
     33 C23        10.7740    5.0058   -0.4185 C.3       1 <0>         0.1230
     34 C24         9.7953    5.9619    1.6717 C.3       1 <0>        -0.1478
     35 C25         8.1897    7.5835   -2.7754 C.3       1 <0>        -0.1482
     36 C26         5.8043    1.9375   -5.3706 C.3       1 <0>        -0.1004
     37 H3          1.0039    1.9031    0.0027 H         1 <0>         0.0657
     38 H4         -0.5459    1.8868   -0.8726 H         1 <0>         0.0674
     39 H5         -0.5289    1.8773    0.9072 H         1 <0>         0.0800
     40 H6          0.5293   -0.3651    0.8851 H         1 <0>         0.0628
     41 H7         -1.0205   -0.3814    0.0098 H         1 <0>         0.0638
     42 H8         -0.2573   -2.2690    0.4836 H         1 <0>         0.1302
     43 H9         -0.0643   -4.7045    0.1853 H         1 <0>         0.1277
     44 H10         1.0751   -5.6171   -1.7966 H         1 <0>         0.1280
     45 H11         2.0247   -4.0973   -3.4834 H         1 <0>         0.1327
     46 H12         2.1220   -1.9356   -4.4295 H         1 <0>         0.0815
     47 H13         1.3103   -0.5590   -3.6457 H         1 <0>         0.0847
     48 H14         3.6384   -1.1767   -2.1709 H         1 <0>         0.4067
     49 H15         8.5802    2.9095   -4.2052 H         1 <0>         0.1479
     50 H16         9.9263    1.5207   -0.4151 H         1 <0>         0.1540
     51 H17         7.8989    0.1657   -0.1482 H         1 <0>         0.1465
     52 H18        10.7024    6.6280   -2.7589 H         1 <0>         0.0793
     53 H19         9.7213    5.4427   -3.6587 H         1 <0>         0.0907
     54 H20         9.8082    7.5366   -0.5675 H         1 <0>         0.0673
     55 H21         8.1301    7.1867   -0.0891 H         1 <0>         0.0664
     56 H22        11.0601    4.0779    0.0767 H         1 <0>         0.0914
     57 H23        11.5764    5.7371   -0.3205 H         1 <0>         0.0785
     58 H24         8.8873    6.3548    2.1292 H         1 <0>         0.0594
     59 H25        10.1364    5.0909    2.2312 H         1 <0>         0.0588
     60 H26        10.5700    6.7286    1.6850 H         1 <0>         0.0590
     61 H27         7.9615    7.2903   -3.8001 H         1 <0>         0.0589
     62 H28         7.2882    7.9673   -2.2979 H         1 <0>         0.0595
     63 H29         8.9559    8.3588   -2.7813 H         1 <0>         0.0591
     64 H30         5.2678    2.8771   -5.2393 H         1 <0>         0.0830
     65 H31         6.7456    2.1256   -5.8869 H         1 <0>         0.0742
     66 H32         5.1968    1.2516   -5.9610 H         1 <0>         0.0961
@<TRIPOS>BOND
     1    1    2 1
     2    1   37 1
     3    1   38 1
     4    1   39 1
     5    2    3 1
     6    2   40 1
     7    2   41 1
     8    3    4 1
     9    4    9 ar
    10    4    5 ar
    11    5    6 ar
    12    5   42 1
    13    6    7 ar
    14    6   43 1
    15    7    8 ar
    16    7   44 1
    17    8    9 ar
    18    8   45 1
    19    9   10 1
    20   10   11 1
    21   10   46 1
    22   10   47 1
    23   11   12 am
    24   11   48 1
    25   12   13 2
    26   12   14 1
    27   14   22 1
    28   14   15 2
    29   15   16 1
    30   15   36 1
    31   16   21 ar
    32   16   17 ar
    33   17   18 ar
    34   17   49 1
    35   18   19 ar
    36   18   23 1
    37   19   20 ar
    38   19   50 1
    39   20   21 ar
    40   20   51 1
    41   21   22 1
    42   23   24 2
    43   23   25 2
    44   23   26 1
    45   26   33 1
    46   26   27 1
    47   27   28 1
    48   27   52 1
    49   27   53 1
    50   28   29 1
    51   28   30 1
    52   28   35 1
    53   30   31 1
    54   30   54 1
    55   30   55 1
    56   31   32 1
    57   31   33 1
    58   31   34 1
    59   33   56 1
    60   33   57 1
    61   34   58 1
    62   34   59 1
    63   34   60 1
    64   35   61 1
    65   35   62 1
    66   35   63 1
    67   36   64 1
    68   36   65 1
    69   36   66 1
@<TRIPOS>MOLECULE
ZINC20115828
   66    69     0     0     0
SMALL
USER_CHARGES

@<TRIPOS>ATOM
      1 C1         -0.0187    1.5258    0.0104 C.3       1 <0>        -0.1529
      2 C2          0.0021   -0.0041    0.0020 C.3       1 <0>         0.0540
      3 O1          0.6709   -0.4649   -1.1737 O.3       1 <0>        -0.3100
      4 C3          0.7768   -1.8100   -1.3361 C.ar      1 <0>         0.1494
      5 C4          0.2426   -2.6689   -0.3863 C.ar      1 <0>        -0.2119
      6 C5          0.3510   -4.0356   -0.5539 C.ar      1 <0>        -0.0676
      7 C6          0.9913   -4.5482   -1.6673 C.ar      1 <0>        -0.1592
      8 C7          1.5248   -3.6946   -2.6149 C.ar      1 <0>        -0.0593
      9 C8          1.4139   -2.3267   -2.4547 C.ar      1 <0>        -0.1496
     10 C9          1.9902   -1.3968   -3.4912 C.3       1 <0>         0.1730
     11 N1          3.2869   -0.8949   -3.0299 N.am      1 <0>        -0.7082
     12 C10         3.9915   -0.0415   -3.7992 C.2       1 <0>         0.6022
     13 O2          3.5507    0.3120   -4.8765 O.2       1 <0>        -0.5092
     14 C11         5.2925    0.4621   -3.3364 C.2       1 <0>        -0.0412
     15 C12         6.0846    1.3264   -4.0218 C.2       1 <0>        -0.0604
     16 C13         7.2651    1.5436   -3.1862 C.ar      1 <0>        -0.1620
     17 C14         8.4261    2.3088   -3.3210 C.ar      1 <0>         0.0582
     18 C15         9.3659    2.2937   -2.3295 C.ar      1 <0>        -0.6959
     19 C16         9.1746    1.5231   -1.1905 C.ar      1 <0>         0.0039
     20 C17         8.0366    0.7611   -1.0386 C.ar      1 <0>        -0.1238
     21 C18         7.0657    0.7611   -2.0337 C.ar      1 <0>         0.1222
     22 O3          5.8774    0.1399   -2.1637 O.3       1 <0>        -0.1796
     23 S1         10.8309    3.2582   -2.4976 S.o2      1 <0>         2.6917
     24 O4         11.8145    2.6499   -1.6719 O.2       1 <0>        -0.9500
     25 O5         11.0255    3.4618   -3.8904 O.2       1 <0>        -0.9508
     26 N2         10.5159    4.7456   -1.8413 N.pl3     1 <0>        -0.9924
     27 C19         9.9673    5.8282   -2.6693 C.3       1 <0>         0.1228
     28 C20         8.7002    6.3681   -1.9988 C.3       1 <0>        -0.1072
     29 H1          8.3369    7.2344   -2.5517 H         1 <0>         0.0849
     30 C21         9.0244    6.7793   -0.5607 C.3       1 <0>        -0.1070
     31 C22         9.5035    5.5567    0.2255 C.3       1 <0>        -0.1111
     32 H2          8.7296    4.7892    0.2117 H         1 <0>         0.0784
     33 C23        10.7740    5.0058   -0.4185 C.3       1 <0>         0.1237
     34 C24         9.7953    5.9619    1.6717 C.3       1 <0>        -0.1480
     35 C25         7.6243    5.2803   -1.9894 C.3       1 <0>        -0.1552
     36 C26         5.8043    1.9375   -5.3706 C.3       1 <0>        -0.1005
     37 H3          1.0039    1.9031    0.0027 H         1 <0>         0.0657
     38 H4         -0.5459    1.8868   -0.8726 H         1 <0>         0.0674
     39 H5         -0.5289    1.8773    0.9072 H         1 <0>         0.0800
     40 H6          0.5293   -0.3651    0.8851 H         1 <0>         0.0628
     41 H7         -1.0205   -0.3814    0.0098 H         1 <0>         0.0637
     42 H8         -0.2573   -2.2690    0.4836 H         1 <0>         0.1302
     43 H9         -0.0643   -4.7045    0.1853 H         1 <0>         0.1277
     44 H10         1.0751   -5.6171   -1.7966 H         1 <0>         0.1280
     45 H11         2.0247   -4.0973   -3.4834 H         1 <0>         0.1327
     46 H12         2.1220   -1.9356   -4.4295 H         1 <0>         0.0814
     47 H13         1.3103   -0.5590   -3.6457 H         1 <0>         0.0847
     48 H14         3.6384   -1.1767   -2.1709 H         1 <0>         0.4067
     49 H15         8.5802    2.9095   -4.2052 H         1 <0>         0.1469
     50 H16         9.9263    1.5207   -0.4151 H         1 <0>         0.1535
     51 H17         7.8989    0.1657   -0.1482 H         1 <0>         0.1459
     52 H18        10.7024    6.6280   -2.7589 H         1 <0>         0.0793
     53 H19         9.7213    5.4427   -3.6587 H         1 <0>         0.0908
     54 H20         9.8082    7.5366   -0.5675 H         1 <0>         0.0668
     55 H21         8.1301    7.1867   -0.0891 H         1 <0>         0.0660
     56 H22        11.0601    4.0779    0.0767 H         1 <0>         0.0908
     57 H23        11.5764    5.7371   -0.3205 H         1 <0>         0.0784
     58 H24         8.8873    6.3548    2.1292 H         1 <0>         0.0589
     59 H25        10.1364    5.0909    2.2312 H         1 <0>         0.0583
     60 H26        10.5700    6.7286    1.6850 H         1 <0>         0.0585
     61 H27         7.9876    4.4147   -1.4354 H         1 <0>         0.0598
     62 H28         6.7229    5.6649   -1.5122 H         1 <0>         0.0574
     63 H29         7.3959    4.9863   -3.0138 H         1 <0>         0.0536
     64 H30         5.2678    2.8771   -5.2393 H         1 <0>         0.0828
     65 H31         6.7456    2.1256   -5.8869 H         1 <0>         0.0740
     66 H32         5.1968    1.2516   -5.9610 H         1 <0>         0.0959
@<TRIPOS>BOND
     1    1    2 1
     2    1   37 1
     3    1   38 1
     4    1   39 1
     5    2    3 1
     6    2   40 1
     7    2   41 1
     8    3    4 1
     9    4    9 ar
    10    4    5 ar
    11    5    6 ar
    12    5   42 1
    13    6    7 ar
    14    6   43 1
    15    7    8 ar
    16    7   44 1
    17    8    9 ar
    18    8   45 1
    19    9   10 1
    20   10   11 1
    21   10   46 1
    22   10   47 1
    23   11   12 am
    24   11   48 1
    25   12   13 2
    26   12   14 1
    27   14   22 1
    28   14   15 2
    29   15   16 1
    30   15   36 1
    31   16   21 ar
    32   16   17 ar
    33   17   18 ar
    34   17   49 1
    35   18   19 ar
    36   18   23 1
    37   19   20 ar
    38   19   50 1
    39   20   21 ar
    40   20   51 1
    41   21   22 1
    42   23   24 2
    43   23   25 2
    44   23   26 1
    45   26   33 1
    46   26   27 1
    47   27   28 1
    48   27   52 1
    49   27   53 1
    50   28   29 1
    51   28   30 1
    52   28   35 1
    53   30   31 1
    54   30   54 1
    55   30   55 1
    56   31   32 1
    57   31   33 1
    58   31   34 1
    59   33   56 1
    60   33   57 1
    61   34   58 1
    62   34   59 1
    63   34   60 1
    64   35   61 1
    65   35   62 1
    66   35   63 1
    67   36   64 1
    68   36   65 1
    69   36   66 1
@<TRIPOS>MOLECULE
ZINC09673186
   62    65     0     0     0
SMALL
USER_CHARGES

@<TRIPOS>ATOM
      1 C1         -0.0184    1.5028    0.0103 C.3       1 <0>        -0.1197
      2 C2          0.0021   -0.0041    0.0020 C.ar      1 <0>        -0.0736
      3 C3          0.0057   -0.6887   -1.1989 C.ar      1 <0>        -0.1229
      4 C4          0.0245   -2.0709   -1.2065 C.ar      1 <0>        -0.0940
      5 C5          0.0400   -2.7685   -0.0132 C.ar      1 <0>        -0.1217
      6 C6          0.0373   -2.0839    1.1877 C.ar      1 <0>        -0.0939
      7 C7          0.0229   -0.7016    1.1953 C.ar      1 <0>        -0.1228
      8 C8          0.0595   -4.2753   -0.0215 C.3       1 <0>         0.1623
      9 N1          1.4468   -4.7457   -0.0317 N.am      1 <0>        -0.7136
     10 C9          1.7102   -6.0675   -0.0404 C.2       1 <0>         0.6025
     11 O1          0.7958   -6.8699   -0.0397 O.2       1 <0>        -0.5074
     12 C10         3.1021   -6.5395   -0.0507 C.2       1 <0>        -0.0443
     13 C11         3.4855   -7.8422   -0.0653 C.2       1 <0>        -0.0581
     14 C12         4.9479   -7.8340   -0.0710 C.ar      1 <0>        -0.1641
     15 C13         5.9272   -8.8302   -0.0849 C.ar      1 <0>         0.0561
     16 C14         7.2481   -8.4812   -0.0866 C.ar      1 <0>        -0.6956
     17 C15         7.6226   -7.1444   -0.0742 C.ar      1 <0>         0.0043
     18 C16         6.6721   -6.1468   -0.0600 C.ar      1 <0>        -0.1238
     19 C17         5.3217   -6.4774   -0.0589 C.ar      1 <0>         0.1224
     20 O2          4.1919   -5.7436   -0.0529 O.3       1 <0>        -0.1796
     21 S1          8.4848   -9.7362   -0.1042 S.o2      1 <0>         2.6924
     22 O3          9.6591   -9.1570    0.4479 O.2       1 <0>        -0.9490
     23 O4          7.8849  -10.9051    0.4374 O.2       1 <0>        -0.9502
     24 N2          8.8221  -10.0691   -1.6909 N.pl3     1 <0>        -0.9945
     25 C18         8.0700  -11.1027   -2.4152 C.3       1 <0>         0.1225
     26 C19         7.5020  -10.4903   -3.6995 C.3       1 <0>        -0.1085
     27 H1          6.7692   -9.7248   -3.4443 H         1 <0>         0.0740
     28 C20         8.6398   -9.8597   -4.5057 C.3       1 <0>        -0.1078
     29 C21         9.2911   -8.7439   -3.6855 C.3       1 <0>        -0.1088
     30 H2          8.5414   -7.9948   -3.4304 H         1 <0>         0.0744
     31 C22         9.8752   -9.3323   -2.4028 C.3       1 <0>         0.1229
     32 C23        10.4063   -8.0918   -4.5052 C.3       1 <0>        -0.1479
     33 C24         6.8297  -11.5834   -4.5325 C.3       1 <0>        -0.1483
     34 C25         2.5861   -9.0514   -0.0734 C.3       1 <0>        -0.1011
     35 H3          1.0042    1.8801    0.0026 H         1 <0>         0.0732
     36 H4         -0.5455    1.8639   -0.8728 H         1 <0>         0.0686
     37 H5         -0.5286    1.8543    0.9071 H         1 <0>         0.0686
     38 H6         -0.0064   -0.1436   -2.1312 H         1 <0>         0.1252
     39 H7          0.0266   -2.6057   -2.1448 H         1 <0>         0.1247
     40 H8          0.0491   -2.6289    2.1200 H         1 <0>         0.1249
     41 H9          0.0245   -0.1667    2.1335 H         1 <0>         0.1253
     42 H10        -0.4447   -4.6501    0.8693 H         1 <0>         0.0826
     43 H11        -0.4546   -4.6404   -0.9106 H         1 <0>         0.0825
     44 H12         2.1759   -4.1059   -0.0323 H         1 <0>         0.4084
     45 H13         5.6414   -9.8717   -0.0939 H         1 <0>         0.1481
     46 H14         8.6705   -6.8834   -0.0754 H         1 <0>         0.1544
     47 H15         6.9756   -5.1103   -0.0504 H         1 <0>         0.1470
     48 H16         8.7346  -11.9291   -2.6673 H         1 <0>         0.0795
     49 H17         7.2533  -11.4652   -1.7910 H         1 <0>         0.0907
     50 H18         9.3844  -10.6207   -4.7393 H         1 <0>         0.0674
     51 H19         8.2420   -9.4448   -5.4318 H         1 <0>         0.0665
     52 H20        10.2491   -8.5270   -1.7705 H         1 <0>         0.0915
     53 H21        10.6902  -10.0110   -2.6539 H         1 <0>         0.0787
     54 H22         9.9872   -7.6727   -5.4200 H         1 <0>         0.0595
     55 H23        10.8698   -7.2971   -3.9206 H         1 <0>         0.0589
     56 H24        11.1562   -8.8410   -4.7590 H         1 <0>         0.0590
     57 H25         6.0212  -12.0337   -3.9566 H         1 <0>         0.0588
     58 H26         6.4258  -11.1472   -5.4461 H         1 <0>         0.0595
     59 H27         7.5632  -12.3481   -4.7884 H         1 <0>         0.0592
     60 H28         2.3652   -9.3330   -1.1030 H         1 <0>         0.0836
     61 H29         3.0854   -9.8790    0.4305 H         1 <0>         0.0748
     62 H30         1.6572   -8.8168    0.4464 H         1 <0>         0.0960
@<TRIPOS>BOND
     1    1    2 1
     2    1   35 1
     3    1   36 1
     4    1   37 1
     5    2    7 ar
     6    2    3 ar
     7    3    4 ar
     8    3   38 1
     9    4    5 ar
    10    4   39 1
    11    5    6 ar
    12    5    8 1
    13    6    7 ar
    14    6   40 1
    15    7   41 1
    16    8    9 1
    17    8   42 1
    18    8   43 1
    19    9   10 am
    20    9   44 1
    21   10   11 2
    22   10   12 1
    23   12   20 1
    24   12   13 2
    25   13   14 1
    26   13   34 1
    27   14   19 ar
    28   14   15 ar
    29   15   16 ar
    30   15   45 1
    31   16   17 ar
    32   16   21 1
    33   17   18 ar
    34   17   46 1
    35   18   19 ar
    36   18   47 1
    37   19   20 1
    38   21   22 2
    39   21   23 2
    40   21   24 1
    41   24   31 1
    42   24   25 1
    43   25   26 1
    44   25   48 1
    45   25   49 1
    46   26   27 1
    47   26   28 1
    48   26   33 1
    49   28   29 1
    50   28   50 1
    51   28   51 1
    52   29   30 1
    53   29   31 1
    54   29   32 1
    55   31   52 1
    56   31   53 1
    57   32   54 1
    58   32   55 1
    59   32   56 1
    60   33   57 1
    61   33   58 1
    62   33   59 1
    63   34   60 1
    64   34   61 1
    65   34   62 1
@<TRIPOS>MOLECULE
ZINC09673187
   62    65     0     0     0
SMALL
USER_CHARGES

@<TRIPOS>ATOM
      1 C1         -0.0184    1.5028    0.0103 C.3       1 <0>        -0.1197
      2 C2          0.0021   -0.0041    0.0020 C.ar      1 <0>        -0.0736
      3 C3          0.0057   -0.6887   -1.1989 C.ar      1 <0>        -0.1229
      4 C4          0.0245   -2.0709   -1.2065 C.ar      1 <0>        -0.0940
      5 C5          0.0400   -2.7685   -0.0132 C.ar      1 <0>        -0.1216
      6 C6          0.0373   -2.0839    1.1877 C.ar      1 <0>        -0.0939
      7 C7          0.0229   -0.7016    1.1953 C.ar      1 <0>        -0.1228
      8 C8          0.0595   -4.2753   -0.0215 C.3       1 <0>         0.1623
      9 N1          1.4468   -4.7457   -0.0317 N.am      1 <0>        -0.7137
     10 C9          1.7102   -6.0675   -0.0404 C.2       1 <0>         0.6024
     11 O1          0.7958   -6.8699   -0.0397 O.2       1 <0>        -0.5076
     12 C10         3.1021   -6.5395   -0.0507 C.2       1 <0>        -0.0444
     13 C11         3.4855   -7.8422   -0.0653 C.2       1 <0>        -0.0577
     14 C12         4.9479   -7.8340   -0.0710 C.ar      1 <0>        -0.1629
     15 C13         5.9272   -8.8302   -0.0849 C.ar      1 <0>         0.0586
     16 C14         7.2481   -8.4812   -0.0866 C.ar      1 <0>        -0.6957
     17 C15         7.6226   -7.1444   -0.0742 C.ar      1 <0>         0.0047
     18 C16         6.6721   -6.1468   -0.0600 C.ar      1 <0>        -0.1239
     19 C17         5.3217   -6.4774   -0.0589 C.ar      1 <0>         0.1229
     20 O2          4.1919   -5.7436   -0.0529 O.3       1 <0>        -0.1798
     21 S1          8.4848   -9.7362   -0.1042 S.o2      1 <0>         2.6915
     22 O3          9.6591   -9.1570    0.4479 O.2       1 <0>        -0.9497
     23 O4          7.8849  -10.9051    0.4374 O.2       1 <0>        -0.9506
     24 N2          8.8221  -10.0691   -1.6909 N.pl3     1 <0>        -0.9923
     25 C18         8.0700  -11.1027   -2.4152 C.3       1 <0>         0.1227
     26 C19         7.5020  -10.4903   -3.6995 C.3       1 <0>        -0.1073
     27 H1          7.0236  -11.2692   -4.2932 H         1 <0>         0.0850
     28 C20         8.6398   -9.8597   -4.5057 C.3       1 <0>        -0.1072
     29 C21         9.2911   -8.7439   -3.6855 C.3       1 <0>        -0.1110
     30 H2          8.5414   -7.9948   -3.4304 H         1 <0>         0.0783
     31 C22         9.8752   -9.3323   -2.4028 C.3       1 <0>         0.1236
     32 C23        10.4063   -8.0918   -4.5052 C.3       1 <0>        -0.1481
     33 C24         6.4728   -9.4164   -3.3413 C.3       1 <0>        -0.1553
     34 C25         2.5861   -9.0514   -0.0734 C.3       1 <0>        -0.1012
     35 H3          1.0042    1.8801    0.0026 H         1 <0>         0.0732
     36 H4         -0.5455    1.8639   -0.8728 H         1 <0>         0.0686
     37 H5         -0.5286    1.8543    0.9071 H         1 <0>         0.0686
     38 H6         -0.0064   -0.1436   -2.1312 H         1 <0>         0.1252
     39 H7          0.0266   -2.6057   -2.1448 H         1 <0>         0.1247
     40 H8          0.0491   -2.6289    2.1200 H         1 <0>         0.1249
     41 H9          0.0245   -0.1667    2.1335 H         1 <0>         0.1253
     42 H10        -0.4447   -4.6501    0.8693 H         1 <0>         0.0825
     43 H11        -0.4546   -4.6404   -0.9106 H         1 <0>         0.0825
     44 H12         2.1759   -4.1059   -0.0323 H         1 <0>         0.4083
     45 H13         5.6414   -9.8717   -0.0939 H         1 <0>         0.1472
     46 H14         8.6705   -6.8834   -0.0754 H         1 <0>         0.1539
     47 H15         6.9756   -5.1103   -0.0504 H         1 <0>         0.1464
     48 H16         8.7346  -11.9291   -2.6673 H         1 <0>         0.0795
     49 H17         7.2533  -11.4652   -1.7910 H         1 <0>         0.0908
     50 H18         9.3844  -10.6207   -4.7393 H         1 <0>         0.0669
     51 H19         8.2420   -9.4448   -5.4318 H         1 <0>         0.0661
     52 H20        10.2491   -8.5270   -1.7705 H         1 <0>         0.0908
     53 H21        10.6902  -10.0110   -2.6539 H         1 <0>         0.0786
     54 H22         9.9872   -7.6727   -5.4200 H         1 <0>         0.0591
     55 H23        10.8698   -7.2971   -3.9206 H         1 <0>         0.0584
     56 H24        11.1562   -8.8410   -4.7590 H         1 <0>         0.0585
     57 H25         6.9520   -8.6372   -2.7486 H         1 <0>         0.0598
     58 H26         6.0690   -8.9809   -4.2554 H         1 <0>         0.0576
     59 H27         5.6642   -9.8659   -2.7649 H         1 <0>         0.0535
     60 H28         2.3652   -9.3330   -1.1030 H         1 <0>         0.0834
     61 H29         3.0854   -9.8790    0.4305 H         1 <0>         0.0747
     62 H30         1.6572   -8.8168    0.4464 H         1 <0>         0.0958
@<TRIPOS>BOND
     1    1    2 1
     2    1   35 1
     3    1   36 1
     4    1   37 1
     5    2    7 ar
     6    2    3 ar
     7    3    4 ar
     8    3   38 1
     9    4    5 ar
    10    4   39 1
    11    5    6 ar
    12    5    8 1
    13    6    7 ar
    14    6   40 1
    15    7   41 1
    16    8    9 1
    17    8   42 1
    18    8   43 1
    19    9   10 am
    20    9   44 1
    21   10   11 2
    22   10   12 1
    23   12   20 1
    24   12   13 2
    25   13   14 1
    26   13   34 1
    27   14   19 ar
    28   14   15 ar
    29   15   16 ar
    30   15   45 1
    31   16   17 ar
    32   16   21 1
    33   17   18 ar
    34   17   46 1
    35   18   19 ar
    36   18   47 1
    37   19   20 1
    38   21   22 2
    39   21   23 2
    40   21   24 1
    41   24   31 1
    42   24   25 1
    43   25   26 1
    44   25   48 1
    45   25   49 1
    46   26   27 1
    47   26   28 1
    48   26   33 1
    49   28   29 1
    50   28   50 1
    51   28   51 1
    52   29   30 1
    53   29   31 1
    54   29   32 1
    55   31   52 1
    56   31   53 1
    57   32   54 1
    58   32   55 1
    59   32   56 1
    60   33   57 1
    61   33   58 1
    62   33   59 1
    63   34   60 1
    64   34   61 1
    65   34   62 1
@<TRIPOS>MOLECULE
ZINC09673188
   62    65     0     0     0
SMALL
USER_CHARGES

@<TRIPOS>ATOM
      1 C1         -0.0184    1.5028    0.0103 C.3       1 <0>        -0.1197
      2 C2          0.0021   -0.0041    0.0020 C.ar      1 <0>        -0.0736
      3 C3          0.0057   -0.6887   -1.1989 C.ar      1 <0>        -0.1229
      4 C4          0.0245   -2.0709   -1.2065 C.ar      1 <0>        -0.0940
      5 C5          0.0400   -2.7685   -0.0132 C.ar      1 <0>        -0.1217
      6 C6          0.0373   -2.0839    1.1877 C.ar      1 <0>        -0.0939
      7 C7          0.0229   -0.7016    1.1953 C.ar      1 <0>        -0.1228
      8 C8          0.0595   -4.2753   -0.0215 C.3       1 <0>         0.1623
      9 N1          1.4468   -4.7457   -0.0317 N.am      1 <0>        -0.7137
     10 C9          1.7102   -6.0675   -0.0404 C.2       1 <0>         0.6024
     11 O1          0.7958   -6.8699   -0.0397 O.2       1 <0>        -0.5076
     12 C10         3.1021   -6.5395   -0.0507 C.2       1 <0>        -0.0444
     13 C11         3.4855   -7.8422   -0.0653 C.2       1 <0>        -0.0581
     14 C12         4.9479   -7.8340   -0.0710 C.ar      1 <0>        -0.1637
     15 C13         5.9272   -8.8302   -0.0849 C.ar      1 <0>         0.0563
     16 C14         7.2481   -8.4812   -0.0866 C.ar      1 <0>        -0.6951
     17 C15         7.6226   -7.1444   -0.0742 C.ar      1 <0>         0.0064
     18 C16         6.6721   -6.1468   -0.0600 C.ar      1 <0>        -0.1235
     19 C17         5.3217   -6.4774   -0.0589 C.ar      1 <0>         0.1233
     20 O2          4.1919   -5.7436   -0.0529 O.3       1 <0>        -0.1798
     21 S1          8.4848   -9.7362   -0.1042 S.o2      1 <0>         2.6915
     22 O3          9.6591   -9.1570    0.4479 O.2       1 <0>        -0.9493
     23 O4          7.8849  -10.9051    0.4374 O.2       1 <0>        -0.9509
     24 N2          8.8221  -10.0691   -1.6909 N.pl3     1 <0>        -0.9923
     25 C18         8.0700  -11.1027   -2.4152 C.3       1 <0>         0.1232
     26 C19         7.5020  -10.4903   -3.6995 C.3       1 <0>        -0.1107
     27 H1          6.7692   -9.7248   -3.4443 H         1 <0>         0.0780
     28 C20         8.6398   -9.8597   -4.5057 C.3       1 <0>        -0.1072
     29 C21         9.2911   -8.7439   -3.6855 C.3       1 <0>        -0.1076
     30 H2         10.0859   -8.2797   -4.2693 H         1 <0>         0.0854
     31 C22         9.8752   -9.3323   -2.4028 C.3       1 <0>         0.1232
     32 C23         8.2390   -7.6921   -3.3282 C.3       1 <0>        -0.1558
     33 C24         6.8297  -11.5834   -4.5325 C.3       1 <0>        -0.1485
     34 C25         2.5861   -9.0514   -0.0734 C.3       1 <0>        -0.1011
     35 H3          1.0042    1.8801    0.0026 H         1 <0>         0.0732
     36 H4         -0.5455    1.8639   -0.8728 H         1 <0>         0.0686
     37 H5         -0.5286    1.8543    0.9071 H         1 <0>         0.0686
     38 H6         -0.0064   -0.1436   -2.1312 H         1 <0>         0.1252
     39 H7          0.0266   -2.6057   -2.1448 H         1 <0>         0.1247
     40 H8          0.0491   -2.6289    2.1200 H         1 <0>         0.1249
     41 H9          0.0245   -0.1667    2.1335 H         1 <0>         0.1253
     42 H10        -0.4447   -4.6501    0.8693 H         1 <0>         0.0825
     43 H11        -0.4546   -4.6404   -0.9106 H         1 <0>         0.0825
     44 H12         2.1759   -4.1059   -0.0323 H         1 <0>         0.4084
     45 H13         5.6414   -9.8717   -0.0939 H         1 <0>         0.1477
     46 H14         8.6705   -6.8834   -0.0754 H         1 <0>         0.1536
     47 H15         6.9756   -5.1103   -0.0504 H         1 <0>         0.1464
     48 H16         8.7346  -11.9291   -2.6673 H         1 <0>         0.0794
     49 H17         7.2533  -11.4652   -1.7910 H         1 <0>         0.0900
     50 H18         9.3844  -10.6207   -4.7393 H         1 <0>         0.0669
     51 H19         8.2420   -9.4448   -5.4318 H         1 <0>         0.0661
     52 H20        10.2491   -8.5270   -1.7705 H         1 <0>         0.0917
     53 H21        10.6902  -10.0110   -2.6539 H         1 <0>         0.0787
     54 H22         7.4449   -8.1564   -2.7434 H         1 <0>         0.0595
     55 H23         8.7033   -6.8975   -2.7440 H         1 <0>         0.0551
     56 H24         7.8192   -7.2729   -4.2426 H         1 <0>         0.0572
     57 H25         6.0212  -12.0337   -3.9566 H         1 <0>         0.0583
     58 H26         6.4258  -11.1472   -5.4461 H         1 <0>         0.0591
     59 H27         7.5632  -12.3481   -4.7884 H         1 <0>         0.0587
     60 H28         2.3652   -9.3330   -1.1030 H         1 <0>         0.0834
     61 H29         3.0854   -9.8790    0.4305 H         1 <0>         0.0747
     62 H30         1.6572   -8.8168    0.4464 H         1 <0>         0.0958
@<TRIPOS>BOND
     1    1    2 1
     2    1   35 1
     3    1   36 1
     4    1   37 1
     5    2    7 ar
     6    2    3 ar
     7    3    4 ar
     8    3   38 1
     9    4    5 ar
    10    4   39 1
    11    5    6 ar
    12    5    8 1
    13    6    7 ar
    14    6   40 1
    15    7   41 1
    16    8    9 1
    17    8   42 1
    18    8   43 1
    19    9   10 am
    20    9   44 1
    21   10   11 2
    22   10   12 1
    23   12   20 1
    24   12   13 2
    25   13   14 1
    26   13   34 1
    27   14   19 ar
    28   14   15 ar
    29   15   16 ar
    30   15   45 1
    31   16   17 ar
    32   16   21 1
    33   17   18 ar
    34   17   46 1
    35   18   19 ar
    36   18   47 1
    37   19   20 1
    38   21   22 2
    39   21   23 2
    40   21   24 1
    41   24   31 1
    42   24   25 1
    43   25   26 1
    44   25   48 1
    45   25   49 1
    46   26   27 1
    47   26   28 1
    48   26   33 1
    49   28   29 1
    50   28   50 1
    51   28   51 1
    52   29   30 1
    53   29   31 1
    54   29   32 1
    55   31   52 1
    56   31   53 1
    57   32   54 1
    58   32   55 1
    59   32   56 1
    60   33   57 1
    61   33   58 1
    62   33   59 1
    63   34   60 1
    64   34   61 1
    65   34   62 1
@<TRIPOS>MOLECULE
ZINC09673198
   63    66     0     0     0
SMALL
USER_CHARGES

@<TRIPOS>ATOM
      1 C1         -0.0184    1.5028    0.0103 C.3       1 <0>        -0.1004
      2 C2          0.0021   -0.0041    0.0020 C.2       1 <0>        -0.0606
      3 C3          0.0088   -0.8769   -1.1714 C.ar      1 <0>        -0.1633
      4 C4         -0.0013   -0.6545   -2.5506 C.ar      1 <0>         0.0557
      5 C5          0.0091   -1.7181   -3.4080 C.ar      1 <0>        -0.6958
      6 C6          0.0293   -3.0169   -2.9177 C.ar      1 <0>         0.0035
      7 C7          0.0391   -3.2575   -1.5610 C.ar      1 <0>        -0.1237
      8 C8          0.0297   -2.1913   -0.6689 C.ar      1 <0>         0.1215
      9 O1          0.0350   -2.1131    0.6760 O.3       1 <0>        -0.1794
     10 C9          0.0240   -0.8264    1.0826 C.2       1 <0>        -0.0412
     11 C10         0.0311   -0.3820    2.4836 C.2       1 <0>         0.6024
     12 O2          0.0168    0.8061    2.7450 O.2       1 <0>        -0.5089
     13 N1          0.0534   -1.2907    3.4787 N.am      1 <0>        -0.7084
     14 C11         0.0604   -0.8478    4.8751 C.3       1 <0>         0.1725
     15 C12         0.0860   -2.0500    5.7834 C.ar      1 <0>        -0.1489
     16 C13        -1.0812   -2.4965    6.3726 C.ar      1 <0>        -0.0596
     17 C14        -1.0583   -3.5990    7.2062 C.ar      1 <0>        -0.1585
     18 C15         0.1322   -4.2581    7.4523 C.ar      1 <0>        -0.0680
     19 C16         1.3018   -3.8161    6.8653 C.ar      1 <0>        -0.2111
     20 C17         1.2805   -2.7128    6.0240 C.ar      1 <0>         0.1458
     21 O3          2.4290   -2.2793    5.4409 O.3       1 <0>        -0.3113
     22 C18         3.6214   -3.0103    5.7339 C.3       1 <0>         0.0257
     23 S1         -0.0036   -1.4396   -5.1478 S.o2      1 <0>         2.6927
     24 O4         -0.5411   -2.6127   -5.7430 O.2       1 <0>        -0.9493
     25 O5         -0.5735   -0.1536   -5.3491 O.2       1 <0>        -0.9503
     26 N2          1.5747   -1.3402   -5.6394 N.pl3     1 <0>        -0.9946
     27 C19         2.2735   -0.0479   -5.6559 C.3       1 <0>         0.1225
     28 C20         3.5721   -0.1793   -4.8539 C.3       1 <0>        -0.1086
     29 H1          3.3355   -0.3667   -3.8066 H         1 <0>         0.0741
     30 C21         4.3937   -1.3454   -5.4085 C.3       1 <0>        -0.1076
     31 C22         3.6009   -2.6460   -5.2607 C.3       1 <0>        -0.1088
     32 H2          3.3640   -2.8102   -4.2094 H         1 <0>         0.0745
     33 C23         2.3045   -2.5435   -6.0614 C.3       1 <0>         0.1230
     34 C24         4.4365   -3.8157   -5.7845 C.3       1 <0>        -0.1478
     35 C25         4.3783    1.1157   -4.9716 C.3       1 <0>        -0.1482
     36 H3          1.0042    1.8801    0.0026 H         1 <0>         0.0830
     37 H4         -0.5455    1.8639   -0.8728 H         1 <0>         0.0743
     38 H5         -0.5286    1.8543    0.9071 H         1 <0>         0.0960
     39 H6         -0.0177    0.3537   -2.9372 H         1 <0>         0.1479
     40 H7          0.0370   -3.8479   -3.6075 H         1 <0>         0.1540
     41 H8          0.0541   -4.2722   -1.1914 H         1 <0>         0.1465
     42 H9          0.0647   -2.2380    3.2703 H         1 <0>         0.4068
     43 H10         0.9436   -0.2356    5.0577 H         1 <0>         0.0849
     44 H11        -0.8361   -0.2607    5.0746 H         1 <0>         0.0819
     45 H12        -2.0123   -1.9834    6.1819 H         1 <0>         0.1330
     46 H13        -1.9717   -3.9460    7.6664 H         1 <0>         0.1282
     47 H14         0.1476   -5.1190    8.1042 H         1 <0>         0.1279
     48 H15         2.2313   -4.3311    7.0578 H         1 <0>         0.1310
     49 H16         3.8096   -2.9833    6.8072 H         1 <0>         0.0578
     50 H17         3.5018   -4.0448    5.4119 H         1 <0>         0.0569
     51 H18         4.4623   -2.5604    5.2061 H         1 <0>         0.1020
     52 H19         2.5056    0.2289   -6.6843 H         1 <0>         0.0793
     53 H20         1.6405    0.7157   -5.2038 H         1 <0>         0.0907
     54 H21         4.6089   -1.1691   -6.4624 H         1 <0>         0.0673
     55 H22         5.3295   -1.4256   -4.8555 H         1 <0>         0.0664
     56 H23         1.6919   -3.4260   -5.8768 H         1 <0>         0.0914
     57 H24         2.5391   -2.4747   -7.1237 H         1 <0>         0.0785
     58 H25         5.3612   -3.8870   -5.2118 H         1 <0>         0.0594
     59 H26         3.8715   -4.7419   -5.6790 H         1 <0>         0.0589
     60 H27         4.6722   -3.6517   -6.8360 H         1 <0>         0.0589
     61 H28         3.7914    1.9460   -4.5787 H         1 <0>         0.0589
     62 H29         5.3021    1.0217   -4.4008 H         1 <0>         0.0595
     63 H30         4.6156    1.3021   -6.0190 H         1 <0>         0.0591
@<TRIPOS>BOND
     1    1    2 1
     2    1   36 1
     3    1   37 1
     4    1   38 1
     5    2   10 2
     6    2    3 1
     7    3    8 ar
     8    3    4 ar
     9    4    5 ar
    10    4   39 1
    11    5    6 ar
    12    5   23 1
    13    6    7 ar
    14    6   40 1
    15    7    8 ar
    16    7   41 1
    17    8    9 1
    18    9   10 1
    19   10   11 1
    20   11   12 2
    21   11   13 am
    22   13   14 1
    23   13   42 1
    24   14   15 1
    25   14   43 1
    26   14   44 1
    27   15   20 ar
    28   15   16 ar
    29   16   17 ar
    30   16   45 1
    31   17   18 ar
    32   17   46 1
    33   18   19 ar
    34   18   47 1
    35   19   20 ar
    36   19   48 1
    37   20   21 1
    38   21   22 1
    39   22   49 1
    40   22   50 1
    41   22   51 1
    42   23   24 2
    43   23   25 2
    44   23   26 1
    45   26   33 1
    46   26   27 1
    47   27   28 1
    48   27   52 1
    49   27   53 1
    50   28   29 1
    51   28   30 1
    52   28   35 1
    53   30   31 1
    54   30   54 1
    55   30   55 1
    56   31   32 1
    57   31   33 1
    58   31   34 1
    59   33   56 1
    60   33   57 1
    61   34   58 1
    62   34   59 1
    63   34   60 1
    64   35   61 1
    65   35   62 1
    66   35   63 1
@<TRIPOS>MOLECULE
ZINC09673199
   63    66     0     0     0
SMALL
USER_CHARGES

@<TRIPOS>ATOM
      1 C1         -0.0184    1.5028    0.0103 C.3       1 <0>        -0.1005
      2 C2          0.0021   -0.0041    0.0020 C.2       1 <0>        -0.0602
      3 C3          0.0088   -0.8769   -1.1714 C.ar      1 <0>        -0.1621
      4 C4         -0.0013   -0.6545   -2.5506 C.ar      1 <0>         0.0583
      5 C5          0.0091   -1.7181   -3.4080 C.ar      1 <0>        -0.6959
      6 C6          0.0293   -3.0169   -2.9177 C.ar      1 <0>         0.0039
      7 C7          0.0391   -3.2575   -1.5610 C.ar      1 <0>        -0.1238
      8 C8          0.0297   -2.1913   -0.6689 C.ar      1 <0>         0.1222
      9 O1          0.0350   -2.1131    0.6760 O.3       1 <0>        -0.1797
     10 C9          0.0240   -0.8264    1.0826 C.2       1 <0>        -0.0413
     11 C10         0.0311   -0.3820    2.4836 C.2       1 <0>         0.6023
     12 O2          0.0168    0.8061    2.7450 O.2       1 <0>        -0.5091
     13 N1          0.0534   -1.2907    3.4787 N.am      1 <0>        -0.7085
     14 C11         0.0604   -0.8478    4.8751 C.3       1 <0>         0.1725
     15 C12         0.0860   -2.0500    5.7834 C.ar      1 <0>        -0.1488
     16 C13        -1.0812   -2.4965    6.3726 C.ar      1 <0>        -0.0597
     17 C14        -1.0583   -3.5990    7.2062 C.ar      1 <0>        -0.1585
     18 C15         0.1322   -4.2581    7.4523 C.ar      1 <0>        -0.0680
     19 C16         1.3018   -3.8161    6.8653 C.ar      1 <0>        -0.2111
     20 C17         1.2805   -2.7128    6.0240 C.ar      1 <0>         0.1458
     21 O3          2.4290   -2.2793    5.4409 O.3       1 <0>        -0.3113
     22 C18         3.6214   -3.0103    5.7339 C.3       1 <0>         0.0257
     23 S1         -0.0036   -1.4396   -5.1478 S.o2      1 <0>         2.6917
     24 O4         -0.5411   -2.6127   -5.7430 O.2       1 <0>        -0.9500
     25 O5         -0.5735   -0.1536   -5.3491 O.2       1 <0>        -0.9508
     26 N2          1.5747   -1.3402   -5.6394 N.pl3     1 <0>        -0.9923
     27 C19         2.2735   -0.0479   -5.6559 C.3       1 <0>         0.1227
     28 C20         3.5721   -0.1793   -4.8539 C.3       1 <0>        -0.1072
     29 H1          4.1467    0.7431   -4.9382 H         1 <0>         0.0850
     30 C21         4.3937   -1.3454   -5.4085 C.3       1 <0>        -0.1070
     31 C22         3.6009   -2.6460   -5.2607 C.3       1 <0>        -0.1111
     32 H2          3.3640   -2.8102   -4.2094 H         1 <0>         0.0784
     33 C23         2.3045   -2.5435   -6.0614 C.3       1 <0>         0.1237
     34 C24         4.4365   -3.8157   -5.7845 C.3       1 <0>        -0.1480
     35 C25         3.2400   -0.4416   -3.3836 C.3       1 <0>        -0.1553
     36 H3          1.0042    1.8801    0.0026 H         1 <0>         0.0829
     37 H4         -0.5455    1.8639   -0.8728 H         1 <0>         0.0741
     38 H5         -0.5286    1.8543    0.9071 H         1 <0>         0.0958
     39 H6         -0.0177    0.3537   -2.9372 H         1 <0>         0.1470
     40 H7          0.0370   -3.8479   -3.6075 H         1 <0>         0.1535
     41 H8          0.0541   -4.2722   -1.1914 H         1 <0>         0.1459
     42 H9          0.0647   -2.2380    3.2703 H         1 <0>         0.4067
     43 H10         0.9436   -0.2356    5.0577 H         1 <0>         0.0849
     44 H11        -0.8361   -0.2607    5.0746 H         1 <0>         0.0818
     45 H12        -2.0123   -1.9834    6.1819 H         1 <0>         0.1330
     46 H13        -1.9717   -3.9460    7.6664 H         1 <0>         0.1282
     47 H14         0.1476   -5.1190    8.1042 H         1 <0>         0.1279
     48 H15         2.2313   -4.3311    7.0578 H         1 <0>         0.1310
     49 H16         3.8096   -2.9833    6.8072 H         1 <0>         0.0578
     50 H17         3.5018   -4.0448    5.4119 H         1 <0>         0.0568
     51 H18         4.4623   -2.5604    5.2061 H         1 <0>         0.1019
     52 H19         2.5056    0.2289   -6.6843 H         1 <0>         0.0794
     53 H20         1.6405    0.7157   -5.2038 H         1 <0>         0.0909
     54 H21         4.6089   -1.1691   -6.4624 H         1 <0>         0.0668
     55 H22         5.3295   -1.4256   -4.8555 H         1 <0>         0.0660
     56 H23         1.6919   -3.4260   -5.8768 H         1 <0>         0.0908
     57 H24         2.5391   -2.4747   -7.1237 H         1 <0>         0.0784
     58 H25         5.3612   -3.8870   -5.2118 H         1 <0>         0.0589
     59 H26         3.8715   -4.7419   -5.6790 H         1 <0>         0.0583
     60 H27         4.6722   -3.6517   -6.8360 H         1 <0>         0.0584
     61 H28         2.6664   -1.3647   -3.2997 H         1 <0>         0.0598
     62 H29         4.1643   -0.5350   -2.8134 H         1 <0>         0.0575
     63 H30         2.6527    0.3881   -2.9902 H         1 <0>         0.0537
@<TRIPOS>BOND
     1    1    2 1
     2    1   36 1
     3    1   37 1
     4    1   38 1
     5    2   10 2
     6    2    3 1
     7    3    8 ar
     8    3    4 ar
     9    4    5 ar
    10    4   39 1
    11    5    6 ar
    12    5   23 1
    13    6    7 ar
    14    6   40 1
    15    7    8 ar
    16    7   41 1
    17    8    9 1
    18    9   10 1
    19   10   11 1
    20   11   12 2
    21   11   13 am
    22   13   14 1
    23   13   42 1
    24   14   15 1
    25   14   43 1
    26   14   44 1
    27   15   20 ar
    28   15   16 ar
    29   16   17 ar
    30   16   45 1
    31   17   18 ar
    32   17   46 1
    33   18   19 ar
    34   18   47 1
    35   19   20 ar
    36   19   48 1
    37   20   21 1
    38   21   22 1
    39   22   49 1
    40   22   50 1
    41   22   51 1
    42   23   24 2
    43   23   25 2
    44   23   26 1
    45   26   33 1
    46   26   27 1
    47   27   28 1
    48   27   52 1
    49   27   53 1
    50   28   29 1
    51   28   30 1
    52   28   35 1
    53   30   31 1
    54   30   54 1
    55   30   55 1
    56   31   32 1
    57   31   33 1
    58   31   34 1
    59   33   56 1
    60   33   57 1
    61   34   58 1
    62   34   59 1
    63   34   60 1
    64   35   61 1
    65   35   62 1
    66   35   63 1
@<TRIPOS>MOLECULE
ZINC09673200
   63    66     0     0     0
SMALL
USER_CHARGES

@<TRIPOS>ATOM
      1 C1         -0.0184    1.5028    0.0103 C.3       1 <0>        -0.1004
      2 C2          0.0021   -0.0041    0.0020 C.2       1 <0>        -0.0605
      3 C3          0.0088   -0.8769   -1.1714 C.ar      1 <0>        -0.1629
      4 C4         -0.0013   -0.6545   -2.5506 C.ar      1 <0>         0.0560
      5 C5          0.0091   -1.7181   -3.4080 C.ar      1 <0>        -0.6953
      6 C6          0.0293   -3.0169   -2.9177 C.ar      1 <0>         0.0057
      7 C7          0.0391   -3.2575   -1.5610 C.ar      1 <0>        -0.1235
      8 C8          0.0297   -2.1913   -0.6689 C.ar      1 <0>         0.1225
      9 O1          0.0350   -2.1131    0.6760 O.3       1 <0>        -0.1796
     10 C9          0.0240   -0.8264    1.0826 C.2       1 <0>        -0.0413
     11 C10         0.0311   -0.3820    2.4836 C.2       1 <0>         0.6023
     12 O2          0.0168    0.8061    2.7450 O.2       1 <0>        -0.5091
     13 N1          0.0534   -1.2907    3.4787 N.am      1 <0>        -0.7084
     14 C11         0.0604   -0.8478    4.8751 C.3       1 <0>         0.1725
     15 C12         0.0860   -2.0500    5.7834 C.ar      1 <0>        -0.1489
     16 C13        -1.0812   -2.4965    6.3726 C.ar      1 <0>        -0.0596
     17 C14        -1.0583   -3.5990    7.2062 C.ar      1 <0>        -0.1585
     18 C15         0.1322   -4.2581    7.4523 C.ar      1 <0>        -0.0680
     19 C16         1.3018   -3.8161    6.8653 C.ar      1 <0>        -0.2111
     20 C17         1.2805   -2.7128    6.0240 C.ar      1 <0>         0.1458
     21 O3          2.4290   -2.2793    5.4409 O.3       1 <0>        -0.3113
     22 C18         3.6214   -3.0103    5.7339 C.3       1 <0>         0.0257
     23 S1         -0.0036   -1.4396   -5.1478 S.o2      1 <0>         2.6917
     24 O4         -0.5411   -2.6127   -5.7430 O.2       1 <0>        -0.9497
     25 O5         -0.5735   -0.1536   -5.3491 O.2       1 <0>        -0.9511
     26 N2          1.5747   -1.3402   -5.6394 N.pl3     1 <0>        -0.9924
     27 C19         2.2735   -0.0479   -5.6559 C.3       1 <0>         0.1232
     28 C20         3.5721   -0.1793   -4.8539 C.3       1 <0>        -0.1108
     29 H1          3.3355   -0.3667   -3.8066 H         1 <0>         0.0781
     30 C21         4.3937   -1.3454   -5.4085 C.3       1 <0>        -0.1071
     31 C22         3.6009   -2.6460   -5.2607 C.3       1 <0>        -0.1076
     32 H2          4.1960   -3.4793   -5.6344 H         1 <0>         0.0852
     33 C23         2.3045   -2.5435   -6.0614 C.3       1 <0>         0.1233
     34 C24         3.2691   -2.8769   -3.7850 C.3       1 <0>        -0.1557
     35 C25         4.3783    1.1157   -4.9716 C.3       1 <0>        -0.1484
     36 H3          1.0042    1.8801    0.0026 H         1 <0>         0.0829
     37 H4         -0.5455    1.8639   -0.8728 H         1 <0>         0.0742
     38 H5         -0.5286    1.8543    0.9071 H         1 <0>         0.0958
     39 H6         -0.0177    0.3537   -2.9372 H         1 <0>         0.1474
     40 H7          0.0370   -3.8479   -3.6075 H         1 <0>         0.1532
     41 H8          0.0541   -4.2722   -1.1914 H         1 <0>         0.1459
     42 H9          0.0647   -2.2380    3.2703 H         1 <0>         0.4068
     43 H10         0.9436   -0.2356    5.0577 H         1 <0>         0.0849
     44 H11        -0.8361   -0.2607    5.0746 H         1 <0>         0.0818
     45 H12        -2.0123   -1.9834    6.1819 H         1 <0>         0.1330
     46 H13        -1.9717   -3.9460    7.6664 H         1 <0>         0.1282
     47 H14         0.1476   -5.1190    8.1042 H         1 <0>         0.1279
     48 H15         2.2313   -4.3311    7.0578 H         1 <0>         0.1310
     49 H16         3.8096   -2.9833    6.8072 H         1 <0>         0.0578
     50 H17         3.5018   -4.0448    5.4119 H         1 <0>         0.0569
     51 H18         4.4623   -2.5604    5.2061 H         1 <0>         0.1019
     52 H19         2.5056    0.2289   -6.6843 H         1 <0>         0.0792
     53 H20         1.6405    0.7157   -5.2038 H         1 <0>         0.0901
     54 H21         4.6089   -1.1691   -6.4624 H         1 <0>         0.0668
     55 H22         5.3295   -1.4256   -4.8555 H         1 <0>         0.0660
     56 H23         1.6919   -3.4260   -5.8768 H         1 <0>         0.0916
     57 H24         2.5391   -2.4747   -7.1237 H         1 <0>         0.0785
     58 H25         2.6731   -2.0440   -3.4120 H         1 <0>         0.0596
     59 H26         2.7045   -3.8033   -3.6802 H         1 <0>         0.0551
     60 H27         4.1934   -2.9478   -3.2116 H         1 <0>         0.0570
     61 H28         3.7914    1.9460   -4.5787 H         1 <0>         0.0584
     62 H29         5.3021    1.0217   -4.4008 H         1 <0>         0.0590
     63 H30         4.6156    1.3021   -6.0190 H         1 <0>         0.0586
@<TRIPOS>BOND
     1    1    2 1
     2    1   36 1
     3    1   37 1
     4    1   38 1
     5    2   10 2
     6    2    3 1
     7    3    8 ar
     8    3    4 ar
     9    4    5 ar
    10    4   39 1
    11    5    6 ar
    12    5   23 1
    13    6    7 ar
    14    6   40 1
    15    7    8 ar
    16    7   41 1
    17    8    9 1
    18    9   10 1
    19   10   11 1
    20   11   12 2
    21   11   13 am
    22   13   14 1
    23   13   42 1
    24   14   15 1
    25   14   43 1
    26   14   44 1
    27   15   20 ar
    28   15   16 ar
    29   16   17 ar
    30   16   45 1
    31   17   18 ar
    32   17   46 1
    33   18   19 ar
    34   18   47 1
    35   19   20 ar
    36   19   48 1
    37   20   21 1
    38   21   22 1
    39   22   49 1
    40   22   50 1
    41   22   51 1
    42   23   24 2
    43   23   25 2
    44   23   26 1
    45   26   33 1
    46   26   27 1
    47   27   28 1
    48   27   52 1
    49   27   53 1
    50   28   29 1
    51   28   30 1
    52   28   35 1
    53   30   31 1
    54   30   54 1
    55   30   55 1
    56   31   32 1
    57   31   33 1
    58   31   34 1
    59   33   56 1
    60   33   57 1
    61   34   58 1
    62   34   59 1
    63   34   60 1
    64   35   61 1
    65   35   62 1
    66   35   63 1
@<TRIPOS>MOLECULE
ZINC14688371
   62    66     0     0     0
SMALL
USER_CHARGES

@<TRIPOS>ATOM
      1 C1         -0.3471    1.4289    0.0294 C.3       1 <0>        -0.1956
      2 C2         -0.1379   -0.0635    0.0239 C.ar      1 <0>         0.0475
      3 C3         -0.2252   -0.7669   -1.1646 C.ar      1 <0>        -0.1462
      4 C4         -0.0344   -2.1330   -1.1767 C.ar      1 <0>        -0.0278
      5 C5          0.2475   -2.8057    0.0136 C.ar      1 <0>        -0.1599
      6 C6          0.3342   -2.0903    1.2087 C.ar      1 <0>         0.0423
      7 C7          0.1463   -0.7234    1.2060 C.ar      1 <0>        -0.6909
      8 S1          0.2619    0.1828    2.7128 S.o2      1 <0>         2.6932
      9 O1         -0.8485    1.0691    2.7399 O.2       1 <0>        -0.9461
     10 O2          0.5031   -0.7680    3.7410 O.2       1 <0>        -0.9447
     11 N1          1.6188    1.1269    2.6134 N.pl3     1 <0>        -0.9981
     12 C8          2.9459    0.5828    2.9420 C.3       1 <0>         0.0859
     13 C9          3.9025    0.9131    1.7906 C.3       1 <0>         0.0463
     14 O3          3.8414    2.3146    1.5152 O.3       1 <0>        -0.3720
     15 C10         2.5585    2.7698    1.0785 C.3       1 <0>         0.0424
     16 C11         1.5337    2.5330    2.1880 C.3       1 <0>         0.0742
     17 C12         0.4527   -4.2699    0.0082 C.2       1 <0>         0.5581
     18 O4          0.6980   -4.8530    1.0461 O.2       1 <0>        -0.5274
     19 N2          0.3678   -4.9580   -1.1476 N.am      1 <0>        -0.7228
     20 C13         0.5712   -6.4088   -1.1530 C.3       1 <0>         0.1285
     21 C14         0.4215   -6.9395   -2.5802 C.3       1 <0>        -0.0653
     22 C15        -0.9818   -6.6193   -3.0988 C.3       1 <0>        -0.1024
     23 C16        -1.1315   -7.1500   -4.5260 C.3       1 <0>        -0.0861
     24 C17        -0.9191   -8.6651   -4.5316 C.3       1 <0>        -0.1094
     25 C18         0.4842   -8.9853   -4.0130 C.3       1 <0>        -0.0849
     26 C19         0.6339   -8.4546   -2.5858 C.3       1 <0>        -0.1001
     27 C20         1.5255   -8.3210   -4.9159 C.3       1 <0>        -0.1093
     28 C21         1.3131   -6.8058   -4.9103 C.3       1 <0>        -0.0860
     29 C22        -0.0902   -6.4857   -5.4289 C.3       1 <0>        -0.1091
     30 C23         1.4628   -6.2752   -3.4831 C.3       1 <0>        -0.1020
     31 H1          0.6186    1.9314   -0.0256 H         1 <0>         0.0924
     32 H2         -0.9543    1.7139   -0.8298 H         1 <0>         0.0917
     33 H3         -0.8569    1.7210    0.9475 H         1 <0>         0.1169
     34 H4         -0.4437   -0.2453   -2.0847 H         1 <0>         0.1414
     35 H5         -0.1032   -2.6809   -2.1048 H         1 <0>         0.1333
     36 H6          0.5519   -2.6049    2.1329 H         1 <0>         0.1577
     37 H7          3.3106    1.0361    3.8638 H         1 <0>         0.0894
     38 H8          2.8793   -0.4982    3.0653 H         1 <0>         0.0988
     39 H9          4.9197    0.6416    2.0731 H         1 <0>         0.1103
     40 H10         3.6092    0.3543    0.9019 H         1 <0>         0.0563
     41 H11         2.6087    3.8341    0.8486 H         1 <0>         0.1111
     42 H12         2.2603    2.2178    0.1872 H         1 <0>         0.0583
     43 H13         0.5323    2.7429    1.8122 H         1 <0>         0.1071
     44 H14         1.7538    3.1860    3.0326 H         1 <0>         0.0890
     45 H15         0.1721   -4.4926   -1.9759 H         1 <0>         0.3985
     46 H16         1.5710   -6.6369   -0.7835 H         1 <0>         0.0723
     47 H17        -0.1706   -6.8820   -0.5097 H         1 <0>         0.0723
     48 H18        -1.7237   -7.0925   -2.4555 H         1 <0>         0.0665
     49 H19        -1.1331   -5.5398   -3.0948 H         1 <0>         0.0583
     50 H20        -2.1313   -6.9218   -4.8954 H         1 <0>         0.0708
     51 H21        -1.6609   -9.1384   -3.8883 H         1 <0>         0.0626
     52 H22        -1.0258   -9.0432   -5.5483 H         1 <0>         0.0629
     53 H23         0.6356  -10.0648   -4.0170 H         1 <0>         0.0725
     54 H24         1.6337   -8.6827   -2.2163 H         1 <0>         0.0668
     55 H25        -0.1079   -8.9279   -1.9425 H         1 <0>         0.0669
     56 H26         2.5253   -8.5491   -4.5465 H         1 <0>         0.0625
     57 H27         1.4189   -8.6991   -5.9327 H         1 <0>         0.0628
     58 H28         2.0549   -6.3326   -5.5536 H         1 <0>         0.0707
     59 H29        -0.1969   -6.8637   -6.4457 H         1 <0>         0.0633
     60 H30        -0.2416   -5.4062   -5.4249 H         1 <0>         0.0601
     61 H31         1.3115   -5.1957   -3.4791 H         1 <0>         0.0582
     62 H32         2.4626   -6.5033   -3.1137 H         1 <0>         0.0663
@<TRIPOS>BOND
     1    1    2 1
     2    1   31 1
     3    1   32 1
     4    1   33 1
     5    2    7 ar
     6    2    3 ar
     7    3    4 ar
     8    3   34 1
     9    4    5 ar
    10    4   35 1
    11    5    6 ar
    12    5   17 1
    13    6    7 ar
    14    6   36 1
    15    7    8 1
    16    8    9 2
    17    8   10 2
    18    8   11 1
    19   11   16 1
    20   11   12 1
    21   12   13 1
    22   12   37 1
    23   12   38 1
    24   13   14 1
    25   13   39 1
    26   13   40 1
    27   14   15 1
    28   15   16 1
    29   15   41 1
    30   15   42 1
    31   16   43 1
    32   16   44 1
    33   17   18 2
    34   17   19 am
    35   19   20 1
    36   19   45 1
    37   20   21 1
    38   20   46 1
    39   20   47 1
    40   21   26 1
    41   21   30 1
    42   21   22 1
    43   22   23 1
    44   22   48 1
    45   22   49 1
    46   23   29 1
    47   23   24 1
    48   23   50 1
    49   24   25 1
    50   24   51 1
    51   24   52 1
    52   25   26 1
    53   25   27 1
    54   25   53 1
    55   26   54 1
    56   26   55 1
    57   27   28 1
    58   27   56 1
    59   27   57 1
    60   28   29 1
    61   28   30 1
    62   28   58 1
    63   29   59 1
    64   29   60 1
    65   30   61 1
    66   30   62 1
@<TRIPOS>MOLECULE
ZINC07608295
   59    63     0     0     0
SMALL
USER_CHARGES

@<TRIPOS>ATOM
      1 C1         -0.3471    1.4289    0.0294 C.3       1 <0>        -0.1956
      2 C2         -0.1379   -0.0635    0.0239 C.ar      1 <0>         0.0471
      3 C3         -0.2252   -0.7669   -1.1646 C.ar      1 <0>        -0.1467
      4 C4         -0.0344   -2.1330   -1.1767 C.ar      1 <0>        -0.0279
      5 C5          0.2475   -2.8057    0.0136 C.ar      1 <0>        -0.1608
      6 C6          0.3342   -2.0903    1.2087 C.ar      1 <0>         0.0421
      7 C7          0.1463   -0.7234    1.2060 C.ar      1 <0>        -0.6912
      8 S1          0.2619    0.1828    2.7128 S.o2      1 <0>         2.6932
      9 O1         -0.8485    1.0691    2.7399 O.2       1 <0>        -0.9464
     10 O2          0.5031   -0.7680    3.7410 O.2       1 <0>        -0.9449
     11 N1          1.6188    1.1269    2.6134 N.pl3     1 <0>        -0.9982
     12 C8          2.9459    0.5828    2.9420 C.3       1 <0>         0.0861
     13 C9          3.9025    0.9131    1.7906 C.3       1 <0>         0.0464
     14 O3          3.8414    2.3146    1.5152 O.3       1 <0>        -0.3721
     15 C10         2.5585    2.7698    1.0785 C.3       1 <0>         0.0424
     16 C11         1.5337    2.5330    2.1880 C.3       1 <0>         0.0742
     17 C12         0.4527   -4.2699    0.0082 C.2       1 <0>         0.5620
     18 O4          0.6980   -4.8530    1.0461 O.2       1 <0>        -0.5216
     19 N2          0.3678   -4.9580   -1.1476 N.am      1 <0>        -0.7211
     20 C13         0.5712   -6.4088   -1.1530 C.3       1 <0>         0.1843
     21 C14        -0.4701   -7.0731   -0.2500 C.3       1 <0>        -0.1234
     22 C15        -0.2577   -8.5882   -0.2556 C.3       1 <0>        -0.0824
     23 C16        -0.4074   -9.1189   -1.6828 C.3       1 <0>        -0.1117
     24 C17         0.6339   -8.4546   -2.5858 C.3       1 <0>        -0.0801
     25 C18         0.4215   -6.9395   -2.5802 C.3       1 <0>        -0.1151
     26 C19         2.0373   -8.7748   -2.0672 C.3       1 <0>        -0.1115
     27 C20         2.1870   -8.2441   -0.6400 C.3       1 <0>        -0.0823
     28 C21         1.1457   -8.9084    0.2630 C.3       1 <0>        -0.1100
     29 C22         1.9746   -6.7290   -0.6344 C.3       1 <0>        -0.1225
     30 H1          0.6186    1.9314   -0.0256 H         1 <0>         0.0923
     31 H2         -0.9543    1.7139   -0.8298 H         1 <0>         0.0916
     32 H3         -0.8569    1.7210    0.9475 H         1 <0>         0.1167
     33 H4         -0.4437   -0.2453   -2.0847 H         1 <0>         0.1410
     34 H5         -0.1032   -2.6809   -2.1048 H         1 <0>         0.1346
     35 H6          0.5519   -2.6049    2.1329 H         1 <0>         0.1575
     36 H7          3.3106    1.0361    3.8638 H         1 <0>         0.0894
     37 H8          2.8793   -0.4982    3.0653 H         1 <0>         0.0986
     38 H9          4.9197    0.6416    2.0731 H         1 <0>         0.1102
     39 H10         3.6092    0.3543    0.9019 H         1 <0>         0.0562
     40 H11         2.6087    3.8341    0.8486 H         1 <0>         0.1111
     41 H12         2.2603    2.2178    0.1872 H         1 <0>         0.0583
     42 H13         0.5323    2.7429    1.8122 H         1 <0>         0.1071
     43 H14         1.7538    3.1860    3.0326 H         1 <0>         0.0890
     44 H15         0.1721   -4.4926   -1.9759 H         1 <0>         0.3972
     45 H16        -0.3634   -6.6950    0.7667 H         1 <0>         0.0865
     46 H17        -1.4698   -6.8450   -0.6195 H         1 <0>         0.0600
     47 H18        -0.9995   -9.0615    0.3877 H         1 <0>         0.0733
     48 H19        -0.2560  -10.1984   -1.6868 H         1 <0>         0.0658
     49 H20        -1.4071   -8.8908   -2.0523 H         1 <0>         0.0625
     50 H21         0.5273   -8.8327   -3.6025 H         1 <0>         0.0756
     51 H22        -0.5783   -6.7113   -2.9496 H         1 <0>         0.0686
     52 H23         1.1634   -6.4662   -3.2235 H         1 <0>         0.0685
     53 H24         2.1886   -9.8543   -2.0712 H         1 <0>         0.0658
     54 H25         2.7791   -8.3016   -2.7105 H         1 <0>         0.0624
     55 H26         3.1868   -8.4722   -0.2705 H         1 <0>         0.0732
     56 H27         1.2523   -8.5304    1.2797 H         1 <0>         0.0656
     57 H28         1.2970   -9.9879    0.2590 H         1 <0>         0.0636
     58 H29         2.7164   -6.2557   -1.2777 H         1 <0>         0.0597
     59 H30         2.0812   -6.3509    0.3824 H         1 <0>         0.0863
@<TRIPOS>BOND
     1    1    2 1
     2    1   30 1
     3    1   31 1
     4    1   32 1
     5    2    7 ar
     6    2    3 ar
     7    3    4 ar
     8    3   33 1
     9    4    5 ar
    10    4   34 1
    11    5    6 ar
    12    5   17 1
    13    6    7 ar
    14    6   35 1
    15    7    8 1
    16    8    9 2
    17    8   10 2
    18    8   11 1
    19   11   16 1
    20   11   12 1
    21   12   13 1
    22   12   36 1
    23   12   37 1
    24   13   14 1
    25   13   38 1
    26   13   39 1
    27   14   15 1
    28   15   16 1
    29   15   40 1
    30   15   41 1
    31   16   42 1
    32   16   43 1
    33   17   18 2
    34   17   19 am
    35   19   20 1
    36   19   44 1
    37   20   25 1
    38   20   29 1
    39   20   21 1
    40   21   22 1
    41   21   45 1
    42   21   46 1
    43   22   28 1
    44   22   23 1
    45   22   47 1
    46   23   24 1
    47   23   48 1
    48   23   49 1
    49   24   25 1
    50   24   26 1
    51   24   50 1
    52   25   51 1
    53   25   52 1
    54   26   27 1
    55   26   53 1
    56   26   54 1
    57   27   28 1
    58   27   29 1
    59   27   55 1
    60   28   56 1
    61   28   57 1
    62   29   58 1
    63   29   59 1
@<TRIPOS>MOLECULE
ZINC13975598
   50    54     0     0     0
SMALL
USER_CHARGES
[(2R)-2-(2,4-dichlorophenyl)-6-fluoro-2-(4-fluorophenyl)-1,3-benzodioxol-5-yl]-morpholino-methanone
@<TRIPOS>ATOM
      1 C1         -0.8204   -3.6332    1.3216 C.ar      1 <0>        -0.0480
      2 C2         -1.4852   -4.2396    2.3705 C.ar      1 <0>        -0.1553
      3 C3         -2.7869   -3.8738    2.6684 C.ar      1 <0>         0.1220
      4 C4         -3.4193   -2.8969    1.9181 C.ar      1 <0>        -0.1552
      5 C5         -2.7507   -2.2882    0.8730 C.ar      1 <0>        -0.0497
      6 C6         -1.4509   -2.6540    0.5768 C.ar      1 <0>        -0.1143
      7 C7         -0.7227   -1.9892   -0.5629 C.3       1 <0>         0.3664
      8 O1         -0.9436   -0.5666   -0.5428 O.3       1 <0>        -0.2747
      9 C8          0.2208   -0.0112   -0.9918 C.ar      1 <0>         0.0168
     10 C9          0.5027    1.2496   -1.4775 C.ar      1 <0>        -0.0397
     11 C10         1.8036    1.5678   -1.8792 C.ar      1 <0>        -0.1591
     12 C11         2.8153    0.6054   -1.7854 C.ar      1 <0>         0.1695
     13 C12         2.5252   -0.6537   -1.2992 C.ar      1 <0>        -0.1400
     14 C13         1.2335   -0.9680   -0.9016 C.ar      1 <0>         0.0928
     15 O2          0.7015   -2.1175   -0.3965 O.3       1 <0>        -0.2659
     16 F1          4.0742    0.9078   -2.1714 F         1 <0>        -0.1101
     17 C14         2.1088    2.9136   -2.3987 C.2       1 <0>         0.5719
     18 O3          2.6921    3.0383   -3.4585 O.2       1 <0>        -0.5132
     19 N1          1.7415    4.0054   -1.6991 N.am      1 <0>        -0.6095
     20 C15         1.1361    3.8810   -0.3637 C.3       1 <0>         0.0664
     21 C16         1.8983    4.8086    0.5962 C.3       1 <0>         0.0468
     22 O4          1.9426    6.1248    0.0399 O.3       1 <0>        -0.3764
     23 C17         2.6469    6.2123   -1.2011 C.3       1 <0>         0.0468
     24 C18         1.9283    5.3568   -2.2507 C.3       1 <0>         0.0768
     25 C19        -1.1567   -2.5768   -1.8810 C.ar      1 <0>        -0.1320
     26 C20        -1.9944   -1.8598   -2.7149 C.ar      1 <0>        -0.0627
     27 C21        -2.3928   -2.3980   -3.9238 C.ar      1 <0>        -0.1051
     28 C22        -1.9531   -3.6549   -4.3005 C.ar      1 <0>        -0.0074
     29 C23        -1.1151   -4.3727   -3.4666 C.ar      1 <0>        -0.1046
     30 C24        -0.7123   -3.8312   -2.2588 C.ar      1 <0>         0.0088
     31 Cl1         0.3457   -4.7282   -1.2149 Cl        1 <0>        -0.0334
     32 Cl2        -2.4528   -4.3303   -5.8196 Cl        1 <0>        -0.0438
     33 F2         -3.4397   -4.4698    3.6901 F         1 <0>        -0.1323
     34 H1          0.1935   -3.9215    1.0863 H         1 <0>         0.1428
     35 H2         -0.9910   -5.0017    2.9549 H         1 <0>         0.1442
     36 H3         -4.4348   -2.6110    2.1493 H         1 <0>         0.1450
     37 H4         -3.2438   -1.5263    0.2876 H         1 <0>         0.1402
     38 H5         -0.2817    1.9882   -1.5513 H         1 <0>         0.1536
     39 H6          3.3062   -1.3963   -1.2277 H         1 <0>         0.1602
     40 H7          0.0873    4.1748   -0.4072 H         1 <0>         0.0851
     41 H8          1.2149    2.8498   -0.0195 H         1 <0>         0.0972
     42 H9          2.9137    4.4378    0.7354 H         1 <0>         0.0588
     43 H10         1.3852    4.8367    1.5575 H         1 <0>         0.1104
     44 H11         3.6651    5.8465   -1.0684 H         1 <0>         0.0587
     45 H12         2.6725    7.2502   -1.5329 H         1 <0>         0.1110
     46 H13         2.5320    5.3033   -3.1566 H         1 <0>         0.1058
     47 H14         0.9579    5.7966   -2.4810 H         1 <0>         0.0821
     48 H15        -2.3378   -0.8788   -2.4214 H         1 <0>         0.1510
     49 H16        -3.0472   -1.8374   -4.5749 H         1 <0>         0.1492
     50 H17        -0.7714   -5.3535   -3.7602 H         1 <0>         0.1524
@<TRIPOS>BOND
     1    1    6 ar
     2    1    2 ar
     3    1   34 1
     4    2    3 ar
     5    2   35 1
     6    3    4 ar
     7    3   33 1
     8    4    5 ar
     9    4   36 1
    10    5    6 ar
    11    5   37 1
    12    6    7 1
    13    7   15 1
    14    7    8 1
    15    7   25 1
    16    8    9 1
    17    9   14 ar
    18    9   10 ar
    19   10   11 ar
    20   10   38 1
    21   11   12 ar
    22   11   17 1
    23   12   13 ar
    24   12   16 1
    25   13   14 ar
    26   13   39 1
    27   14   15 1
    28   17   18 2
    29   17   19 am
    30   19   24 1
    31   19   20 1
    32   20   21 1
    33   20   40 1
    34   20   41 1
    35   21   22 1
    36   21   42 1
    37   21   43 1
    38   22   23 1
    39   23   24 1
    40   23   44 1
    41   23   45 1
    42   24   46 1
    43   24   47 1
    44   25   30 ar
    45   25   26 ar
    46   26   27 ar
    47   26   48 1
    48   27   28 ar
    49   27   49 1
    50   28   29 ar
    51   28   32 1
    52   29   30 ar
    53   29   50 1
    54   30   31 1
@<TRIPOS>MOLECULE
ZINC03938493
   50    54     0     0     0
SMALL
USER_CHARGES
[2-(2,4-dichlorophenyl)-6-fluoro-2-(4-fluorophenyl)-benzo[1,3]dioxol-5-yl]-morpholino-methanone
@<TRIPOS>ATOM
      1 C1          1.8798    6.0021   -0.8243 C.ar      1 <0>        -0.0547
      2 C2          1.5435    7.3305   -0.6451 C.ar      1 <0>        -0.1536
      3 C3          1.4097    7.8438    0.6338 C.ar      1 <0>         0.1216
      4 C4          1.6079    7.0240    1.7319 C.ar      1 <0>        -0.1539
      5 C5          1.9390    5.6946    1.5503 C.ar      1 <0>        -0.0534
      6 C6          2.0722    5.1832    0.2728 C.ar      1 <0>        -0.1600
      7 C7          2.4337    3.7335    0.0761 C.3       1 <0>         0.3635
      8 O1          3.2932    3.2781    1.1376 O.3       1 <0>        -0.2703
      9 C8          4.5665    3.4897    0.6908 C.ar      1 <0>         0.0240
     10 C9          5.7713    3.5470    1.3618 C.ar      1 <0>        -0.0429
     11 C10         6.9538    3.7824    0.6539 C.ar      1 <0>        -0.1606
     12 C11         6.9100    3.9591   -0.7337 C.ar      1 <0>         0.1693
     13 C12         5.7009    3.9004   -1.3977 C.ar      1 <0>        -0.1426
     14 C13         4.5284    3.6666   -0.6935 C.ar      1 <0>         0.0955
     15 O2          3.2317    3.5679   -1.1107 O.3       1 <0>        -0.2693
     16 F1          8.0495    4.1874   -1.4226 F         1 <0>        -0.1098
     17 C14         8.2430    3.8438    1.3669 C.2       1 <0>         0.5717
     18 O3          9.0236    4.7469    1.1351 O.2       1 <0>        -0.5137
     19 N1          8.5561    2.8990    2.2756 N.am      1 <0>        -0.6099
     20 C15         7.6817    1.7352    2.4903 C.3       1 <0>         0.0649
     21 C16         8.5465    0.4664    2.4186 C.3       1 <0>         0.0469
     22 O4          9.6532    0.6020    3.3133 O.3       1 <0>        -0.3763
     23 C17        10.5393    1.6761    2.9896 C.3       1 <0>         0.0470
     24 C18         9.7795    3.0040    3.0867 C.3       1 <0>         0.0770
     25 C19         1.1906    2.8851    0.0006 C.ar      1 <0>        -0.0947
     26 C20        -0.0555    3.4736    0.1100 C.ar      1 <0>        -0.0549
     27 C21        -1.1960    2.6963    0.0405 C.ar      1 <0>        -0.1093
     28 C22        -1.0914    1.3287   -0.1436 C.ar      1 <0>        -0.0012
     29 C23         0.1551    0.7386   -0.2478 C.ar      1 <0>        -0.1092
     30 C24         1.2965    1.5175   -0.1786 C.ar      1 <0>         0.0188
     31 Cl1         2.8614    0.7785   -0.3160 Cl        1 <0>        -0.0350
     32 Cl2        -2.5243    0.3532   -0.2375 Cl        1 <0>        -0.0425
     33 F2          1.0856    9.1435    0.8102 F         1 <0>        -0.1316
     34 H1          1.9882    5.6025   -1.8218 H         1 <0>         0.1426
     35 H2          1.3891    7.9691   -1.5023 H         1 <0>         0.1450
     36 H3          1.5035    7.4232    2.7300 H         1 <0>         0.1449
     37 H4          2.0933    5.0549    2.4066 H         1 <0>         0.1427
     38 H5          5.8006    3.4098    2.4327 H         1 <0>         0.1530
     39 H6          5.6677    4.0373   -2.4685 H         1 <0>         0.1594
     40 H7          7.2099    1.8063    3.4704 H         1 <0>         0.0851
     41 H8          6.9160    1.7033    1.7152 H         1 <0>         0.0980
     42 H9          8.9149    0.3308    1.4017 H         1 <0>         0.0586
     43 H10         7.9480   -0.3975    2.7080 H         1 <0>         0.1101
     44 H11        10.9150    1.5450    1.9749 H         1 <0>         0.0585
     45 H12        11.3751    1.6830    3.6892 H         1 <0>         0.1109
     46 H13        10.4036    3.8127    2.7066 H         1 <0>         0.1058
     47 H14         9.5153    3.2013    4.1256 H         1 <0>         0.0818
     48 H15        -0.1377    4.5414    0.2496 H         1 <0>         0.1496
     49 H16        -2.1692    3.1567    0.1257 H         1 <0>         0.1502
     50 H17         0.2374   -0.3291   -0.3877 H         1 <0>         0.1531
@<TRIPOS>BOND
     1    1    6 ar
     2    1    2 ar
     3    1   34 1
     4    2    3 ar
     5    2   35 1
     6    3    4 ar
     7    3   33 1
     8    4    5 ar
     9    4   36 1
    10    5    6 ar
    11    5   37 1
    12    6    7 1
    13    7   15 1
    14    7    8 1
    15    7   25 1
    16    8    9 1
    17    9   14 ar
    18    9   10 ar
    19   10   11 ar
    20   10   38 1
    21   11   12 ar
    22   11   17 1
    23   12   13 ar
    24   12   16 1
    25   13   14 ar
    26   13   39 1
    27   14   15 1
    28   17   18 2
    29   17   19 am
    30   19   24 1
    31   19   20 1
    32   20   21 1
    33   20   40 1
    34   20   41 1
    35   21   22 1
    36   21   42 1
    37   21   43 1
    38   22   23 1
    39   23   24 1
    40   23   44 1
    41   23   45 1
    42   24   46 1
    43   24   47 1
    44   25   30 ar
    45   25   26 ar
    46   26   27 ar
    47   26   48 1
    48   27   28 ar
    49   27   49 1
    50   28   29 ar
    51   28   32 1
    52   29   30 ar
    53   29   50 1
    54   30   31 1
@<TRIPOS>MOLECULE
ZINC14975818
   56    59     0     0     0
SMALL
USER_CHARGES
[1-(2-morpholinoethyl)indol-3-yl]-(2,2,3,3-tetramethylcyclopropyl)methanone
@<TRIPOS>ATOM
      1 C1         -2.6952   -7.3461    5.5533 C.3       1 <0>        -0.1191
      2 C2         -1.3240   -7.8336    5.0808 C.3       1 <0>        -0.0676
      3 C3         -0.2521   -6.7754    4.8121 C.3       1 <0>        -0.2260
      4 C4         -0.1469   -7.6749    6.0452 C.3       1 <0>        -0.0686
      5 C5          0.9266   -8.7649    6.0351 C.3       1 <0>        -0.1377
      6 C6         -0.4311   -7.0409    7.4084 C.3       1 <0>        -0.1180
      7 C7          0.7096   -7.0309    3.6803 C.2       1 <0>         0.4251
      8 O1          0.8578   -8.1573    3.2522 O.2       1 <0>        -0.4638
      9 C8          1.4412   -5.9564    3.1158 C.2       1 <0>        -0.2635
     10 C9          1.3887   -4.6311    3.4919 C.2       1 <0>         0.1323
     11 N1          2.2241   -3.9087    2.7212 N.pl3     1 <0>        -0.4564
     12 C10         2.8714   -4.7190    1.8104 C.ar      1 <0>         0.0780
     13 C11         2.4169   -6.0320    2.0106 C.ar      1 <0>        -0.0568
     14 C12         2.9068   -7.0692    1.2230 C.ar      1 <0>        -0.0689
     15 C13         3.8400   -6.8010    0.2447 C.ar      1 <0>        -0.1337
     16 C14         4.2906   -5.5047    0.0450 C.ar      1 <0>        -0.1004
     17 C15         3.8138   -4.4685    0.8184 C.ar      1 <0>        -0.1223
     18 C16         2.4232   -2.4620    2.8377 C.3       1 <0>         0.0958
     19 C17         1.5194   -1.7405    1.8360 C.3       1 <0>         0.0374
     20 N2          1.7191   -0.2898    1.9529 N.3       1 <0>        -0.5310
     21 C18         1.0518    0.4240    0.8545 C.3       1 <0>         0.0165
     22 C19         1.2342    1.9318    1.0476 C.3       1 <0>         0.0616
     23 O2          2.6305    2.2325    1.1195 O.3       1 <0>        -0.3831
     24 C20         3.3118    1.5547    2.1786 C.3       1 <0>         0.0616
     25 C21         3.1503    0.0431    1.9969 C.3       1 <0>         0.0046
     26 C22        -1.3378   -9.0699    4.1796 C.3       1 <0>        -0.1487
     27 H1         -3.4395   -7.5226    4.7628 H         1 <0>         0.0615
     28 H2         -2.6450   -6.2701    5.7761 H         1 <0>         0.0587
     29 H3         -2.9869   -7.8952    6.4607 H         1 <0>         0.0641
     30 H4         -0.2496   -5.6905    4.6307 H         1 <0>         0.1292
     31 H5          1.7046   -8.5202    6.7733 H         1 <0>         0.0573
     32 H6          1.3776   -8.8261    5.0337 H         1 <0>         0.0807
     33 H7          0.4695   -9.7321    6.2911 H         1 <0>         0.0652
     34 H8          0.5006   -6.9914    7.9911 H         1 <0>         0.0619
     35 H9         -1.1700   -7.6504    7.9493 H         1 <0>         0.0653
     36 H10        -0.8282   -6.0252    7.2647 H         1 <0>         0.0598
     37 H11         0.7699   -4.2324    4.2821 H         1 <0>         0.1825
     38 H12         2.5571   -8.0793    1.3770 H         1 <0>         0.1332
     39 H13         4.2221   -7.6036   -0.3686 H         1 <0>         0.1271
     40 H14         5.0226   -5.3054   -0.7237 H         1 <0>         0.1279
     41 H15         4.1718   -3.4628    0.6547 H         1 <0>         0.1171
     42 H16         2.1712   -2.1382    3.8583 H         1 <0>         0.1078
     43 H17         3.4745   -2.2182    2.6248 H         1 <0>         0.0964
     44 H18         1.7714   -2.0643    0.8154 H         1 <0>         0.0468
     45 H19         0.4681   -1.9843    2.0489 H         1 <0>         0.0883
     46 H20         1.4960    0.1188   -0.1044 H         1 <0>         0.0470
     47 H21        -0.0206    0.1793    0.8562 H         1 <0>         0.0903
     48 H22         0.7851    2.4672    0.1981 H         1 <0>         0.1028
     49 H23         0.7413    2.2444    1.9800 H         1 <0>         0.0629
     50 H24         4.3798    1.8169    2.1544 H         1 <0>         0.1020
     51 H25         2.8816    1.8579    3.1445 H         1 <0>         0.0628
     52 H26         3.6231   -0.4821    2.8399 H         1 <0>         0.0908
     53 H27         3.6283   -0.2683    1.0564 H         1 <0>         0.0473
     54 H28        -0.3065   -9.3318    3.9007 H         1 <0>         0.1083
     55 H29        -1.9200   -8.8551    3.2714 H         1 <0>         0.0527
     56 H30        -1.7968   -9.9116    4.7189 H         1 <0>         0.0550
@<TRIPOS>BOND
     1    1    2 1
     2    1   27 1
     3    1   28 1
     4    1   29 1
     5    2    4 1
     6    2    3 1
     7    2   26 1
     8    3    4 1
     9    3    7 1
    10    3   30 1
    11    4    5 1
    12    4    6 1
    13    5   31 1
    14    5   32 1
    15    5   33 1
    16    6   34 1
    17    6   35 1
    18    6   36 1
    19    7    8 2
    20    7    9 1
    21    9   13 1
    22    9   10 2
    23   10   11 1
    24   10   37 1
    25   11   12 1
    26   11   18 1
    27   12   17 ar
    28   12   13 ar
    29   13   14 ar
    30   14   15 ar
    31   14   38 1
    32   15   16 ar
    33   15   39 1
    34   16   17 ar
    35   16   40 1
    36   17   41 1
    37   18   19 1
    38   18   42 1
    39   18   43 1
    40   19   20 1
    41   19   44 1
    42   19   45 1
    43   20   25 1
    44   20   21 1
    45   21   22 1
    46   21   46 1
    47   21   47 1
    48   22   23 1
    49   22   48 1
    50   22   49 1
    51   23   24 1
    52   24   25 1
    53   24   50 1
    54   24   51 1
    55   25   52 1
    56   25   53 1
    57   26   54 1
    58   26   55 1
    59   26   56 1
