@<TRIPOS>MOLECULE
ZINC03807804
   42    45     0     0     0
SMALL
USER_CHARGES

@<TRIPOS>ATOM
      1 C1         -0.1404    1.0961   -0.4391 C.ar      1 <0>        -0.1020
      2 C2          0.9979    1.8788   -0.4898 C.ar      1 <0>        -0.1176
      3 C3          2.2443    1.2953   -0.3597 C.ar      1 <0>        -0.1015
      4 C4          2.3524   -0.0709   -0.1784 C.ar      1 <0>        -0.0957
      5 C5          1.2140   -0.8534   -0.1268 C.ar      1 <0>        -0.0879
      6 C6         -0.0323   -0.2701   -0.2583 C.ar      1 <0>        -0.1206
      7 C7          3.7112   -0.7071   -0.0376 C.3       1 <0>         0.3033
      8 C8          3.5548   -2.1991    0.1055 C.ar      1 <0>        -0.0980
      9 C9          4.1018   -3.0454   -0.8408 C.ar      1 <0>        -0.0924
     10 C10         3.9584   -4.4140   -0.7096 C.ar      1 <0>        -0.1192
     11 C11         3.2684   -4.9364    0.3683 C.ar      1 <0>        -0.1040
     12 C12         2.7222   -4.0902    1.3152 C.ar      1 <0>        -0.1220
     13 C13         2.8693   -2.7218    1.1862 C.ar      1 <0>        -0.0909
     14 C14         4.5372   -0.4037   -1.2609 C.ar      1 <0>        -0.0899
     15 C15         5.7856    0.1744   -1.1262 C.ar      1 <0>        -0.0993
     16 C16         6.5434    0.4528   -2.2482 C.ar      1 <0>        -0.1105
     17 C17         6.0533    0.1533   -3.5058 C.ar      1 <0>        -0.0985
     18 C18         4.8053   -0.4246   -3.6418 C.ar      1 <0>        -0.1111
     19 C19         4.0487   -0.7087   -2.5187 C.ar      1 <0>        -0.0192
     20 Cl1         2.4837   -1.4408   -2.6883 Cl        1 <0>        -0.0484
     21 N1          4.3811   -0.1702    1.1495 N.pl3     1 <0>        -0.4460
     22 C20         5.5751   -0.5924    1.6690 C.2       1 <0>        -0.0513
     23 C21         5.8188    0.1680    2.7534 C.2       1 <0>        -0.0258
     24 N2          4.8014    1.0309    2.8923 N.2       1 <0>        -0.4890
     25 C22         3.9390    0.8376    1.9322 C.2       1 <0>         0.1875
     26 H1         -1.1143    1.5526   -0.5363 H         1 <0>         0.1257
     27 H2          0.9135    2.9461   -0.6315 H         1 <0>         0.1275
     28 H3          3.1337    1.9067   -0.4001 H         1 <0>         0.1221
     29 H4          1.2985   -1.9209    0.0142 H         1 <0>         0.1329
     30 H5         -0.9216   -0.8816   -0.2183 H         1 <0>         0.1255
     31 H6          4.6409   -2.6372   -1.6830 H         1 <0>         0.1253
     32 H7          4.3851   -5.0750   -1.4493 H         1 <0>         0.1258
     33 H8          3.1557   -6.0056    0.4705 H         1 <0>         0.1257
     34 H9          2.1828   -4.4983    2.1571 H         1 <0>         0.1266
     35 H10         2.4458   -2.0608    1.9279 H         1 <0>         0.1217
     36 H11         6.1689    0.4089   -0.1441 H         1 <0>         0.1411
     37 H12         7.5185    0.9047   -2.1424 H         1 <0>         0.1336
     38 H13         6.6456    0.3714   -4.3821 H         1 <0>         0.1361
     39 H14         4.4225   -0.6582   -4.6243 H         1 <0>         0.1382
     40 H15         6.2011   -1.3835    1.2836 H         1 <0>         0.1702
     41 H16         6.6821    0.0956    3.3983 H         1 <0>         0.1703
     42 H17         3.0222    1.3901    1.7888 H         1 <0>         0.2017
@<TRIPOS>BOND
     1    1    6 ar
     2    1    2 ar
     3    1   26 1
     4    2    3 ar
     5    2   27 1
     6    3    4 ar
     7    3   28 1
     8    4    5 ar
     9    4    7 1
    10    5    6 ar
    11    5   29 1
    12    6   30 1
    13    7    8 1
    14    7   14 1
    15    7   21 1
    16    8   13 ar
    17    8    9 ar
    18    9   10 ar
    19    9   31 1
    20   10   11 ar
    21   10   32 1
    22   11   12 ar
    23   11   33 1
    24   12   13 ar
    25   12   34 1
    26   13   35 1
    27   14   19 ar
    28   14   15 ar
    29   15   16 ar
    30   15   36 1
    31   16   17 ar
    32   16   37 1
    33   17   18 ar
    34   17   38 1
    35   18   19 ar
    36   18   39 1
    37   19   20 1
    38   21   25 1
    39   21   22 1
    40   22   23 2
    41   22   40 1
    42   23   24 1
    43   23   41 1
    44   24   25 2
    45   25   42 1
@<TRIPOS>MOLECULE
ZINC03807804
   43    46     0     0     0
SMALL
USER_CHARGES

@<TRIPOS>ATOM
      1 C1          0.5987    1.7832    1.4981 C.ar      1 <0>        -0.0892
      2 C2          0.3739    1.0091    0.3751 C.ar      1 <0>        -0.1131
      3 C3          1.3811    0.2033   -0.1220 C.ar      1 <0>        -0.1073
      4 C4          2.6134    0.1720    0.5037 C.ar      1 <0>        -0.1169
      5 C5          2.8385    0.9468    1.6262 C.ar      1 <0>        -0.0809
      6 C6          1.8308    1.7515    2.1240 C.ar      1 <0>        -0.1100
      7 C7          3.7112   -0.7071   -0.0376 C.3       1 <0>         0.3108
      8 C8          4.1045   -0.2308   -1.4122 C.ar      1 <0>        -0.1114
      9 C9          4.1390   -1.1216   -2.4687 C.ar      1 <0>        -0.1224
     10 C10         4.4997   -0.6846   -3.7296 C.ar      1 <0>        -0.1050
     11 C11         4.8255    0.6431   -3.9340 C.ar      1 <0>        -0.0966
     12 C12         4.7901    1.5341   -2.8777 C.ar      1 <0>        -0.1040
     13 C13         4.4252    1.0980   -1.6177 C.ar      1 <0>        -0.0870
     14 C14         4.9061   -0.6400    0.8783 C.ar      1 <0>        -0.1243
     15 C15         6.0946   -0.0984    0.4255 C.ar      1 <0>        -0.0806
     16 C16         7.1906   -0.0368    1.2654 C.ar      1 <0>        -0.1064
     17 C17         7.0990   -0.5167    2.5588 C.ar      1 <0>        -0.0779
     18 C18         5.9114   -1.0584    3.0126 C.ar      1 <0>        -0.1060
     19 C19         4.8121   -1.1151    2.1740 C.ar      1 <0>        -0.0235
     20 Cl1         3.3179   -1.7894    2.7455 Cl        1 <0>        -0.0546
     21 N1          3.2345   -2.0901   -0.1178 N.pl3     1 <0>        -0.3928
     22 C20         1.9543   -2.5219    0.1018 C.2       1 <0>         0.0325
     23 C21         1.9573   -3.8567   -0.0767 C.2       1 <0>         0.0033
     24 N2          3.2053   -4.2297   -0.3965 N.pl3     1 <0>        -0.4715
     25 C22         3.9747   -3.1761   -0.4280 C.cat     1 <0>         0.2859
     26 H1         -0.1868    2.4161    1.8838 H         1 <0>         0.1340
     27 H2         -0.5889    1.0335   -0.1137 H         1 <0>         0.1343
     28 H3          1.2053   -0.4020   -0.9989 H         1 <0>         0.1246
     29 H4          3.8010    0.9218    2.1154 H         1 <0>         0.1290
     30 H5          2.0066    2.3566    3.0012 H         1 <0>         0.1338
     31 H6          3.8845   -2.1589   -2.3090 H         1 <0>         0.1110
     32 H7          4.5274   -1.3807   -4.5549 H         1 <0>         0.1325
     33 H8          5.1080    0.9843   -4.9190 H         1 <0>         0.1349
     34 H9          5.0450    2.5713   -3.0374 H         1 <0>         0.1371
     35 H10         4.3939    1.7949   -0.7931 H         1 <0>         0.1317
     36 H11         6.1669    0.2763   -0.5848 H         1 <0>         0.1476
     37 H12         8.1191    0.3861    0.9110 H         1 <0>         0.1431
     38 H13         7.9558   -0.4686    3.2145 H         1 <0>         0.1451
     39 H14         5.8400   -1.4335    4.0228 H         1 <0>         0.1446
     40 H15         1.1050   -1.9099    0.3675 H         1 <0>         0.2211
     41 H16         1.1044   -4.5120    0.0207 H         1 <0>         0.2258
     42 H17         5.0293   -3.1735   -0.6609 H         1 <0>         0.2540
     43 H18         3.4903   -5.1387   -0.5793 H         1 <0>         0.4647
@<TRIPOS>BOND
     1    1    6 ar
     2    1    2 ar
     3    1   26 1
     4    2    3 ar
     5    2   27 1
     6    3    4 ar
     7    3   28 1
     8    4    5 ar
     9    4    7 1
    10    5    6 ar
    11    5   29 1
    12    6   30 1
    13    7    8 1
    14    7   14 1
    15    7   21 1
    16    8   13 ar
    17    8    9 ar
    18    9   10 ar
    19    9   31 1
    20   10   11 ar
    21   10   32 1
    22   11   12 ar
    23   11   33 1
    24   12   13 ar
    25   12   34 1
    26   13   35 1
    27   14   19 ar
    28   14   15 ar
    29   15   16 ar
    30   15   36 1
    31   16   17 ar
    32   16   37 1
    33   17   18 ar
    34   17   38 1
    35   18   19 ar
    36   18   39 1
    37   19   20 1
    38   21   25 1
    39   21   22 1
    40   22   23 2
    41   22   40 1
    42   23   24 1
    43   23   41 1
    44   24   25 2
    45   24   43 1
    46   25   42 1
@<TRIPOS>MOLECULE
ZINC00004009
   34    36     0     0     0
SMALL
USER_CHARGES

@<TRIPOS>ATOM
      1 C1         -0.2191    1.3660   -0.2041 C.ar      1 <0>        -0.1551
      2 C2          0.9845    2.0428   -0.2678 C.ar      1 <0>        -0.0369
      3 C3          2.1752    1.3460   -0.1884 C.ar      1 <0>        -0.1692
      4 C4          2.1639   -0.0315   -0.0453 C.ar      1 <0>         0.1336
      5 C5          0.9595   -0.7101    0.0186 C.ar      1 <0>        -0.1850
      6 C6         -0.2328   -0.0110   -0.0606 C.ar      1 <0>         0.1421
      7 F1         -1.4093   -0.6722    0.0021 F         1 <0>        -0.1242
      8 F2          3.3282   -0.7125    0.0314 F         1 <0>        -0.1285
      9 C7          3.4866    2.0853   -0.2580 C.3       1 <0>         0.1698
     10 C8          4.2787    1.8410    1.0280 C.3       1 <0>         0.1010
     11 N1          3.4555    2.2025    2.1846 N.pl3     1 <0>        -0.3778
     12 C9          3.1192    1.4066    3.2145 C.2       1 <0>         0.2611
     13 N2          2.3782    2.1011    4.0392 N.2       1 <0>        -0.5386
     14 C10         2.2203    3.3389    3.5720 C.2       1 <0>         0.2108
     15 N3          2.8659    3.4511    2.4409 N.2       1 <0>        -0.3257
     16 C11         4.2928    1.5819   -1.4570 C.3       1 <0>         0.1440
     17 N4          5.5608    2.3117   -1.5339 N.pl3     1 <0>        -0.3820
     18 C12         6.7951    1.7805   -1.5710 C.2       1 <0>         0.2456
     19 N5          7.6576    2.7620   -1.6389 N.2       1 <0>        -0.5403
     20 C13         7.0146    3.9289   -1.6472 C.2       1 <0>         0.1885
     21 N6          5.7280    3.7050   -1.5898 N.2       1 <0>        -0.2789
     22 O1          3.2373    3.4846   -0.4053 O.3       1 <0>        -0.5172
     23 H1         -1.1491    1.9120   -0.2618 H         1 <0>         0.1491
     24 H2          0.9943    3.1169   -0.3801 H         1 <0>         0.1500
     25 H3          0.9497   -1.7843    0.1298 H         1 <0>         0.1553
     26 H4          4.5523    0.7878    1.0916 H         1 <0>         0.1145
     27 H5          5.1819    2.4512    1.0199 H         1 <0>         0.1039
     28 H6          3.4096    0.3738    3.3390 H         1 <0>         0.2163
     29 H7          1.6543    4.1235    4.0520 H         1 <0>         0.2200
     30 H8          4.4931    0.5170   -1.3389 H         1 <0>         0.1222
     31 H9          3.7235    1.7452   -2.3721 H         1 <0>         0.1082
     32 H10         7.0333    0.7273   -1.5481 H         1 <0>         0.2185
     33 H11         7.4806    4.9019   -1.6976 H         1 <0>         0.2164
     34 H12         2.7294    3.8722    0.3206 H         1 <0>         0.3882
@<TRIPOS>BOND
     1    1    6 ar
     2    1    2 ar
     3    1   23 1
     4    2    3 ar
     5    2   24 1
     6    3    4 ar
     7    3    9 1
     8    4    5 ar
     9    4    8 1
    10    5    6 ar
    11    5   25 1
    12    6    7 1
    13    9   10 1
    14    9   16 1
    15    9   22 1
    16   10   11 1
    17   10   26 1
    18   10   27 1
    19   11   15 1
    20   11   12 1
    21   12   13 2
    22   12   28 1
    23   13   14 1
    24   14   15 2
    25   14   29 1
    26   16   17 1
    27   16   30 1
    28   16   31 1
    29   17   21 1
    30   17   18 1
    31   18   19 2
    32   18   32 1
    33   19   20 1
    34   20   21 2
    35   20   33 1
    36   22   34 1
@<TRIPOS>MOLECULE
ZINC04692811
   19    20     0     0     0
SMALL
USER_CHARGES

@<TRIPOS>ATOM
      1 C1         -0.0167    1.3793    0.0096 C.ar      1 <0>        -0.1202
      2 C2          1.1684    2.0932    0.0021 C.ar      1 <0>        -0.1101
      3 C3          2.3774    1.4287   -0.0129 C.ar      1 <0>        -0.1029
      4 C4          2.4032    0.0336   -0.0206 C.ar      1 <0>        -0.0111
      5 C5          1.2044   -0.6805   -0.0130 C.ar      1 <0>        -0.1229
      6 C6          0.0021   -0.0041    0.0020 C.ar      1 <0>        -0.1115
      7 C7          3.6958   -0.6852   -0.0373 C.2       1 <0>         0.0085
      8 C8          4.9372   -0.1282   -0.0406 C.2       1 <0>         0.0013
      9 N1          5.8333   -1.1217   -0.0563 N.2       1 <0>        -0.4927
     10 C9          5.2120   -2.2703   -0.0630 C.2       1 <0>         0.1960
     11 N2          3.8796   -2.0494   -0.0463 N.pl3     1 <0>        -0.5660
     12 H1          3.1834   -2.7248   -0.0436 H         1 <0>         0.4206
     13 H2         -0.9604    1.9041    0.0260 H         1 <0>         0.1254
     14 H3          1.1470    3.1730    0.0078 H         1 <0>         0.1290
     15 H4          3.3018    1.9872   -0.0191 H         1 <0>         0.1296
     16 H5          1.2178   -1.7604   -0.0193 H         1 <0>         0.1151
     17 H6         -0.9265   -0.5556    0.0079 H         1 <0>         0.1256
     18 H7          5.1598    0.9286   -0.0321 H         1 <0>         0.1738
     19 H8          5.6869   -3.2402   -0.0761 H         1 <0>         0.2124
@<TRIPOS>BOND
     1    1    6 ar
     2    1    2 ar
     3    1   13 1
     4    2    3 ar
     5    2   14 1
     6    3    4 ar
     7    3   15 1
     8    4    5 ar
     9    4    7 1
    10    5    6 ar
    11    5   16 1
    12    6   17 1
    13    7   11 1
    14    7    8 2
    15    8    9 1
    16    8   18 1
    17    9   10 2
    18   10   11 1
    19   10   19 1
    20   11   12 1
@<TRIPOS>MOLECULE
ZINC04692811
   20    21     0     0     0
SMALL
USER_CHARGES

@<TRIPOS>ATOM
      1 C1         -0.0167    1.3793    0.0096 C.ar      1 <0>        -0.0826
      2 C2          1.1684    2.0932    0.0021 C.ar      1 <0>        -0.1097
      3 C3          2.3774    1.4287   -0.0129 C.ar      1 <0>        -0.0797
      4 C4          2.4032    0.0336   -0.0206 C.ar      1 <0>        -0.0703
      5 C5          1.2044   -0.6805   -0.0130 C.ar      1 <0>        -0.0970
      6 C6          0.0021   -0.0041    0.0020 C.ar      1 <0>        -0.1098
      7 C7          3.6958   -0.6852   -0.0373 C.2       1 <0>         0.1215
      8 C8          4.9372   -0.1282   -0.0406 C.2       1 <0>         0.0014
      9 N1          5.8333   -1.1217   -0.0563 N.pl3     1 <0>        -0.4677
     10 C9          5.2120   -2.2703   -0.0630 C.cat     1 <0>         0.3055
     11 N2          3.8796   -2.0494   -0.0463 N.pl3     1 <0>        -0.5140
     12 H1          3.1834   -2.7248   -0.0436 H         1 <0>         0.4646
     13 H2         -0.9604    1.9041    0.0260 H         1 <0>         0.1384
     14 H3          1.1470    3.1730    0.0078 H         1 <0>         0.1410
     15 H4          3.3018    1.9872   -0.0191 H         1 <0>         0.1348
     16 H5          1.2178   -1.7604   -0.0193 H         1 <0>         0.1226
     17 H6         -0.9265   -0.5556    0.0079 H         1 <0>         0.1386
     18 H7          5.1598    0.9286   -0.0321 H         1 <0>         0.2256
     19 H8          5.6869   -3.2402   -0.0761 H         1 <0>         0.2682
     20 H9          6.7964   -1.0064   -0.0623 H         1 <0>         0.4685
@<TRIPOS>BOND
     1    1    6 ar
     2    1    2 ar
     3    1   13 1
     4    2    3 ar
     5    2   14 1
     6    3    4 ar
     7    3   15 1
     8    4    5 ar
     9    4    7 1
    10    5    6 ar
    11    5   16 1
    12    6   17 1
    13    7   11 1
    14    7    8 2
    15    8    9 1
    16    8   18 1
    17    9   10 2
    18    9   20 1
    19   10   11 1
    20   10   19 1
    21   11   12 1
@<TRIPOS>MOLECULE
ZINC04692811
   20    21     0     0     0
SMALL
USER_CHARGES

@<TRIPOS>ATOM
      1 C1         -0.0167    1.3790    0.0096 C.ar      1 <0>        -0.0854
      2 C2          1.1686    2.0920    0.0021 C.ar      1 <0>        -0.1080
      3 C3          2.3774    1.4261   -0.0130 C.ar      1 <0>        -0.0830
      4 C4          2.4023    0.0328   -0.0207 C.ar      1 <0>        -0.0667
      5 C5          1.2051   -0.6804   -0.0131 C.ar      1 <0>        -0.1018
      6 C6          0.0021   -0.0041    0.0020 C.ar      1 <0>        -0.1079
      7 C7          3.6986   -0.6887   -0.0375 C.2       1 <0>         0.0902
      8 C8          4.9324   -0.1199   -0.0408 C.2       1 <0>         0.0342
      9 N1          5.8370   -1.1444   -0.0572 N.pl3     1 <0>        -0.5056
     10 H1          6.8031   -1.0572   -0.0630 H         1 <0>         0.4691
     11 C9          5.1385   -2.3010   -0.0636 C.cat     1 <0>         0.3089
     12 N2          3.8641   -2.0271   -0.0464 N.pl3     1 <0>        -0.4777
     13 H2         -0.9603    1.9042    0.0260 H         1 <0>         0.1382
     14 H3          1.1482    3.1718    0.0078 H         1 <0>         0.1406
     15 H4          3.3023    1.9837   -0.0192 H         1 <0>         0.1341
     16 H5          1.2185   -1.7603   -0.0194 H         1 <0>         0.1217
     17 H6         -0.9264   -0.5557    0.0083 H         1 <0>         0.1383
     18 H7          5.1553    0.9369   -0.0320 H         1 <0>         0.2281
     19 H8          5.5668   -3.2923   -0.0763 H         1 <0>         0.2685
     20 H9          3.1485   -2.6819   -0.0431 H         1 <0>         0.4642
@<TRIPOS>BOND
     1    1    6 ar
     2    1    2 ar
     3    1   13 1
     4    2    3 ar
     5    2   14 1
     6    3    4 ar
     7    3   15 1
     8    4    5 ar
     9    4    7 1
    10    5    6 ar
    11    5   16 1
    12    6   17 1
    13    7   12 1
    14    7    8 2
    15    8    9 1
    16    8   18 1
    17    9   10 1
    18    9   11 1
    19   11   12 2
    20   11   19 1
    21   12   20 1
@<TRIPOS>MOLECULE
ZINC00236110
   29    30     0     0     0
SMALL
USER_CHARGES

@<TRIPOS>ATOM
      1 C1         -0.0012    1.3270   -0.1127 C.ar      1 <0>        -0.1826
      2 C2          1.1730    2.0536   -0.0960 C.ar      1 <0>        -0.0743
      3 C3          2.3950    1.3969   -0.0377 C.ar      1 <0>         0.0754
      4 C4          2.4364    0.0095    0.0039 C.ar      1 <0>        -0.0992
      5 C5          1.2623   -0.7171   -0.0128 C.ar      1 <0>        -0.1765
      6 C6          0.0402   -0.0604   -0.0712 C.ar      1 <0>         0.2133
      7 N1         -1.1503   -0.7970   -0.0877 N.pl3     1 <0>        -0.8776
      8 N2          3.5855    2.1335   -0.0212 N.pl3     1 <0>        -1.0501
      9 S1          4.7779    1.7559    1.0641 S.o2      1 <0>         2.6919
     10 O1          5.0291    0.3643    0.9235 O.2       1 <0>        -0.9465
     11 O2          5.7965    2.7338    0.9049 O.2       1 <0>        -0.9506
     12 C7          4.1065    1.9860    2.6768 C.ar      1 <0>        -0.6739
     13 C8          4.1119    3.2418    3.2547 C.ar      1 <0>        -0.0046
     14 C9          3.5854    3.4229    4.5198 C.ar      1 <0>        -0.1325
     15 C10         3.0529    2.3471    5.2077 C.ar      1 <0>         0.0195
     16 C11         3.0478    1.0905    4.6288 C.ar      1 <0>        -0.1314
     17 C12         3.5695    0.9117    3.3614 C.ar      1 <0>        -0.0009
     18 Cl1         2.3920    2.5737    6.7969 Cl        1 <0>        -0.0524
     19 H1         -0.9519    1.8379   -0.1535 H         1 <0>         0.1255
     20 H2          1.1408    3.1326   -0.1286 H         1 <0>         0.1278
     21 H3          3.3870   -0.5012    0.0489 H         1 <0>         0.1549
     22 H4          1.2945   -1.7961    0.0195 H         1 <0>         0.1284
     23 H5         -2.0040   -0.3383   -0.1282 H         1 <0>         0.3993
     24 H6         -1.1213   -1.7661   -0.0588 H         1 <0>         0.3999
     25 H7          3.7118    2.8651   -0.6454 H         1 <0>         0.4255
     26 H8          4.5279    4.0814    2.7178 H         1 <0>         0.1492
     27 H9          3.5900    4.4040    4.9713 H         1 <0>         0.1455
     28 H10         2.6326    0.2503    5.1654 H         1 <0>         0.1451
     29 H11         3.5613   -0.0682    2.9075 H         1 <0>         0.1516
@<TRIPOS>BOND
     1    1    6 ar
     2    1    2 ar
     3    1   19 1
     4    2    3 ar
     5    2   20 1
     6    3    4 ar
     7    3    8 1
     8    4    5 ar
     9    4   21 1
    10    5    6 ar
    11    5   22 1
    12    6    7 1
    13    7   23 1
    14    7   24 1
    15    8    9 1
    16    8   25 1
    17    9   10 2
    18    9   11 2
    19    9   12 1
    20   12   17 ar
    21   12   13 ar
    22   13   14 ar
    23   13   26 1
    24   14   15 ar
    25   14   27 1
    26   15   16 ar
    27   15   18 1
    28   16   17 ar
    29   16   28 1
    30   17   29 1
@<TRIPOS>MOLECULE
ZINC05193949
   31    33     0     0     0
SMALL
USER_CHARGES
2-amino-1-phenothiazin-10-yl-ethanone
@<TRIPOS>ATOM
      1 C1         -0.1923    1.2982    0.2482 C.ar      1 <0>        -0.0829
      2 C2         -1.3542    2.0349    0.3842 C.ar      1 <0>        -0.0963
      3 C3         -1.2967    3.4169    0.4392 C.ar      1 <0>        -0.0556
      4 C4         -0.0738    4.0561    0.3473 C.ar      1 <0>        -0.1162
      5 C5          1.1024    3.3166    0.2034 C.ar      1 <0>         0.1120
      6 C6          1.0331    1.9327    0.1551 C.ar      1 <0>        -0.1482
      7 N1          2.3395    3.9660    0.1073 N.am      1 <0>        -0.4774
      8 C7          2.4882    5.1728   -0.5881 C.ar      1 <0>         0.1171
      9 C8          3.6334    5.4158   -1.3307 C.ar      1 <0>        -0.0925
     10 C9          3.7728    6.6091   -2.0159 C.ar      1 <0>        -0.0930
     11 C10         2.7761    7.5659   -1.9666 C.ar      1 <0>        -0.0961
     12 C11         1.6283    7.3343   -1.2282 C.ar      1 <0>        -0.0676
     13 C12         1.4841    6.1426   -0.5415 C.ar      1 <0>        -0.1244
     14 S1          0.0316    5.8180    0.4086 S.3       1 <0>         0.0424
     15 C13         3.4169    3.4142    0.6999 C.2       1 <0>         0.4994
     16 O1          4.5164    3.8989    0.5318 O.2       1 <0>        -0.4951
     17 C14         3.2560    2.1953    1.5713 C.3       1 <0>        -0.0305
     18 H1         -0.2423    0.2200    0.2099 H         1 <0>         0.1446
     19 H2         -2.3074    1.5316    0.4512 H         1 <0>         0.1465
     20 H3         -2.2032    3.9936    0.5492 H         1 <0>         0.1489
     21 H4          1.9359    1.3503    0.0452 H         1 <0>         0.1339
     22 H5          4.4165    4.6732   -1.3745 H         1 <0>         0.1436
     23 H6          4.6662    6.7946   -2.5938 H         1 <0>         0.1412
     24 H7          2.8932    8.4951   -2.5044 H         1 <0>         0.1436
     25 H8          0.8488    8.0808   -1.1889 H         1 <0>         0.1458
     26 H9          2.4366    2.3553    2.2721 H         1 <0>         0.1702
     27 H10         3.0364    1.3290    0.9472 H         1 <0>         0.1761
     28 H11         4.7591    2.7728    2.8541 H         1 <0>         0.4439
     29 H12         4.4167    1.1462    2.9094 H         1 <0>         0.4501
     30 N2          4.5152    1.9550    2.2979 N.4       1 <0>        -0.6315
     31 H13         5.2660    1.7739    1.6213 H         1 <0>         0.4480
@<TRIPOS>BOND
     1    1    6 ar
     2    1    2 ar
     3    1   18 1
     4    2    3 ar
     5    2   19 1
     6    3    4 ar
     7    3   20 1
     8    4   14 1
     9    4    5 ar
    10    5    6 ar
    11    5    7 1
    12    6   21 1
    13    7    8 1
    14    7   15 am
    15    8   13 ar
    16    8    9 ar
    17    9   10 ar
    18    9   22 1
    19   10   11 ar
    20   10   23 1
    21   11   12 ar
    22   11   24 1
    23   12   13 ar
    24   12   25 1
    25   13   14 1
    26   15   16 2
    27   15   17 1
    28   17   26 1
    29   17   27 1
    30   17   30 1
    31   28   30 1
    32   29   30 1
    33   30   31 1
@<TRIPOS>MOLECULE
ZINC16051895
   44    47     0     0     0
SMALL
USER_CHARGES

@<TRIPOS>ATOM
      1 C1          0.0108    1.3072    0.4001 C.ar      1 <0>        -0.1041
      2 C2          1.1384    2.0970    0.2752 C.ar      1 <0>        -0.1133
      3 C3          2.3829    1.5094    0.1461 C.ar      1 <0>        -0.1068
      4 C4          2.5000    0.1320    0.1424 C.ar      1 <0>        -0.1242
      5 C5          1.3725   -0.6578    0.2682 C.ar      1 <0>        -0.0867
      6 C6          0.1277   -0.0702    0.3959 C.ar      1 <0>        -0.1227
      7 C7          3.8567   -0.5086    0.0007 C.3       1 <0>         0.1823
      8 H1          4.5537    0.2088   -0.4324 H         1 <0>         0.1335
      9 C8          4.3543   -0.9365    1.3572 C.2       1 <0>         0.5247
     10 O1          4.5998   -2.1045    1.5724 O.2       1 <0>        -0.4939
     11 N1          4.5266   -0.0211    2.3314 N.am      1 <0>        -0.6651
     12 C9          5.0874   -0.3985    3.5522 C.ar      1 <0>         0.1899
     13 C10         6.0747   -1.3807    3.6123 C.ar      1 <0>        -0.1754
     14 C11         6.6036   -1.7253    4.8389 C.ar      1 <0>         0.1200
     15 N2          6.1862   -1.1382    5.9446 N.ar      1 <0>        -0.4947
     16 C12         5.2539   -0.2044    5.9291 C.ar      1 <0>         0.1193
     17 C13         4.6788    0.2010    4.7425 C.ar      1 <0>        -0.1987
     18 N3          3.7549   -1.6795   -0.8738 N.pl3     1 <0>        -1.0908
     19 S1          4.0893   -1.5379   -2.4895 S.o2      1 <0>         2.7010
     20 O2          5.3204   -0.8354   -2.5894 O.2       1 <0>        -0.9514
     21 O3          3.8989   -2.8262   -3.0581 O.2       1 <0>        -0.9289
     22 C14         2.8547   -0.4921   -3.1873 C.ar      1 <0>        -0.6406
     23 C15         3.1966    0.7223   -3.6778 C.ar      1 <0>         0.0469
     24 C16         2.2461    1.5761   -4.2376 C.ar      1 <0>        -0.1270
     25 C17         0.9404    1.2276   -4.3144 C.ar      1 <0>         0.0006
     26 C18         0.5082   -0.0325   -3.8195 C.ar      1 <0>         0.0533
     27 C19         1.5030   -0.9276   -3.2394 C.ar      1 <0>         0.1369
     28 N4          0.9858   -2.0810   -2.8140 N.2       1 <0>        -0.5049
     29 S2         -0.5874   -1.9981   -3.1402 S.3       1 <0>         0.6597
     30 N5         -0.7244   -0.5418   -3.8100 N.2       1 <0>        -0.4898
     31 H2         -0.9611    1.7663    0.5055 H         1 <0>         0.1248
     32 H3          1.0470    3.1731    0.2781 H         1 <0>         0.1290
     33 H4          3.2638    2.1264    0.0478 H         1 <0>         0.1306
     34 H5          1.4638   -1.7339    0.2650 H         1 <0>         0.1255
     35 H6         -0.7532   -0.6873    0.4938 H         1 <0>         0.1233
     36 H7          4.2608    0.9000    2.1839 H         1 <0>         0.4162
     37 H8          6.4205   -1.8654    2.7112 H         1 <0>         0.1454
     38 H9          7.3687   -2.4855    4.8950 H         1 <0>         0.1611
     39 H10         4.9403    0.2514    6.8566 H         1 <0>         0.1607
     40 H11         3.9196    0.9690    4.7363 H         1 <0>         0.1383
     41 H12         3.4916   -2.5378   -0.5064 H         1 <0>         0.4314
     42 H13         4.2286    1.0376   -3.6344 H         1 <0>         0.1609
     43 H14         2.5591    2.5372   -4.6181 H         1 <0>         0.1531
     44 H15         0.2256    1.9086   -4.7524 H         1 <0>         0.1505
@<TRIPOS>BOND
     1    1    6 ar
     2    1    2 ar
     3    1   31 1
     4    2    3 ar
     5    2   32 1
     6    3    4 ar
     7    3   33 1
     8    4    5 ar
     9    4    7 1
    10    5    6 ar
    11    5   34 1
    12    6   35 1
    13    7    8 1
    14    7    9 1
    15    7   18 1
    16    9   10 2
    17    9   11 am
    18   11   12 1
    19   11   36 1
    20   12   17 ar
    21   12   13 ar
    22   13   14 ar
    23   13   37 1
    24   14   15 ar
    25   14   38 1
    26   15   16 ar
    27   16   17 ar
    28   16   39 1
    29   17   40 1
    30   18   19 1
    31   18   41 1
    32   19   20 2
    33   19   21 2
    34   19   22 1
    35   22   27 ar
    36   22   23 ar
    37   23   24 ar
    38   23   42 1
    39   24   25 ar
    40   24   43 1
    41   25   26 ar
    42   25   44 1
    43   26   30 2
    44   26   27 ar
    45   27   28 2
    46   28   29 1
    47   29   30 1
@<TRIPOS>MOLECULE
ZINC16051895
   43    46     0     0     0
SMALL
USER_CHARGES

@<TRIPOS>ATOM
      1 C1         -0.0026    1.3883   -0.0084 C.ar      1 <0>        -0.1279
      2 C2          1.1869    2.0926   -0.0113 C.ar      1 <0>        -0.1345
      3 C3          2.3916    1.4146   -0.0211 C.ar      1 <0>        -0.1273
      4 C4          2.4067    0.0324   -0.0276 C.ar      1 <0>        -0.1089
      5 C5          1.2173   -0.6720   -0.0239 C.ar      1 <0>        -0.0432
      6 C6          0.0126    0.0060   -0.0155 C.ar      1 <0>        -0.1264
      7 C7          3.7200   -0.7067   -0.0394 C.3       1 <0>         0.2041
      8 H1          4.5080   -0.0417   -0.3927 H         1 <0>         0.0441
      9 C8          4.0456   -1.1746    1.3557 C.2       1 <0>         0.5415
     10 O1          4.1815   -2.3583    1.5820 O.2       1 <0>        -0.4841
     11 N1          4.1857   -0.2776    2.3518 N.am      1 <0>        -0.6848
     12 C9          4.3900   -0.7151    3.6610 C.ar      1 <0>         0.2086
     13 C10         5.1417   -1.8593    3.9234 C.ar      1 <0>        -0.1793
     14 C11         5.3204   -2.2586    5.2317 C.ar      1 <0>         0.1109
     15 N2          4.7904   -1.5726    6.2267 N.ar      1 <0>        -0.5094
     16 C12         4.0728   -0.4847    6.0193 C.ar      1 <0>         0.1109
     17 C13         3.8525   -0.0161    4.7406 C.ar      1 <0>        -0.2101
     18 N3          3.6210   -1.8642   -0.9320 N.2       1 <0>        -1.1237
     19 S1          3.2707   -1.6454   -2.5357 S.o2      1 <0>         2.5864
     20 O2          1.9446   -1.1386   -2.5962 O.2       1 <0>        -1.0350
     21 O3          4.3764   -0.9560   -3.1026 O.2       1 <0>        -1.0379
     22 C14         3.2348   -3.2405   -3.2833 C.ar      1 <0>        -0.5519
     23 C15         2.0776   -3.7203   -3.7963 C.ar      1 <0>        -0.0043
     24 C16         2.0122   -4.9781   -4.3957 C.ar      1 <0>        -0.1084
     25 C17         3.1030   -5.7741   -4.4902 C.ar      1 <0>        -0.0441
     26 C18         4.3523   -5.3362   -3.9734 C.ar      1 <0>         0.0563
     27 C19         4.4220   -4.0186   -3.3519 C.ar      1 <0>         0.1325
     28 N4          5.6420   -3.7117   -2.9090 N.2       1 <0>        -0.4527
     29 S2          6.5661   -4.9786   -3.2686 S.3       1 <0>         0.6016
     30 N5          5.5219   -5.9772   -3.9763 N.2       1 <0>        -0.5122
     31 H2         -0.9437    1.9179    0.0038 H         1 <0>         0.1097
     32 H3          1.1751    3.1725   -0.0061 H         1 <0>         0.1114
     33 H4          3.3209    1.9649   -0.0240 H         1 <0>         0.1131
     34 H5          1.2291   -1.7519   -0.0294 H         1 <0>         0.1256
     35 H6         -0.9167   -0.5442   -0.0129 H         1 <0>         0.1115
     36 H7          4.1444    0.6720    2.1586 H         1 <0>         0.4090
     37 H8          5.5779   -2.4255    3.1138 H         1 <0>         0.1505
     38 H9          5.9010   -3.1441    5.4444 H         1 <0>         0.1540
     39 H10         3.6565    0.0480    6.8614 H         1 <0>         0.1529
     40 H11         3.2682    0.8775    4.5780 H         1 <0>         0.1339
     41 H12         1.1846   -3.1155   -3.7399 H         1 <0>         0.1538
     42 H13         1.0697   -5.3249   -4.7932 H         1 <0>         0.1424
     43 H14         3.0236   -6.7439   -4.9588 H         1 <0>         0.1414
@<TRIPOS>BOND
     1    1    6 ar
     2    1    2 ar
     3    1   31 1
     4    2    3 ar
     5    2   32 1
     6    3    4 ar
     7    3   33 1
     8    4    5 ar
     9    4    7 1
    10    5    6 ar
    11    5   34 1
    12    6   35 1
    13    7    8 1
    14    7    9 1
    15    7   18 1
    16    9   10 2
    17    9   11 am
    18   11   12 1
    19   11   36 1
    20   12   17 ar
    21   12   13 ar
    22   13   14 ar
    23   13   37 1
    24   14   15 ar
    25   14   38 1
    26   15   16 ar
    27   16   17 ar
    28   16   39 1
    29   17   40 1
    30   18   19 1
    31   19   20 2
    32   19   21 2
    33   19   22 1
    34   22   27 ar
    35   22   23 ar
    36   23   24 ar
    37   23   41 1
    38   24   25 ar
    39   24   42 1
    40   25   26 ar
    41   25   43 1
    42   26   30 2
    43   26   27 ar
    44   27   28 2
    45   28   29 1
    46   29   30 1
@<TRIPOS>MOLECULE
ZINC20235439
   44    47     0     0     0
SMALL
USER_CHARGES

@<TRIPOS>ATOM
      1 C1         -0.0320    1.3664   -0.0088 C.ar      1 <0>        -0.1003
      2 C2          1.1536    2.0772   -0.0112 C.ar      1 <0>        -0.1287
      3 C3          2.3619    1.4059   -0.0209 C.ar      1 <0>        -0.1280
      4 C4          2.3847    0.0238   -0.0278 C.ar      1 <0>        -0.1044
      5 C5          1.1991   -0.6870   -0.0245 C.ar      1 <0>        -0.0907
      6 C6         -0.0093   -0.0157   -0.0162 C.ar      1 <0>        -0.1118
      7 C7          3.7020   -0.7081   -0.0394 C.3       1 <0>         0.1815
      8 H1          4.4907   -0.0421    0.3105 H         1 <0>         0.1489
      9 C8          4.0127   -1.1609   -1.4428 C.2       1 <0>         0.5248
     10 O1          4.1523   -2.3416   -1.6821 O.2       1 <0>        -0.4979
     11 N1          4.1355   -0.2538   -2.4319 N.am      1 <0>        -0.6647
     12 C9          4.5187   -0.6626   -3.7099 C.ar      1 <0>         0.1873
     13 C10         4.1051   -1.8915   -4.2215 C.ar      1 <0>        -0.1748
     14 C11         4.5056   -2.2589   -5.4895 C.ar      1 <0>         0.1178
     15 N2          5.2696   -1.4638   -6.2145 N.ar      1 <0>        -0.4946
     16 C12         5.6817   -0.2932   -5.7657 C.ar      1 <0>         0.1186
     17 C13         5.3202    0.1499   -4.5103 C.ar      1 <0>        -0.1987
     18 N3          3.6204   -1.8745    0.8433 N.pl3     1 <0>        -1.0925
     19 S1          4.1453   -1.7655    2.4101 S.o2      1 <0>         2.7026
     20 O2          3.9125   -3.0345    3.0056 O.2       1 <0>        -0.9470
     21 O3          5.4346   -1.1697    2.3659 O.2       1 <0>        -0.9350
     22 C14         3.0896   -0.6209    3.2348 C.ar      1 <0>        -0.6448
     23 C15         2.2957   -1.0425    4.2469 C.ar      1 <0>         0.0528
     24 C16         1.4480   -0.1645    4.9224 C.ar      1 <0>        -0.1298
     25 C17         1.3819    1.1472    4.5949 C.ar      1 <0>         0.0014
     26 C18         2.1868    1.6610    3.5424 C.ar      1 <0>         0.0503
     27 C19         3.0775    0.7442    2.8400 C.ar      1 <0>         0.1436
     28 N4          3.7867    1.3362    1.8780 N.2       1 <0>        -0.5343
     29 S2          3.3457    2.8832    1.9026 S.3       1 <0>         0.6725
     30 N5          2.2546    2.9119    3.0846 N.2       1 <0>        -0.4851
     31 H2         -0.9760    1.8909    0.0033 H         1 <0>         0.1275
     32 H3          1.1358    3.1571   -0.0058 H         1 <0>         0.1296
     33 H4          3.2882    1.9613   -0.0235 H         1 <0>         0.1280
     34 H5          1.2169   -1.7669   -0.0302 H         1 <0>         0.1281
     35 H6         -0.9355   -0.5710   -0.0140 H         1 <0>         0.1289
     36 H7          3.9576    0.6833   -2.2555 H         1 <0>         0.4157
     37 H8          3.4801   -2.5471   -3.6333 H         1 <0>         0.1490
     38 H9          4.1902   -3.2094   -5.8938 H         1 <0>         0.1603
     39 H10         6.3061    0.3278   -6.3909 H         1 <0>         0.1611
     40 H11         5.6570    1.1111   -4.1509 H         1 <0>         0.1393
     41 H12         3.2589   -2.7106    0.5099 H         1 <0>         0.4281
     42 H13         2.3189   -2.0823    4.5378 H         1 <0>         0.1613
     43 H14         0.8300   -0.5400    5.7246 H         1 <0>         0.1531
     44 H15         0.7160    1.8045    5.1343 H         1 <0>         0.1507
@<TRIPOS>BOND
     1    1    6 ar
     2    1    2 ar
     3    1   31 1
     4    2    3 ar
     5    2   32 1
     6    3    4 ar
     7    3   33 1
     8    4    5 ar
     9    4    7 1
    10    5    6 ar
    11    5   34 1
    12    6   35 1
    13    7    8 1
    14    7    9 1
    15    7   18 1
    16    9   10 2
    17    9   11 am
    18   11   12 1
    19   11   36 1
    20   12   17 ar
    21   12   13 ar
    22   13   14 ar
    23   13   37 1
    24   14   15 ar
    25   14   38 1
    26   15   16 ar
    27   16   17 ar
    28   16   39 1
    29   17   40 1
    30   18   19 1
    31   18   41 1
    32   19   20 2
    33   19   21 2
    34   19   22 1
    35   22   27 ar
    36   22   23 ar
    37   23   24 ar
    38   23   42 1
    39   24   25 ar
    40   24   43 1
    41   25   26 ar
    42   25   44 1
    43   26   30 2
    44   26   27 ar
    45   27   28 2
    46   28   29 1
    47   29   30 1
@<TRIPOS>MOLECULE
ZINC20235439
   43    46     0     0     0
SMALL
USER_CHARGES

@<TRIPOS>ATOM
      1 C1         -0.0320    1.3664   -0.0088 C.ar      1 <0>        -0.1273
      2 C2          1.1536    2.0772   -0.0112 C.ar      1 <0>        -0.1367
      3 C3          2.3619    1.4059   -0.0209 C.ar      1 <0>        -0.1284
      4 C4          2.3847    0.0238   -0.0278 C.ar      1 <0>        -0.1130
      5 C5          1.1991   -0.6870   -0.0245 C.ar      1 <0>        -0.0361
      6 C6         -0.0093   -0.0157   -0.0162 C.ar      1 <0>        -0.1273
      7 C7          3.7020   -0.7081   -0.0394 C.3       1 <0>         0.2044
      8 H1          4.4907   -0.0421    0.3105 H         1 <0>         0.0434
      9 C8          4.0127   -1.1609   -1.4428 C.2       1 <0>         0.5413
     10 O1          4.1523   -2.3416   -1.6821 O.2       1 <0>        -0.4843
     11 N1          4.1355   -0.2538   -2.4319 N.am      1 <0>        -0.6851
     12 C9          4.5187   -0.6626   -3.7099 C.ar      1 <0>         0.2084
     13 C10         4.1051   -1.8915   -4.2215 C.ar      1 <0>        -0.1783
     14 C11         4.5056   -2.2589   -5.4895 C.ar      1 <0>         0.1111
     15 N2          5.2696   -1.4638   -6.2145 N.ar      1 <0>        -0.5095
     16 C12         5.6817   -0.2932   -5.7657 C.ar      1 <0>         0.1110
     17 C13         5.3202    0.1499   -4.5103 C.ar      1 <0>        -0.2116
     18 N3          3.6204   -1.8745    0.8433 N.2       1 <0>        -1.1240
     19 S1          3.2889   -1.6730    2.4532 S.o2      1 <0>         2.5854
     20 O2          4.3978   -0.9828    3.0129 O.2       1 <0>        -1.0550
     21 O3          1.9609   -1.1740    2.5350 O.2       1 <0>        -1.0173
     22 C14         3.2709   -3.2753    3.1859 C.ar      1 <0>        -0.5508
     23 C15         4.1984   -3.6034    4.1156 C.ar      1 <0>        -0.0061
     24 C16         4.2142   -4.8620    4.7169 C.ar      1 <0>        -0.1076
     25 C17         3.3029   -5.8102    4.3965 C.ar      1 <0>        -0.0446
     26 C18         2.2991   -5.5366    3.4285 C.ar      1 <0>         0.0565
     27 C19         2.2790   -4.2187    2.8041 C.ar      1 <0>         0.1351
     28 N4          1.2930   -4.0734    1.9179 N.2       1 <0>        -0.4518
     29 S2          0.5014   -5.4739    1.9152 S.3       1 <0>         0.5998
     30 N5          1.3283   -6.3393    2.9903 N.2       1 <0>        -0.5119
     31 H2         -0.9760    1.8909    0.0033 H         1 <0>         0.1087
     32 H3          1.1358    3.1571   -0.0058 H         1 <0>         0.1107
     33 H4          3.2882    1.9613   -0.0235 H         1 <0>         0.1128
     34 H5          1.2169   -1.7669   -0.0302 H         1 <0>         0.1313
     35 H6         -0.9355   -0.5710   -0.0140 H         1 <0>         0.1101
     36 H7          3.9576    0.6833   -2.2555 H         1 <0>         0.4094
     37 H8          3.4801   -2.5471   -3.6333 H         1 <0>         0.1503
     38 H9          4.1902   -3.2094   -5.8938 H         1 <0>         0.1540
     39 H10         6.3061    0.3278   -6.3909 H         1 <0>         0.1531
     40 H11         5.6570    1.1111   -4.1509 H         1 <0>         0.1339
     41 H12         4.9434   -2.8743    4.3981 H         1 <0>         0.1521
     42 H13         4.9709   -5.0850    5.4545 H         1 <0>         0.1426
     43 H14         3.3390   -6.7767    4.8772 H         1 <0>         0.1413
@<TRIPOS>BOND
     1    1    6 ar
     2    1    2 ar
     3    1   31 1
     4    2    3 ar
     5    2   32 1
     6    3    4 ar
     7    3   33 1
     8    4    5 ar
     9    4    7 1
    10    5    6 ar
    11    5   34 1
    12    6   35 1
    13    7    8 1
    14    7    9 1
    15    7   18 1
    16    9   10 2
    17    9   11 am
    18   11   12 1
    19   11   36 1
    20   12   17 ar
    21   12   13 ar
    22   13   14 ar
    23   13   37 1
    24   14   15 ar
    25   14   38 1
    26   15   16 ar
    27   16   17 ar
    28   16   39 1
    29   17   40 1
    30   18   19 1
    31   19   20 2
    32   19   21 2
    33   19   22 1
    34   22   27 ar
    35   22   23 ar
    36   23   24 ar
    37   23   41 1
    38   24   25 ar
    39   24   42 1
    40   25   26 ar
    41   25   43 1
    42   26   30 2
    43   26   27 ar
    44   27   28 2
    45   28   29 1
    46   29   30 1
@<TRIPOS>MOLECULE
ZINC00209572
   39    41     0     0     0
SMALL
USER_CHARGES
4-phenyl-N-(4-pyridyl)tetrahydropyran-4-carboxamide
@<TRIPOS>ATOM
      1 C1         -4.9637    6.1641   -3.8061 C.ar      1 <0>        -0.1141
      2 C2         -4.0295    6.4683   -2.8335 C.ar      1 <0>        -0.1137
      3 C3         -4.0066    5.7546   -1.6499 C.ar      1 <0>        -0.1145
      4 C4         -4.9178    4.7367   -1.4388 C.ar      1 <0>        -0.0814
      5 C5         -5.8486    4.4291   -2.4135 C.ar      1 <0>        -0.1072
      6 C6         -5.8749    5.1462   -3.5950 C.ar      1 <0>        -0.1136
      7 C7         -4.8926    3.9584   -0.1486 C.3       1 <0>        -0.0316
      8 C8         -4.9108    4.9293    1.0360 C.3       1 <0>        -0.1452
      9 C9         -4.9645    4.1264    2.3406 C.3       1 <0>         0.0566
     10 O1         -6.1171    3.2818    2.3328 O.3       1 <0>        -0.3765
     11 C10        -6.1306    2.3228    1.2734 C.3       1 <0>         0.0509
     12 C11        -6.1249    3.0517   -0.0729 C.3       1 <0>        -0.1336
     13 C12        -3.6435    3.1172   -0.0917 C.2       1 <0>         0.5321
     14 O2         -3.7224    1.9090   -0.1626 O.2       1 <0>        -0.5028
     15 N1         -2.4388    3.7074    0.0379 N.am      1 <0>        -0.6684
     16 C13        -1.2745    2.9434   -0.0500 C.ar      1 <0>         0.1873
     17 C14        -1.2471    1.6266    0.4066 C.ar      1 <0>        -0.1786
     18 C15        -0.0748    0.9065    0.3059 C.ar      1 <0>         0.1178
     19 N2          1.0073    1.4460   -0.2227 N.ar      1 <0>        -0.4957
     20 C16         1.0201    2.6874   -0.6702 C.ar      1 <0>         0.1187
     21 C17        -0.1101    3.4755   -0.6015 C.ar      1 <0>        -0.2014
     22 H1         -4.9813    6.7214   -4.7310 H         1 <0>         0.1256
     23 H2         -3.3174    7.2633   -2.9986 H         1 <0>         0.1263
     24 H3         -3.2766    5.9920   -0.8902 H         1 <0>         0.1157
     25 H4         -6.5576    3.6310   -2.2503 H         1 <0>         0.1305
     26 H5         -6.6044    4.9083   -4.3549 H         1 <0>         0.1270
     27 H6         -4.0090    5.5414    1.0193 H         1 <0>         0.0775
     28 H7         -5.7891    5.5712    0.9674 H         1 <0>         0.0950
     29 H8         -5.0216    4.8115    3.1865 H         1 <0>         0.1034
     30 H9         -4.0664    3.5150    2.4281 H         1 <0>         0.0479
     31 H10        -7.0278    1.7086    1.3504 H         1 <0>         0.1006
     32 H11        -5.2478    1.6877    1.3465 H         1 <0>         0.0674
     33 H12        -7.0276    3.6558   -0.1639 H         1 <0>         0.0876
     34 H13        -6.0911    2.3229   -0.8826 H         1 <0>         0.0894
     35 H14        -2.3812    4.6633    0.1924 H         1 <0>         0.4115
     36 H15        -2.1302    1.1777    0.8366 H         1 <0>         0.1518
     37 H16        -0.0434   -0.1133    0.6601 H         1 <0>         0.1601
     38 H17         1.9267    3.0914   -1.0959 H         1 <0>         0.1603
     39 H18        -0.0930    4.4905   -0.9702 H         1 <0>         0.1372
@<TRIPOS>BOND
     1    1    6 ar
     2    1    2 ar
     3    1   22 1
     4    2    3 ar
     5    2   23 1
     6    3    4 ar
     7    3   24 1
     8    4    5 ar
     9    4    7 1
    10    5    6 ar
    11    5   25 1
    12    6   26 1
    13    7   12 1
    14    7    8 1
    15    7   13 1
    16    8    9 1
    17    8   27 1
    18    8   28 1
    19    9   10 1
    20    9   29 1
    21    9   30 1
    22   10   11 1
    23   11   12 1
    24   11   31 1
    25   11   32 1
    26   12   33 1
    27   12   34 1
    28   13   14 2
    29   13   15 am
    30   15   16 1
    31   15   35 1
    32   16   21 ar
    33   16   17 ar
    34   17   18 ar
    35   17   36 1
    36   18   19 ar
    37   18   37 1
    38   19   20 ar
    39   20   21 ar
    40   20   38 1
    41   21   39 1
@<TRIPOS>MOLECULE
ZINC00141560
   35    36     0     0     0
SMALL
USER_CHARGES
(3R)-3-(2-furyl)-3-(2-methoxyphenyl)propan-1-amine
@<TRIPOS>ATOM
      1 C1         -2.0372   -3.9061    2.9035 C.3       1 <0>         0.0245
      2 O1         -1.7549   -2.9018    1.9269 O.3       1 <0>        -0.3203
      3 C2         -2.2587   -1.6605    2.1550 C.ar      1 <0>         0.1411
      4 C3         -3.0051   -1.4127    3.2981 C.ar      1 <0>        -0.2049
      5 C4         -3.5209   -0.1516    3.5248 C.ar      1 <0>        -0.0664
      6 C5         -3.2892    0.8651    2.6164 C.ar      1 <0>        -0.1539
      7 C6         -2.5414    0.6220    1.4794 C.ar      1 <0>        -0.0676
      8 C7         -2.0233   -0.6377    1.2480 C.ar      1 <0>        -0.1359
      9 C8         -1.2082   -0.9019    0.0083 C.3       1 <0>         0.0596
     10 H1         -0.8878   -1.9437   -0.0007 H         1 <0>         0.1223
     11 C9         -2.0593   -0.6194   -1.2314 C.3       1 <0>        -0.1469
     12 C10        -1.2753   -1.0057   -2.4871 C.3       1 <0>        -0.0068
     13 C11         0.0021   -0.0041    0.0020 C.2       1 <0>        -0.0321
     14 C12         1.2839   -0.4117   -0.0124 C.2       1 <0>        -0.1920
     15 C13         2.0843    0.7537   -0.0138 C.2       1 <0>        -0.2125
     16 C14         1.2438    1.8038   -0.0001 C.2       1 <0>        -0.0301
     17 O2         -0.0161    1.3388    0.0094 O.3       1 <0>        -0.1740
     18 H2         -1.6331   -3.5987    3.8681 H         1 <0>         0.0603
     19 H3         -3.1159   -4.0386    2.9870 H         1 <0>         0.0597
     20 H4         -1.5779   -4.8470    2.6004 H         1 <0>         0.1054
     21 H5         -3.1861   -2.2062    4.0080 H         1 <0>         0.1340
     22 H6         -4.1054    0.0408    4.4124 H         1 <0>         0.1311
     23 H7         -3.6934    1.8504    2.7955 H         1 <0>         0.1290
     24 H8         -2.3618    1.4177    0.7715 H         1 <0>         0.1293
     25 H9         -2.9779   -1.2040   -1.1824 H         1 <0>         0.0999
     26 H10        -2.3055    0.4418   -1.2689 H         1 <0>         0.0945
     27 H11        -0.3566   -0.4211   -2.5361 H         1 <0>         0.1326
     28 H12        -1.0290   -2.0669   -2.4496 H         1 <0>         0.1387
     29 H13        -1.5963   -0.9814   -4.5205 H         1 <0>         0.4409
     30 H14        -2.9781   -1.2149   -3.6251 H         1 <0>         0.4373
     31 H15         1.6343   -1.4332   -0.0218 H         1 <0>         0.1498
     32 H16         3.1636    0.7932   -0.0236 H         1 <0>         0.1524
     33 H17         1.5330    2.8444    0.0027 H         1 <0>         0.2069
     34 N1         -2.0952   -0.7094   -3.6751 N.4       1 <0>        -0.6456
     35 H18        -2.2877    0.2986   -3.7094 H         1 <0>         0.4396
@<TRIPOS>BOND
     1    1    2 1
     2    1   18 1
     3    1   19 1
     4    1   20 1
     5    2    3 1
     6    3    8 ar
     7    3    4 ar
     8    4    5 ar
     9    4   21 1
    10    5    6 ar
    11    5   22 1
    12    6    7 ar
    13    6   23 1
    14    7    8 ar
    15    7   24 1
    16    8    9 1
    17    9   10 1
    18    9   11 1
    19    9   13 1
    20   11   12 1
    21   11   25 1
    22   11   26 1
    23   12   27 1
    24   12   28 1
    25   12   34 1
    26   13   17 1
    27   13   14 2
    28   14   15 1
    29   14   31 1
    30   15   16 2
    31   15   32 1
    32   16   17 1
    33   16   33 1
    34   29   34 1
    35   30   34 1
    36   34   35 1
@<TRIPOS>MOLECULE
ZINC00141563
   35    36     0     0     0
SMALL
USER_CHARGES
(3S)-3-(2-furyl)-3-(2-methoxyphenyl)propan-1-amine
@<TRIPOS>ATOM
      1 C1         -4.2755   -1.1711   -2.8978 C.3       1 <0>         0.0240
      2 O1         -3.6878   -0.3178   -1.9136 O.3       1 <0>        -0.3198
      3 C2         -3.7879    1.0218   -2.1195 C.ar      1 <0>         0.1366
      4 C3         -4.4381    1.5051   -3.2459 C.ar      1 <0>        -0.2045
      5 C4         -4.5381    2.8671   -3.4531 C.ar      1 <0>        -0.0673
      6 C5         -3.9913    3.7487   -2.5388 C.ar      1 <0>        -0.1527
      7 C6         -3.3471    3.2698   -1.4132 C.ar      1 <0>        -0.0704
      8 C7         -3.2398    1.9082   -1.2041 C.ar      1 <0>        -0.1421
      9 C8         -2.5334    1.3868    0.0207 C.3       1 <0>         0.0603
     10 H1         -2.5536    0.2970    0.0154 H         1 <0>         0.1218
     11 C9         -3.2395    1.9039    1.2757 C.3       1 <0>        -0.1465
     12 C10        -4.6519    1.3196    1.3435 C.3       1 <0>        -0.0052
     13 C11        -1.1035    1.8627    0.0167 C.2       1 <0>        -0.0274
     14 C12        -0.0126    1.0758    0.0080 C.2       1 <0>        -0.1870
     15 C13         1.1112    1.9337    0.0018 C.2       1 <0>        -0.2125
     16 C14         0.6398    3.1935    0.0123 C.2       1 <0>        -0.0286
     17 O2         -0.7023    3.1444    0.0243 O.3       1 <0>        -0.1753
     18 H2         -5.3434   -0.9644   -2.9668 H         1 <0>         0.0588
     19 H3         -3.8066   -0.9875   -3.8645 H         1 <0>         0.0612
     20 H4         -4.1246   -2.2122   -2.6127 H         1 <0>         0.1063
     21 H5         -4.8659    0.8170   -3.9600 H         1 <0>         0.1340
     22 H6         -5.0441    3.2438   -4.3297 H         1 <0>         0.1310
     23 H7         -4.0711    4.8133   -2.7022 H         1 <0>         0.1293
     24 H8         -2.9242    3.9604   -0.6987 H         1 <0>         0.1314
     25 H9         -2.6781    1.6007    2.1594 H         1 <0>         0.0972
     26 H10        -3.2977    2.9916    1.2376 H         1 <0>         0.0946
     27 H11        -5.2133    1.6227    0.4597 H         1 <0>         0.1329
     28 H12        -4.5937    0.2318    1.3815 H         1 <0>         0.1391
     29 H13        -6.2654    1.4441    2.6161 H         1 <0>         0.4408
     30 H14        -4.7954    1.6037    3.3775 H         1 <0>         0.4374
     31 H15         0.0021   -0.0041    0.0020 H         1 <0>         0.1493
     32 H16         2.1490    1.6349   -0.0086 H         1 <0>         0.1526
     33 H17         1.2389    4.0921    0.0115 H         1 <0>         0.2071
     34 N1         -5.3300    1.8409    2.5434 N.4       1 <0>        -0.6458
     35 H18        -5.4040    2.8625    2.4722 H         1 <0>         0.4396
@<TRIPOS>BOND
     1    1    2 1
     2    1   18 1
     3    1   19 1
     4    1   20 1
     5    2    3 1
     6    3    8 ar
     7    3    4 ar
     8    4    5 ar
     9    4   21 1
    10    5    6 ar
    11    5   22 1
    12    6    7 ar
    13    6   23 1
    14    7    8 ar
    15    7   24 1
    16    8    9 1
    17    9   10 1
    18    9   11 1
    19    9   13 1
    20   11   12 1
    21   11   25 1
    22   11   26 1
    23   12   27 1
    24   12   28 1
    25   12   34 1
    26   13   17 1
    27   13   14 2
    28   14   15 1
    29   14   31 1
    30   15   16 2
    31   15   32 1
    32   16   17 1
    33   16   33 1
    34   29   34 1
    35   30   34 1
    36   34   35 1
@<TRIPOS>MOLECULE
ZINC00030668
   34    35     0     0     0
SMALL
USER_CHARGES

@<TRIPOS>ATOM
      1 C1         -0.0372    1.5185    0.0011 C.3       1 <0>        -0.1519
      2 C2         -0.0096   -0.0113   -0.0033 C.3       1 <0>        -0.1138
      3 C3          0.7339   -0.5115    1.2369 C.3       1 <0>        -0.0643
      4 H1          1.7248   -0.0591    1.2735 H         1 <0>         0.1102
      5 C4         -0.0385   -0.1303    2.4734 C.ar      1 <0>        -0.0710
      6 C5         -1.3282   -0.5942    2.6532 C.ar      1 <0>        -0.0859
      7 C6         -2.0367   -0.2445    3.7875 C.ar      1 <0>        -0.1202
      8 C7         -1.4554    0.5688    4.7422 C.ar      1 <0>        -0.1158
      9 C8         -0.1653    1.0319    4.5629 C.ar      1 <0>        -0.1215
     10 C9          0.5447    0.6787    3.4306 C.ar      1 <0>        -0.1099
     11 C10         0.8684   -2.0111    1.1710 C.2       1 <0>         0.5192
     12 O1          0.3848   -2.7021    2.0424 O.2       1 <0>        -0.5001
     13 N1          1.5263   -2.5842    0.1438 N.am      1 <0>        -0.6729
     14 C11         1.7355   -3.9638    0.1321 C.ar      1 <0>         0.1881
     15 C12         0.7790   -4.8365    0.6486 C.ar      1 <0>        -0.1759
     16 C13         1.0240   -6.1937    0.6183 C.ar      1 <0>         0.1170
     17 N2          2.1456   -6.6675    0.1092 N.ar      1 <0>        -0.4964
     18 C14         3.0750   -5.8741   -0.3891 C.ar      1 <0>         0.1176
     19 C15         2.9039   -4.5053   -0.4016 C.ar      1 <0>        -0.2018
     20 H2          0.9837    1.9003   -0.0086 H         1 <0>         0.0580
     21 H3         -0.5668    1.8749   -0.8824 H         1 <0>         0.0611
     22 H4         -0.5480    1.8701    0.8975 H         1 <0>         0.0617
     23 H5         -1.0305   -0.3931    0.0064 H         1 <0>         0.0734
     24 H6          0.5013   -0.3629   -0.8996 H         1 <0>         0.0697
     25 H7         -1.7824   -1.2296    1.9073 H         1 <0>         0.1172
     26 H8         -3.0446   -0.6063    3.9276 H         1 <0>         0.1222
     27 H9         -2.0091    0.8426    5.6281 H         1 <0>         0.1219
     28 H10         0.2888    1.6676    5.3086 H         1 <0>         0.1228
     29 H11         1.5539    1.0375    3.2923 H         1 <0>         0.1205
     30 H12         1.8543   -2.0377   -0.5874 H         1 <0>         0.4145
     31 H13        -0.1408   -4.4553    1.0669 H         1 <0>         0.1486
     32 H14         0.2887   -6.8772    1.0165 H         1 <0>         0.1597
     33 H15         3.9790   -6.3022   -0.7964 H         1 <0>         0.1601
     34 H16         3.6664   -3.8619   -0.8152 H         1 <0>         0.1379
@<TRIPOS>BOND
     1    1    2 1
     2    1   20 1
     3    1   21 1
     4    1   22 1
     5    2    3 1
     6    2   23 1
     7    2   24 1
     8    3    4 1
     9    3    5 1
    10    3   11 1
    11    5   10 ar
    12    5    6 ar
    13    6    7 ar
    14    6   25 1
    15    7    8 ar
    16    7   26 1
    17    8    9 ar
    18    8   27 1
    19    9   10 ar
    20    9   28 1
    21   10   29 1
    22   11   12 2
    23   11   13 am
    24   13   14 1
    25   13   30 1
    26   14   19 ar
    27   14   15 ar
    28   15   16 ar
    29   15   31 1
    30   16   17 ar
    31   16   32 1
    32   17   18 ar
    33   18   19 ar
    34   18   33 1
    35   19   34 1
@<TRIPOS>MOLECULE
ZINC00030669
   34    35     0     0     0
SMALL
USER_CHARGES

@<TRIPOS>ATOM
      1 C1          0.5613   -1.8118   -1.1702 C.3       1 <0>        -0.1517
      2 C2         -0.1735   -1.7099    0.1679 C.3       1 <0>        -0.1031
      3 C3          0.3902   -0.5361    0.9712 C.3       1 <0>        -0.0625
      4 H1          0.4011    0.3584    0.3485 H         1 <0>         0.1036
      5 C4          1.7947   -0.8579    1.4127 C.ar      1 <0>        -0.0836
      6 C5          2.0324   -1.9605    2.2120 C.ar      1 <0>        -0.1068
      7 C6          3.3207   -2.2557    2.6169 C.ar      1 <0>        -0.1157
      8 C7          4.3714   -1.4486    2.2223 C.ar      1 <0>        -0.1151
      9 C8          4.1337   -0.3466    1.4222 C.ar      1 <0>        -0.1176
     10 C9          2.8460   -0.0539    1.0137 C.ar      1 <0>        -0.1108
     11 C10        -0.4741   -0.2949    2.1820 C.2       1 <0>         0.5252
     12 O1         -1.1588   -1.1917    2.6266 O.2       1 <0>        -0.5064
     13 N1         -0.4861    0.9175    2.7706 N.am      1 <0>        -0.6663
     14 C11        -1.3408    1.1625    3.8461 C.ar      1 <0>         0.1894
     15 C12        -1.7683    0.1232    4.6708 C.ar      1 <0>        -0.1876
     16 C13        -2.6133    0.4071    5.7236 C.ar      1 <0>         0.1180
     17 N2         -3.0159    1.6426    5.9537 N.ar      1 <0>        -0.4994
     18 C14        -2.6335    2.6531    5.1959 C.ar      1 <0>         0.1193
     19 C15        -1.7847    2.4537    4.1269 C.ar      1 <0>        -0.2071
     20 H2          1.6055   -2.0691   -0.9927 H         1 <0>         0.0580
     21 H3          0.0958   -2.5841   -1.7825 H         1 <0>         0.0609
     22 H4          0.5061   -0.8546   -1.6888 H         1 <0>         0.0554
     23 H5         -1.2364   -1.5496   -0.0125 H         1 <0>         0.0718
     24 H6         -0.0356   -2.6340    0.7294 H         1 <0>         0.0771
     25 H7          1.2116   -2.5910    2.5204 H         1 <0>         0.1259
     26 H8          3.5064   -3.1166    3.2420 H         1 <0>         0.1247
     27 H9          5.3778   -1.6789    2.5392 H         1 <0>         0.1240
     28 H10         4.9545    0.2841    1.1141 H         1 <0>         0.1252
     29 H11         2.6608    0.8050    0.3856 H         1 <0>         0.1242
     30 H12         0.0994    1.6197    2.4466 H         1 <0>         0.4152
     31 H13        -1.4428   -0.8902    4.4879 H         1 <0>         0.1594
     32 H14        -2.9498   -0.3919    6.3676 H         1 <0>         0.1594
     33 H15        -2.9860    3.6495    5.4182 H         1 <0>         0.1597
     34 H16        -1.4718    3.2858    3.5135 H         1 <0>         0.1373
@<TRIPOS>BOND
     1    1    2 1
     2    1   20 1
     3    1   21 1
     4    1   22 1
     5    2    3 1
     6    2   23 1
     7    2   24 1
     8    3    4 1
     9    3    5 1
    10    3   11 1
    11    5   10 ar
    12    5    6 ar
    13    6    7 ar
    14    6   25 1
    15    7    8 ar
    16    7   26 1
    17    8    9 ar
    18    8   27 1
    19    9   10 ar
    20    9   28 1
    21   10   29 1
    22   11   12 2
    23   11   13 am
    24   13   14 1
    25   13   30 1
    26   14   19 ar
    27   14   15 ar
    28   15   16 ar
    29   15   31 1
    30   16   17 ar
    31   16   32 1
    32   17   18 ar
    33   18   19 ar
    34   18   33 1
    35   19   34 1
@<TRIPOS>MOLECULE
ZINC00171737
   48    49     0     0     0
SMALL
USER_CHARGES
2-[2-ethyl-4-(4-methoxyphenyl)-2-methyl-tetrahydropyran-4-yl]ethanamine
@<TRIPOS>ATOM
      1 C1         -2.3975   -0.1507    1.5973 C.3       1 <0>        -0.1647
      2 C2         -2.3122    1.3757    1.5365 C.3       1 <0>        -0.1642
      3 C3         -0.8628    1.7959    1.2841 C.3       1 <0>         0.1159
      4 C4         -0.8381    3.0143    0.3576 C.3       1 <0>        -0.1425
      5 C5         -1.5477    4.1841    1.0463 C.3       1 <0>         0.0064
      6 C6         -0.8657    4.4613    2.3895 C.3       1 <0>        -0.1437
      7 C7         -0.8893    3.1870    3.2376 C.3       1 <0>         0.0525
      8 O1         -0.2406    2.1309    2.5262 O.3       1 <0>        -0.3613
      9 C8         -3.0160    3.8246    1.2824 C.3       1 <0>        -0.1963
     10 C9         -3.7195    3.6430   -0.0641 C.3       1 <0>        -0.0135
     11 C10        -1.4629    5.4109    0.1751 C.ar      1 <0>        -0.1340
     12 C11        -0.7136    5.3820   -0.9865 C.ar      1 <0>        -0.0755
     13 C12        -0.6388    6.5034   -1.7897 C.ar      1 <0>        -0.2037
     14 C13        -1.3071    7.6629   -1.4241 C.ar      1 <0>         0.1377
     15 C14        -2.0537    7.6911   -0.2551 C.ar      1 <0>        -0.1493
     16 C15        -2.1299    6.5652    0.5417 C.ar      1 <0>        -0.0796
     17 O2         -1.2310    8.7690   -2.2099 O.3       1 <0>        -0.3143
     18 C16        -0.4443    8.6675   -3.3985 C.3       1 <0>         0.0243
     19 C17        -0.1035    0.6407    0.6284 C.3       1 <0>        -0.1477
     20 H1         -1.7666   -0.5179    2.4067 H         1 <0>         0.0684
     21 H2         -3.4301   -0.4500    1.7770 H         1 <0>         0.0542
     22 H3         -2.0567   -0.5716    0.6513 H         1 <0>         0.0670
     23 H4         -2.6530    1.7966    2.4824 H         1 <0>         0.0876
     24 H5         -2.9431    1.7430    0.7271 H         1 <0>         0.0609
     25 H6          0.1950    3.2892    0.1448 H         1 <0>         0.0893
     26 H7         -1.3513    2.7742   -0.5736 H         1 <0>         0.0752
     27 H8         -1.3985    5.2562    2.9114 H         1 <0>         0.0808
     28 H9          0.1668    4.7662    2.2187 H         1 <0>         0.0851
     29 H10        -1.9223    2.9061    3.4429 H         1 <0>         0.0523
     30 H11        -0.3676    3.3661    4.1777 H         1 <0>         0.1034
     31 H12        -3.0760    2.8970    1.8516 H         1 <0>         0.1326
     32 H13        -3.5010    4.6255    1.8406 H         1 <0>         0.0908
     33 H14        -3.6978    4.5833   -0.6151 H         1 <0>         0.1363
     34 H15        -3.2078    2.8723   -0.6404 H         1 <0>         0.1376
     35 H16        -5.6005    3.1139   -0.7125 H         1 <0>         0.4407
     36 H17        -5.1621    2.4053    0.7268 H         1 <0>         0.4343
     37 H18        -0.1899    4.4805   -1.2685 H         1 <0>         0.1307
     38 H19        -0.0570    6.4790   -2.6993 H         1 <0>         0.1325
     39 H20        -2.5746    8.5926    0.0319 H         1 <0>         0.1342
     40 H21        -2.7112    6.5865    1.4517 H         1 <0>         0.1272
     41 H22         0.5848    8.4251   -3.1335 H         1 <0>         0.0598
     42 H23        -0.8497    7.8823   -4.0366 H         1 <0>         0.0577
     43 H24        -0.4679    9.6177   -3.9321 H         1 <0>         0.1070
     44 H25        -0.1203   -0.2264    1.2886 H         1 <0>         0.0754
     45 H26         0.9289    0.9403    0.4483 H         1 <0>         0.0671
     46 H27        -0.5782    0.3853   -0.3190 H         1 <0>         0.0723
     47 N1         -5.1224    3.2606    0.1749 N.4       1 <0>        -0.6472
     48 H28        -5.5945    4.0134    0.6894 H         1 <0>         0.4402
@<TRIPOS>BOND
     1    1    2 1
     2    1   20 1
     3    1   21 1
     4    1   22 1
     5    2    3 1
     6    2   23 1
     7    2   24 1
     8    3    8 1
     9    3    4 1
    10    3   19 1
    11    4    5 1
    12    4   25 1
    13    4   26 1
    14    5    6 1
    15    5    9 1
    16    5   11 1
    17    6    7 1
    18    6   27 1
    19    6   28 1
    20    7    8 1
    21    7   29 1
    22    7   30 1
    23    9   10 1
    24    9   31 1
    25    9   32 1
    26   10   33 1
    27   10   34 1
    28   10   47 1
    29   11   16 ar
    30   11   12 ar
    31   12   13 ar
    32   12   37 1
    33   13   14 ar
    34   13   38 1
    35   14   15 ar
    36   14   17 1
    37   15   16 ar
    38   15   39 1
    39   16   40 1
    40   17   18 1
    41   18   41 1
    42   18   42 1
    43   18   43 1
    44   19   44 1
    45   19   45 1
    46   19   46 1
    47   35   47 1
    48   36   47 1
    49   47   48 1
@<TRIPOS>MOLECULE
ZINC00171738
   48    49     0     0     0
SMALL
USER_CHARGES
2-[2-ethyl-4-(4-methoxyphenyl)-2-methyl-tetrahydropyran-4-yl]ethanamine
@<TRIPOS>ATOM
      1 C1          4.2313    2.7452   -2.5660 C.3       1 <0>        -0.1553
      2 C2          2.8431    2.4071   -3.1133 C.3       1 <0>        -0.1124
      3 C3          1.8310    2.3979   -1.9659 C.3       1 <0>         0.1178
      4 C4          0.4365    2.0904   -2.5177 C.3       1 <0>        -0.1443
      5 C5         -0.5799    2.1421   -1.3729 C.3       1 <0>         0.0065
      6 C6         -0.5098    3.5184   -0.7043 C.3       1 <0>        -0.1447
      7 C7          0.9212    3.7708   -0.2225 C.3       1 <0>         0.0525
      8 O1          1.8188    3.6779   -1.3306 O.3       1 <0>        -0.3589
      9 C8         -0.2499    1.0568   -0.3461 C.3       1 <0>        -0.1825
     10 C9         -0.2339   -0.3092   -1.0351 C.3       1 <0>        -0.0174
     11 C10        -1.9661    1.9148   -1.9188 C.ar      1 <0>        -0.1343
     12 C11        -2.1383    1.5918   -3.2521 C.ar      1 <0>        -0.0789
     13 C12        -3.4076    1.3774   -3.7537 C.ar      1 <0>        -0.2053
     14 C13        -4.5107    1.4980   -2.9210 C.ar      1 <0>         0.1380
     15 C14        -4.3355    1.8278   -1.5849 C.ar      1 <0>        -0.1482
     16 C15        -3.0638    2.0351   -1.0868 C.ar      1 <0>        -0.0740
     17 O2         -5.7607    1.2939   -3.4135 O.3       1 <0>        -0.3142
     18 C16        -5.8655    0.9575   -4.7984 C.3       1 <0>         0.0246
     19 C17         2.2243    1.3263   -0.9471 C.3       1 <0>        -0.2112
     20 H1          4.9318    2.8536   -3.3941 H         1 <0>         0.0592
     21 H2          4.1835    3.6791   -2.0060 H         1 <0>         0.0676
     22 H3          4.5676    1.9439   -1.9082 H         1 <0>         0.0531
     23 H4          2.8677    1.4243   -3.5840 H         1 <0>         0.0746
     24 H5          2.5507    3.1555   -3.8498 H         1 <0>         0.0755
     25 H6          0.4324    1.0959   -2.9638 H         1 <0>         0.0751
     26 H7          0.1717    2.8297   -3.2736 H         1 <0>         0.0897
     27 H8         -0.7931    4.2874   -1.4230 H         1 <0>         0.0858
     28 H9         -1.1906    3.5452    0.1465 H         1 <0>         0.0814
     29 H10         1.1895    3.0253    0.5261 H         1 <0>         0.0525
     30 H11         0.9870    4.7665    0.2161 H         1 <0>         0.1035
     31 H12         0.7290    1.2552    0.0903 H         1 <0>         0.1224
     32 H13        -1.0052    1.0585    0.4398 H         1 <0>         0.0920
     33 H14        -1.2387   -0.5545   -1.3790 H         1 <0>         0.1394
     34 H15         0.4445   -0.2781   -1.8877 H         1 <0>         0.1398
     35 H16        -0.3535   -1.3363    0.7451 H         1 <0>         0.4384
     36 H17         0.2409   -2.2439   -0.5155 H         1 <0>         0.4410
     37 H18        -1.2796    1.5030   -3.9011 H         1 <0>         0.1290
     38 H19        -3.5413    1.1204   -4.7941 H         1 <0>         0.1320
     39 H20        -5.1926    1.9219   -0.9346 H         1 <0>         0.1345
     40 H21        -2.9269    2.2919   -0.0467 H         1 <0>         0.1284
     41 H22        -6.9147    0.8220   -5.0610 H         1 <0>         0.1069
     42 H23        -5.4410    1.7608   -5.4006 H         1 <0>         0.0595
     43 H24        -5.3207    0.0331   -4.9899 H         1 <0>         0.0572
     44 H25         1.6291    0.4289   -1.1156 H         1 <0>         0.0533
     45 H26         3.2818    1.0876   -1.0608 H         1 <0>         0.0802
     46 H27         2.0423    1.6991    0.0609 H         1 <0>         0.0821
     47 N1          0.2448   -1.3234   -0.0792 N.4       1 <0>        -0.6478
     48 H28         1.2036   -1.0921    0.2063 H         1 <0>         0.4359
@<TRIPOS>BOND
     1    1    2 1
     2    1   20 1
     3    1   21 1
     4    1   22 1
     5    2    3 1
     6    2   23 1
     7    2   24 1
     8    3    8 1
     9    3    4 1
    10    3   19 1
    11    4    5 1
    12    4   25 1
    13    4   26 1
    14    5    6 1
    15    5    9 1
    16    5   11 1
    17    6    7 1
    18    6   27 1
    19    6   28 1
    20    7    8 1
    21    7   29 1
    22    7   30 1
    23    9   10 1
    24    9   31 1
    25    9   32 1
    26   10   33 1
    27   10   34 1
    28   10   47 1
    29   11   16 ar
    30   11   12 ar
    31   12   13 ar
    32   12   37 1
    33   13   14 ar
    34   13   38 1
    35   14   15 ar
    36   14   17 1
    37   15   16 ar
    38   15   39 1
    39   16   40 1
    40   17   18 1
    41   18   41 1
    42   18   42 1
    43   18   43 1
    44   19   44 1
    45   19   45 1
    46   19   46 1
    47   35   47 1
    48   36   47 1
    49   47   48 1
@<TRIPOS>MOLECULE
ZINC00171740
   48    49     0     0     0
SMALL
USER_CHARGES
2-[2-ethyl-4-(4-methoxyphenyl)-2-methyl-tetrahydropyran-4-yl]ethanamine
@<TRIPOS>ATOM
      1 C1         -7.5437    1.4959    0.0937 C.3       1 <0>        -0.1542
      2 C2         -6.2413    2.2908    0.2067 C.3       1 <0>        -0.1124
      3 C3         -5.0503    1.3365    0.0984 C.3       1 <0>         0.1177
      4 C4         -3.7493    2.1197    0.2928 C.3       1 <0>        -0.1442
      5 C5         -2.5656    1.1486    0.2430 C.3       1 <0>         0.0063
      6 C6         -2.7585    0.0678    1.3111 C.3       1 <0>        -0.1446
      7 C7         -4.0989   -0.6347    1.0787 C.3       1 <0>         0.0524
      8 O1         -5.1535    0.3292    1.1068 O.3       1 <0>        -0.3586
      9 C8         -2.4968    0.4960   -1.1391 C.3       1 <0>        -0.1803
     10 C9         -2.4023    1.5825   -2.2121 C.3       1 <0>        -0.0181
     11 C10        -1.2864    1.8990    0.5104 C.ar      1 <0>        -0.1344
     12 C11        -0.0930    1.2101    0.6240 C.ar      1 <0>        -0.0743
     13 C12         1.0820    1.8962    0.8630 C.ar      1 <0>        -0.1483
     14 C13         1.0629    3.2771    0.9947 C.ar      1 <0>         0.1380
     15 C14        -0.1366    3.9655    0.8861 C.ar      1 <0>        -0.2051
     16 C15        -1.3089    3.2748    0.6470 C.ar      1 <0>        -0.0787
     17 O2          2.2175    3.9544    1.2294 O.3       1 <0>        -0.3142
     18 C16         2.1226    5.3748    1.3539 C.3       1 <0>         0.0246
     19 C17        -5.0480    0.6780   -1.2826 C.3       1 <0>        -0.2120
     20 H1         -7.5510    0.9421   -0.8451 H         1 <0>         0.0539
     21 H2         -7.6170    0.7981    0.9278 H         1 <0>         0.0664
     22 H3         -8.3909    2.1813    0.1178 H         1 <0>         0.0583
     23 H4         -6.2104    2.8028    1.1685 H         1 <0>         0.0750
     24 H5         -6.1928    3.0251   -0.5974 H         1 <0>         0.0745
     25 H6         -3.7676    2.6223    1.2598 H         1 <0>         0.0897
     26 H7         -3.6467    2.8600   -0.5007 H         1 <0>         0.0752
     27 H8         -1.9487   -0.6587    1.2446 H         1 <0>         0.0815
     28 H9         -2.7563    0.5277    2.2993 H         1 <0>         0.0856
     29 H10        -4.2621   -1.3749    1.8620 H         1 <0>         0.1033
     30 H11        -4.0849   -1.1299    0.1078 H         1 <0>         0.0523
     31 H12        -1.6180   -0.1465   -1.1941 H         1 <0>         0.0917
     32 H13        -3.3940   -0.1007   -1.3042 H         1 <0>         0.1214
     33 H14        -3.2259    2.2860   -2.0904 H         1 <0>         0.1434
     34 H15        -1.4546    2.1115   -2.1109 H         1 <0>         0.1368
     35 H16        -3.3190    0.4147   -3.6383 H         1 <0>         0.4342
     36 H17        -2.4183    1.6622   -4.2692 H         1 <0>         0.4410
     37 H18        -0.0787    0.1351    0.5213 H         1 <0>         0.1284
     38 H19         2.0145    1.3580    0.9475 H         1 <0>         0.1345
     39 H20        -0.1540    5.0406    0.9879 H         1 <0>         0.1321
     40 H21        -2.2429    3.8102    0.5620 H         1 <0>         0.1291
     41 H22         1.4630    5.6234    2.1854 H         1 <0>         0.0595
     42 H23         3.1131    5.7903    1.5392 H         1 <0>         0.1069
     43 H24         1.7192    5.7942    0.4323 H         1 <0>         0.0572
     44 H25        -4.7979   -0.3780   -1.1811 H         1 <0>         0.0811
     45 H26        -6.0356    0.7758   -1.7334 H         1 <0>         0.0790
     46 H27        -4.3090    1.1672   -1.9171 H         1 <0>         0.0556
     47 N1         -2.4578    0.9501   -3.5418 N.4       1 <0>        -0.6476
     48 H28        -1.6562    0.3175   -3.6484 H         1 <0>         0.4407
@<TRIPOS>BOND
     1    1    2 1
     2    1   20 1
     3    1   21 1
     4    1   22 1
     5    2    3 1
     6    2   23 1
     7    2   24 1
     8    3    8 1
     9    3    4 1
    10    3   19 1
    11    4    5 1
    12    4   25 1
    13    4   26 1
    14    5    6 1
    15    5    9 1
    16    5   11 1
    17    6    7 1
    18    6   27 1
    19    6   28 1
    20    7    8 1
    21    7   29 1
    22    7   30 1
    23    9   10 1
    24    9   31 1
    25    9   32 1
    26   10   33 1
    27   10   34 1
    28   10   47 1
    29   11   16 ar
    30   11   12 ar
    31   12   13 ar
    32   12   37 1
    33   13   14 ar
    34   13   38 1
    35   14   15 ar
    36   14   17 1
    37   15   16 ar
    38   15   39 1
    39   16   40 1
    40   17   18 1
    41   18   41 1
    42   18   42 1
    43   18   43 1
    44   19   44 1
    45   19   45 1
    46   19   46 1
    47   35   47 1
    48   36   47 1
    49   47   48 1
@<TRIPOS>MOLECULE
ZINC00171743
   48    49     0     0     0
SMALL
USER_CHARGES
2-[2-ethyl-4-(4-methoxyphenyl)-2-methyl-tetrahydropyran-4-yl]ethanamine
@<TRIPOS>ATOM
      1 C1          0.7166   -0.6441    2.8159 C.3       1 <0>        -0.1656
      2 C2          0.4593    0.8547    2.6480 C.3       1 <0>        -0.1676
      3 C3         -0.3648    1.0919    1.3809 C.3       1 <0>         0.1166
      4 C4          0.0205    2.4400    0.7663 C.3       1 <0>        -0.1439
      5 C5         -0.3171    3.5590    1.7563 C.3       1 <0>         0.0063
      6 C6         -1.8066    3.4840    2.1061 C.3       1 <0>        -0.1439
      7 C7         -2.1213    2.0956    2.6690 C.3       1 <0>         0.0524
      8 O1         -1.7551    1.1002    1.7112 O.3       1 <0>        -0.3604
      9 C8          0.5164    3.3863    3.0276 C.3       1 <0>        -0.1923
     10 C9          2.0039    3.4302    2.6721 C.3       1 <0>        -0.0153
     11 C10        -0.0111    4.8953    1.1305 C.ar      1 <0>        -0.1337
     12 C11         0.4379    4.9590   -0.1757 C.ar      1 <0>        -0.0769
     13 C12         0.7138    6.1831   -0.7536 C.ar      1 <0>        -0.2039
     14 C13         0.5504    7.3483   -0.0186 C.ar      1 <0>         0.1376
     15 C14         0.1052    7.2813    1.2936 C.ar      1 <0>        -0.1487
     16 C15        -0.1743    6.0551    1.8652 C.ar      1 <0>        -0.0774
     17 O2          0.8264    8.5534   -0.5830 O.3       1 <0>        -0.3144
     18 C16         1.2806    8.5464   -1.9379 C.3       1 <0>         0.0244
     19 C17        -0.0861   -0.0261    0.3743 C.3       1 <0>        -0.1482
     20 H1         -0.2351   -1.1692    2.8978 H         1 <0>         0.0691
     21 H2          1.2645   -1.0179    1.9509 H         1 <0>         0.0679
     22 H3          1.3037   -0.8131    3.7186 H         1 <0>         0.0545
     23 H4          1.4110    1.3798    2.5661 H         1 <0>         0.0575
     24 H5         -0.0886    1.2284    3.5130 H         1 <0>         0.0900
     25 H6          1.0897    2.4515    0.5544 H         1 <0>         0.0754
     26 H7         -0.5366    2.5914   -0.1583 H         1 <0>         0.0901
     27 H8         -2.0441    4.2421    2.8524 H         1 <0>         0.0813
     28 H9         -2.4006    3.6575    1.2088 H         1 <0>         0.0855
     29 H10        -1.5574    1.9398    3.5887 H         1 <0>         0.0522
     30 H11        -3.1882    2.0221    2.8799 H         1 <0>         0.1038
     31 H12         0.2858    4.1912    3.7255 H         1 <0>         0.0923
     32 H13         0.2813    2.4271    3.4888 H         1 <0>         0.1282
     33 H14         2.2155    2.6883    1.9020 H         1 <0>         0.1372
     34 H15         2.2595    4.4225    2.3006 H         1 <0>         0.1390
     35 H16         3.7893    3.1578    3.6603 H         1 <0>         0.4409
     36 H17         2.5769    3.7700    4.6201 H         1 <0>         0.4382
     37 H18         0.5692    4.0513   -0.7460 H         1 <0>         0.1300
     38 H19         1.0606    6.2326   -1.7752 H         1 <0>         0.1323
     39 H20        -0.0231    8.1871    1.8677 H         1 <0>         0.1342
     40 H21        -0.5209    6.0024    2.8867 H         1 <0>         0.1274
     41 H22         2.2040    7.9715   -2.0086 H         1 <0>         0.0576
     42 H23         0.5204    8.0925   -2.5736 H         1 <0>         0.0596
     43 H24         1.4639    9.5699   -2.2650 H         1 <0>         0.1069
     44 H25        -0.3609   -0.9858    0.8120 H         1 <0>         0.0757
     45 H26         0.9743   -0.0320    0.1222 H         1 <0>         0.0717
     46 H27        -0.6733    0.1430   -0.5283 H         1 <0>         0.0680
     47 N1          2.7944    3.1113    3.8741 N.4       1 <0>        -0.6477
     48 H28         2.5632    2.1614    4.1879 H         1 <0>         0.4358
@<TRIPOS>BOND
     1    1    2 1
     2    1   20 1
     3    1   21 1
     4    1   22 1
     5    2    3 1
     6    2   23 1
     7    2   24 1
     8    3    8 1
     9    3    4 1
    10    3   19 1
    11    4    5 1
    12    4   25 1
    13    4   26 1
    14    5    6 1
    15    5    9 1
    16    5   11 1
    17    6    7 1
    18    6   27 1
    19    6   28 1
    20    7    8 1
    21    7   29 1
    22    7   30 1
    23    9   10 1
    24    9   31 1
    25    9   32 1
    26   10   33 1
    27   10   34 1
    28   10   47 1
    29   11   16 ar
    30   11   12 ar
    31   12   13 ar
    32   12   37 1
    33   13   14 ar
    34   13   38 1
    35   14   15 ar
    36   14   17 1
    37   15   16 ar
    38   15   39 1
    39   16   40 1
    40   17   18 1
    41   18   41 1
    42   18   42 1
    43   18   43 1
    44   19   44 1
    45   19   45 1
    46   19   46 1
    47   35   47 1
    48   36   47 1
    49   47   48 1
@<TRIPOS>MOLECULE
ZINC00596881
   40    42     0     0     0
SMALL
USER_CHARGES

@<TRIPOS>ATOM
      1 C1         -0.0167    1.3782    0.0096 C.ar      1 <0>        -0.0794
      2 C2          1.1706    2.0858    0.0021 C.ar      1 <0>        -0.1068
      3 C3          2.3780    1.4104   -0.0130 C.ar      1 <0>        -0.0208
      4 C4          2.3961    0.0270   -0.0206 C.ar      1 <0>        -0.1105
      5 C5          1.2082   -0.6795   -0.0130 C.ar      1 <0>        -0.0901
      6 C6          0.0021   -0.0041    0.0020 C.ar      1 <0>        -0.1009
      7 C7         -1.2928   -0.7750    0.0107 C.3       1 <0>         0.0968
      8 O1         -1.7154   -1.0114   -1.3338 O.3       1 <0>        -0.3551
      9 C8         -2.9406   -1.7395   -1.4384 C.3       1 <0>         0.1197
     10 H1         -3.5665   -1.5238   -0.5725 H         1 <0>         0.0940
     11 C9         -2.6400   -3.2388   -1.4897 C.3       1 <0>         0.0710
     12 N1         -2.0453   -3.6614   -0.2192 N.pl3     1 <0>        -0.4099
     13 C10        -0.7116   -3.6750    0.0885 C.2       1 <0>         0.0266
     14 C11        -0.6078   -4.1306    1.3515 C.2       1 <0>         0.0046
     15 N2         -1.8444   -4.3881    1.8027 N.pl3     1 <0>        -0.4724
     16 C12        -2.7109   -4.1046    0.8690 C.cat     1 <0>         0.2872
     17 C13        -3.6632   -1.3287   -2.6954 C.ar      1 <0>        -0.1001
     18 C14        -2.9524   -0.8197   -3.7662 C.ar      1 <0>        -0.0568
     19 C15        -3.6144   -0.4428   -4.9193 C.ar      1 <0>        -0.1022
     20 C16        -4.9894   -0.5752   -5.0028 C.ar      1 <0>        -0.0091
     21 C17        -5.7010   -1.0849   -3.9319 C.ar      1 <0>        -0.0991
     22 C18        -5.0372   -1.4665   -2.7796 C.ar      1 <0>        -0.0136
     23 Cl1        -5.9289   -2.1120   -1.4372 Cl        1 <0>        -0.0556
     24 Cl2        -5.8209   -0.1012   -6.4511 Cl        1 <0>        -0.0353
     25 Cl3         3.8696    2.2984   -0.0231 Cl        1 <0>        -0.0518
     26 H2         -0.9592    1.9053    0.0259 H         1 <0>         0.1348
     27 H3          1.1558    3.1656    0.0076 H         1 <0>         0.1411
     28 H4          3.3383   -0.5007   -0.0327 H         1 <0>         0.1400
     29 H5          1.2222   -1.7594   -0.0193 H         1 <0>         0.1247
     30 H6         -1.1447   -1.7283    0.5180 H         1 <0>         0.0524
     31 H7         -2.0551   -0.1989    0.5352 H         1 <0>         0.0693
     32 H8         -3.5655   -3.7893   -1.6585 H         1 <0>         0.1334
     33 H9         -1.9429   -3.4420   -2.3026 H         1 <0>         0.1396
     34 H10         0.1013   -3.3779   -0.5575 H         1 <0>         0.2229
     35 H11         0.3102   -4.2651    1.9043 H         1 <0>         0.2272
     36 H12        -3.7826   -4.2096    0.9518 H         1 <0>         0.2600
     37 H13        -1.8793   -0.7161   -3.7015 H         1 <0>         0.1537
     38 H14        -3.0587   -0.0445   -5.7553 H         1 <0>         0.1497
     39 H15        -6.7741   -1.1884   -3.9966 H         1 <0>         0.1535
     40 H16        -2.0608   -4.7279    2.6851 H         1 <0>         0.4672
@<TRIPOS>BOND
     1    1    6 ar
     2    1    2 ar
     3    1   26 1
     4    2    3 ar
     5    2   27 1
     6    3    4 ar
     7    3   25 1
     8    4    5 ar
     9    4   28 1
    10    5    6 ar
    11    5   29 1
    12    6    7 1
    13    7    8 1
    14    7   30 1
    15    7   31 1
    16    8    9 1
    17    9   10 1
    18    9   11 1
    19    9   17 1
    20   11   12 1
    21   11   32 1
    22   11   33 1
    23   12   16 1
    24   12   13 1
    25   13   14 2
    26   13   34 1
    27   14   15 1
    28   14   35 1
    29   15   16 2
    30   15   40 1
    31   16   36 1
    32   17   22 ar
    33   17   18 ar
    34   18   19 ar
    35   18   37 1
    36   19   20 ar
    37   19   38 1
    38   20   21 ar
    39   20   24 1
    40   21   22 ar
    41   21   39 1
    42   22   23 1
@<TRIPOS>MOLECULE
ZINC00596881
   39    41     0     0     0
SMALL
USER_CHARGES

@<TRIPOS>ATOM
      1 C1         -0.0167    1.3782    0.0096 C.ar      1 <0>        -0.0853
      2 C2          1.1706    2.0858    0.0021 C.ar      1 <0>        -0.1123
      3 C3          2.3780    1.4104   -0.0130 C.ar      1 <0>        -0.0269
      4 C4          2.3961    0.0270   -0.0206 C.ar      1 <0>        -0.1121
      5 C5          1.2082   -0.6795   -0.0130 C.ar      1 <0>        -0.0843
      6 C6          0.0021   -0.0041    0.0020 C.ar      1 <0>        -0.0843
      7 C7         -1.2928   -0.7750    0.0107 C.3       1 <0>         0.0875
      8 O1         -1.7154   -1.0114   -1.3338 O.3       1 <0>        -0.3630
      9 C8         -2.9406   -1.7395   -1.4384 C.3       1 <0>         0.1181
     10 H1         -3.5665   -1.5238   -0.5725 H         1 <0>         0.0885
     11 C9         -2.6400   -3.2388   -1.4897 C.3       1 <0>         0.0877
     12 N1         -2.0453   -3.6614   -0.2192 N.pl3     1 <0>        -0.4608
     13 C10        -0.7116   -3.6755    0.0884 C.2       1 <0>        -0.0532
     14 C11        -0.6078   -4.1309    1.3514 C.2       1 <0>        -0.0267
     15 N2         -1.8445   -4.3878    1.8028 N.2       1 <0>        -0.4883
     16 C12        -2.7109   -4.1042    0.8691 C.2       1 <0>         0.1826
     17 C13        -3.6632   -1.3287   -2.6954 C.ar      1 <0>        -0.0827
     18 C14        -2.9524   -0.8197   -3.7662 C.ar      1 <0>        -0.0617
     19 C15        -3.6144   -0.4428   -4.9193 C.ar      1 <0>        -0.1051
     20 C16        -4.9894   -0.5752   -5.0028 C.ar      1 <0>        -0.0176
     21 C17        -5.7010   -1.0849   -3.9319 C.ar      1 <0>        -0.1015
     22 C18        -5.0372   -1.4665   -2.7796 C.ar      1 <0>        -0.0168
     23 Cl1        -5.9289   -2.1120   -1.4372 Cl        1 <0>        -0.0503
     24 Cl2        -5.8209   -0.1012   -6.4511 Cl        1 <0>        -0.0495
     25 Cl3         3.8696    2.2984   -0.0231 Cl        1 <0>        -0.0658
     26 H2         -0.9592    1.9053    0.0259 H         1 <0>         0.1320
     27 H3          1.1558    3.1656    0.0076 H         1 <0>         0.1359
     28 H4          3.3383   -0.5007   -0.0327 H         1 <0>         0.1367
     29 H5          1.2222   -1.7594   -0.0193 H         1 <0>         0.1326
     30 H6         -1.1447   -1.7283    0.5180 H         1 <0>         0.0827
     31 H7         -2.0551   -0.1989    0.5352 H         1 <0>         0.0591
     32 H8         -3.5655   -3.7893   -1.6585 H         1 <0>         0.1065
     33 H9         -1.9429   -3.4420   -2.3026 H         1 <0>         0.1060
     34 H10         0.1013   -3.3788   -0.5578 H         1 <0>         0.1732
     35 H11         0.3102   -4.2656    1.9041 H         1 <0>         0.1708
     36 H12        -3.7827   -4.2087    0.9521 H         1 <0>         0.2027
     37 H13        -1.8793   -0.7161   -3.7015 H         1 <0>         0.1518
     38 H14        -3.0587   -0.0445   -5.7553 H         1 <0>         0.1448
     39 H15        -6.7741   -1.1884   -3.9966 H         1 <0>         0.1491
@<TRIPOS>BOND
     1    1    6 ar
     2    1    2 ar
     3    1   26 1
     4    2    3 ar
     5    2   27 1
     6    3    4 ar
     7    3   25 1
     8    4    5 ar
     9    4   28 1
    10    5    6 ar
    11    5   29 1
    12    6    7 1
    13    7    8 1
    14    7   30 1
    15    7   31 1
    16    8    9 1
    17    9   10 1
    18    9   11 1
    19    9   17 1
    20   11   12 1
    21   11   32 1
    22   11   33 1
    23   12   16 1
    24   12   13 1
    25   13   14 2
    26   13   34 1
    27   14   15 1
    28   14   35 1
    29   15   16 2
    30   16   36 1
    31   17   22 ar
    32   17   18 ar
    33   18   19 ar
    34   18   37 1
    35   19   20 ar
    36   19   38 1
    37   20   21 ar
    38   20   24 1
    39   21   22 ar
    40   21   39 1
    41   22   23 1
@<TRIPOS>MOLECULE
ZINC00643055
   40    42     0     0     0
SMALL
USER_CHARGES

@<TRIPOS>ATOM
      1 C1         -0.0167    1.3782    0.0096 C.ar      1 <0>        -0.0949
      2 C2          1.1706    2.0858    0.0021 C.ar      1 <0>        -0.1091
      3 C3          2.3780    1.4104   -0.0130 C.ar      1 <0>        -0.0205
      4 C4          2.3961    0.0270   -0.0206 C.ar      1 <0>        -0.1039
      5 C5          1.2082   -0.6795   -0.0130 C.ar      1 <0>        -0.0770
      6 C6          0.0021   -0.0041    0.0020 C.ar      1 <0>        -0.1018
      7 C7         -1.2928   -0.7750    0.0107 C.3       1 <0>         0.1013
      8 O1         -1.7154   -1.0114   -1.3338 O.3       1 <0>        -0.3567
      9 C8         -2.9406   -1.7395   -1.4384 C.3       1 <0>         0.1188
     10 H1         -3.0408   -2.4068   -0.5824 H         1 <0>         0.0975
     11 C9         -4.1156   -0.7599   -1.4618 C.3       1 <0>         0.0714
     12 N1         -4.1909   -0.0569   -0.1787 N.pl3     1 <0>        -0.4097
     13 C10        -4.8918   -0.4572    0.9269 C.2       1 <0>         0.0247
     14 C11        -4.6864    0.4749    1.8770 C.2       1 <0>         0.0095
     15 N2         -3.8820    1.4185    1.3655 N.pl3     1 <0>        -0.4752
     16 C12        -3.5771    1.1041    0.1362 C.cat     1 <0>         0.2860
     17 C13        -2.9365   -2.5496   -2.7091 C.ar      1 <0>        -0.1006
     18 C14        -2.1520   -2.1559   -3.7771 C.ar      1 <0>        -0.0575
     19 C15        -2.1478   -2.8983   -4.9428 C.ar      1 <0>        -0.1030
     20 C16        -2.9286   -4.0365   -5.0414 C.ar      1 <0>        -0.0088
     21 C17        -3.7134   -4.4311   -3.9731 C.ar      1 <0>        -0.0993
     22 C18        -3.7135   -3.6901   -2.8046 C.ar      1 <0>        -0.0136
     23 Cl1        -4.6936   -4.1880   -1.4610 Cl        1 <0>        -0.0519
     24 Cl2        -2.9236   -4.9686   -6.5059 Cl        1 <0>        -0.0354
     25 Cl3         3.8696    2.2984   -0.0231 Cl        1 <0>        -0.0493
     26 H2         -0.9592    1.9053    0.0259 H         1 <0>         0.1172
     27 H3          1.1558    3.1656    0.0076 H         1 <0>         0.1404
     28 H4          3.3383   -0.5007   -0.0327 H         1 <0>         0.1427
     29 H5          1.2222   -1.7594   -0.0193 H         1 <0>         0.1369
     30 H6         -1.1447   -1.7283    0.5180 H         1 <0>         0.0750
     31 H7         -2.0551   -0.1989    0.5352 H         1 <0>         0.0410
     32 H8         -3.9699   -0.0368   -2.2643 H         1 <0>         0.1365
     33 H9         -5.0424   -1.3082   -1.6306 H         1 <0>         0.1372
     34 H10        -5.4940   -1.3489    1.0193 H         1 <0>         0.2244
     35 H11        -5.0973    0.4644    2.8757 H         1 <0>         0.2275
     36 H12        -2.9414    1.6785   -0.5213 H         1 <0>         0.2571
     37 H13        -1.5424   -1.2677   -3.7007 H         1 <0>         0.1533
     38 H14        -1.5352   -2.5899   -5.7771 H         1 <0>         0.1495
     39 H15        -4.3230   -5.3193   -4.0495 H         1 <0>         0.1536
     40 H16        -3.5728    2.2082    1.8363 H         1 <0>         0.4667
@<TRIPOS>BOND
     1    1    6 ar
     2    1    2 ar
     3    1   26 1
     4    2    3 ar
     5    2   27 1
     6    3    4 ar
     7    3   25 1
     8    4    5 ar
     9    4   28 1
    10    5    6 ar
    11    5   29 1
    12    6    7 1
    13    7    8 1
    14    7   30 1
    15    7   31 1
    16    8    9 1
    17    9   10 1
    18    9   11 1
    19    9   17 1
    20   11   12 1
    21   11   32 1
    22   11   33 1
    23   12   16 1
    24   12   13 1
    25   13   14 2
    26   13   34 1
    27   14   15 1
    28   14   35 1
    29   15   16 2
    30   15   40 1
    31   16   36 1
    32   17   22 ar
    33   17   18 ar
    34   18   19 ar
    35   18   37 1
    36   19   20 ar
    37   19   38 1
    38   20   21 ar
    39   20   24 1
    40   21   22 ar
    41   21   39 1
    42   22   23 1
@<TRIPOS>MOLECULE
ZINC00643055
   39    41     0     0     0
SMALL
USER_CHARGES

@<TRIPOS>ATOM
      1 C1         -0.0167    1.3782    0.0096 C.ar      1 <0>        -0.0821
      2 C2          1.1706    2.0858    0.0021 C.ar      1 <0>        -0.1113
      3 C3          2.3780    1.4104   -0.0130 C.ar      1 <0>        -0.0264
      4 C4          2.3961    0.0270   -0.0206 C.ar      1 <0>        -0.1130
      5 C5          1.2082   -0.6795   -0.0130 C.ar      1 <0>        -0.0851
      6 C6          0.0021   -0.0041    0.0020 C.ar      1 <0>        -0.0860
      7 C7         -1.2928   -0.7750    0.0107 C.3       1 <0>         0.0901
      8 O1         -1.7154   -1.0114   -1.3338 O.3       1 <0>        -0.3634
      9 C8         -2.9406   -1.7395   -1.4384 C.3       1 <0>         0.1180
     10 H1         -3.0408   -2.4068   -0.5824 H         1 <0>         0.0887
     11 C9         -4.1156   -0.7599   -1.4618 C.3       1 <0>         0.0874
     12 N1         -4.1909   -0.0569   -0.1787 N.pl3     1 <0>        -0.4612
     13 C10        -4.8922   -0.4569    0.9267 C.2       1 <0>        -0.0564
     14 C11        -4.6866    0.4750    1.8769 C.2       1 <0>        -0.0247
     15 N2         -3.8818    1.4184    1.3656 N.2       1 <0>        -0.4886
     16 C12        -3.5768    1.1038    0.1364 C.2       1 <0>         0.1834
     17 C13        -2.9365   -2.5496   -2.7091 C.ar      1 <0>        -0.0828
     18 C14        -2.1520   -2.1559   -3.7771 C.ar      1 <0>        -0.0615
     19 C15        -2.1478   -2.8983   -4.9428 C.ar      1 <0>        -0.1050
     20 C16        -2.9286   -4.0365   -5.0414 C.ar      1 <0>        -0.0175
     21 C17        -3.7134   -4.4311   -3.9731 C.ar      1 <0>        -0.1018
     22 C18        -3.7135   -3.6901   -2.8046 C.ar      1 <0>        -0.0167
     23 Cl1        -4.6936   -4.1880   -1.4610 Cl        1 <0>        -0.0510
     24 Cl2        -2.9236   -4.9686   -6.5059 Cl        1 <0>        -0.0496
     25 Cl3         3.8696    2.2984   -0.0231 Cl        1 <0>        -0.0661
     26 H2         -0.9592    1.9053    0.0259 H         1 <0>         0.1332
     27 H3          1.1558    3.1656    0.0076 H         1 <0>         0.1371
     28 H4          3.3383   -0.5007   -0.0327 H         1 <0>         0.1358
     29 H5          1.2222   -1.7594   -0.0193 H         1 <0>         0.1319
     30 H6         -1.1447   -1.7283    0.5180 H         1 <0>         0.0601
     31 H7         -2.0551   -0.1989    0.5352 H         1 <0>         0.0791
     32 H8         -3.9699   -0.0368   -2.2643 H         1 <0>         0.1078
     33 H9         -5.0424   -1.3082   -1.6306 H         1 <0>         0.1051
     34 H10        -5.4948   -1.3484    1.0190 H         1 <0>         0.1736
     35 H11        -5.0977    0.4646    2.8755 H         1 <0>         0.1710
     36 H12        -2.9407    1.6780   -0.5210 H         1 <0>         0.2011
     37 H13        -1.5424   -1.2677   -3.7007 H         1 <0>         0.1526
     38 H14        -1.5352   -2.5899   -5.7771 H         1 <0>         0.1451
     39 H15        -4.3230   -5.3193   -4.0495 H         1 <0>         0.1489
@<TRIPOS>BOND
     1    1    6 ar
     2    1    2 ar
     3    1   26 1
     4    2    3 ar
     5    2   27 1
     6    3    4 ar
     7    3   25 1
     8    4    5 ar
     9    4   28 1
    10    5    6 ar
    11    5   29 1
    12    6    7 1
    13    7    8 1
    14    7   30 1
    15    7   31 1
    16    8    9 1
    17    9   10 1
    18    9   11 1
    19    9   17 1
    20   11   12 1
    21   11   32 1
    22   11   33 1
    23   12   16 1
    24   12   13 1
    25   13   14 2
    26   13   34 1
    27   14   15 1
    28   14   35 1
    29   15   16 2
    30   16   36 1
    31   17   22 ar
    32   17   18 ar
    33   18   19 ar
    34   18   37 1
    35   19   20 ar
    36   19   38 1
    37   20   21 ar
    38   20   24 1
    39   21   22 ar
    40   21   39 1
    41   22   23 1
@<TRIPOS>MOLECULE
ZINC00607971
   40    42     0     0     0
SMALL
USER_CHARGES

@<TRIPOS>ATOM
      1 C1         -0.0167    1.3792    0.0096 C.ar      1 <0>        -0.1007
      2 C2          1.1708    2.0869    0.0021 C.ar      1 <0>        -0.0710
      3 C3          2.3773    1.4131   -0.0135 C.ar      1 <0>        -0.0906
      4 C4          2.3974    0.0294   -0.0212 C.ar      1 <0>        -0.0206
      5 C5          1.2096   -0.6792   -0.0132 C.ar      1 <0>        -0.0973
      6 C6          0.0021   -0.0041    0.0020 C.ar      1 <0>        -0.0177
      7 Cl1        -1.4893   -0.8926    0.0121 Cl        1 <0>        -0.0399
      8 Cl2         3.9130   -0.8168   -0.0414 Cl        1 <0>        -0.0570
      9 C7          3.6714    2.1853   -0.0227 C.3       1 <0>         0.0967
     10 O1          3.3901    3.5863   -0.0128 O.3       1 <0>        -0.3585
     11 C8          4.5556    4.4132   -0.0205 C.3       1 <0>         0.1220
     12 H1          5.3616    3.9002   -0.5451 H         1 <0>         0.0957
     13 C9          4.9861    4.7010    1.4192 C.3       1 <0>         0.0716
     14 N1          5.4009    3.4525    2.0638 N.pl3     1 <0>        -0.4117
     15 C10         4.5959    2.5906    2.7585 C.2       1 <0>         0.0302
     16 C11         5.3789    1.5784    3.1778 C.2       1 <0>         0.0054
     17 N2          6.6280    1.8158    2.7507 N.pl3     1 <0>        -0.4718
     18 C12         6.6478    2.9340    2.0784 C.cat     1 <0>         0.2862
     19 C13         4.2462    5.7110   -0.7212 C.ar      1 <0>        -0.1000
     20 C14         2.9457    6.1775   -0.7692 C.ar      1 <0>        -0.0580
     21 C15         2.6612    7.3675   -1.4116 C.ar      1 <0>        -0.1019
     22 C16         3.6781    8.0931   -2.0070 C.ar      1 <0>        -0.0089
     23 C17         4.9794    7.6271   -1.9589 C.ar      1 <0>        -0.0983
     24 C18         5.2644    6.4381   -1.3114 C.ar      1 <0>        -0.0131
     25 Cl3         6.8983    5.8554   -1.2454 Cl        1 <0>        -0.0545
     26 Cl4         3.3204    9.5877   -2.8144 Cl        1 <0>        -0.0347
     27 H2         -0.9592    1.9062    0.0260 H         1 <0>         0.1470
     28 H3          1.1557    3.1667    0.0080 H         1 <0>         0.1515
     29 H4          1.2248   -1.7590   -0.0191 H         1 <0>         0.1506
     30 H5          4.2557    1.9258    0.8601 H         1 <0>         0.0625
     31 H6          4.2377    1.9347   -0.9198 H         1 <0>         0.0786
     32 H7          5.8203    5.4026    1.4156 H         1 <0>         0.1341
     33 H8          4.1501    5.1334    1.9689 H         1 <0>         0.1404
     34 H9          3.5364    2.7013    2.9365 H         1 <0>         0.2241
     35 H10         5.0575    0.7251    3.7566 H         1 <0>         0.2262
     36 H11         7.5177    3.3735    1.6130 H         1 <0>         0.2599
     37 H12         2.1518    5.6116   -0.3047 H         1 <0>         0.1528
     38 H13         1.6450    7.7312   -1.4494 H         1 <0>         0.1501
     39 H14         5.7734    8.1930   -2.4234 H         1 <0>         0.1537
     40 H15         7.3950    1.2444    2.9128 H         1 <0>         0.4669
@<TRIPOS>BOND
     1    1    6 ar
     2    1    2 ar
     3    1   27 1
     4    2    3 ar
     5    2   28 1
     6    3    4 ar
     7    3    9 1
     8    4    5 ar
     9    4    8 1
    10    5    6 ar
    11    5   29 1
    12    6    7 1
    13    9   10 1
    14    9   30 1
    15    9   31 1
    16   10   11 1
    17   11   12 1
    18   11   13 1
    19   11   19 1
    20   13   14 1
    21   13   32 1
    22   13   33 1
    23   14   18 1
    24   14   15 1
    25   15   16 2
    26   15   34 1
    27   16   17 1
    28   16   35 1
    29   17   18 2
    30   17   40 1
    31   18   36 1
    32   19   24 ar
    33   19   20 ar
    34   20   21 ar
    35   20   37 1
    36   21   22 ar
    37   21   38 1
    38   22   23 ar
    39   22   26 1
    40   23   24 ar
    41   23   39 1
    42   24   25 1
@<TRIPOS>MOLECULE
ZINC00607971
   39    41     0     0     0
SMALL
USER_CHARGES

@<TRIPOS>ATOM
      1 C1         -0.0167    1.3792    0.0096 C.ar      1 <0>        -0.1048
      2 C2          1.1708    2.0869    0.0021 C.ar      1 <0>        -0.0750
      3 C3          2.3773    1.4131   -0.0135 C.ar      1 <0>        -0.0723
      4 C4          2.3974    0.0294   -0.0212 C.ar      1 <0>        -0.0216
      5 C5          1.2096   -0.6792   -0.0132 C.ar      1 <0>        -0.0995
      6 C6          0.0021   -0.0041    0.0020 C.ar      1 <0>        -0.0247
      7 Cl1        -1.4893   -0.8926    0.0121 Cl        1 <0>        -0.0542
      8 Cl2         3.9130   -0.8168   -0.0414 Cl        1 <0>        -0.0471
      9 C7          3.6714    2.1853   -0.0227 C.3       1 <0>         0.0868
     10 O1          3.3901    3.5863   -0.0128 O.3       1 <0>        -0.3671
     11 C8          4.5556    4.4132   -0.0205 C.3       1 <0>         0.1203
     12 H1          5.3616    3.9002   -0.5451 H         1 <0>         0.0900
     13 C9          4.9861    4.7010    1.4192 C.3       1 <0>         0.0882
     14 N1          5.4009    3.4525    2.0638 N.pl3     1 <0>        -0.4624
     15 C10         4.5960    2.5909    2.7589 C.2       1 <0>        -0.0515
     16 C11         5.3790    1.5786    3.1781 C.2       1 <0>        -0.0235
     17 N2          6.6280    1.8156    2.7505 N.2       1 <0>        -0.4865
     18 C12         6.6477    2.9338    2.0780 C.2       1 <0>         0.1814
     19 C13         4.2462    5.7110   -0.7212 C.ar      1 <0>        -0.0826
     20 C14         2.9457    6.1775   -0.7692 C.ar      1 <0>        -0.0629
     21 C15         2.6612    7.3675   -1.4116 C.ar      1 <0>        -0.1048
     22 C16         3.6781    8.0931   -2.0070 C.ar      1 <0>        -0.0174
     23 C17         4.9794    7.6271   -1.9589 C.ar      1 <0>        -0.1007
     24 C18         5.2644    6.4381   -1.3114 C.ar      1 <0>        -0.0164
     25 Cl3         6.8983    5.8554   -1.2454 Cl        1 <0>        -0.0493
     26 Cl4         3.3204    9.5877   -2.8144 Cl        1 <0>        -0.0490
     27 H2         -0.9592    1.9062    0.0260 H         1 <0>         0.1420
     28 H3          1.1557    3.1667    0.0080 H         1 <0>         0.1492
     29 H4          1.2248   -1.7590   -0.0191 H         1 <0>         0.1470
     30 H5          4.2557    1.9258    0.8601 H         1 <0>         0.0957
     31 H6          4.2377    1.9347   -0.9198 H         1 <0>         0.0696
     32 H7          5.8203    5.4026    1.4156 H         1 <0>         0.1070
     33 H8          4.1501    5.1334    1.9689 H         1 <0>         0.1064
     34 H9          3.5366    2.7018    2.9373 H         1 <0>         0.1730
     35 H10         5.0576    0.7254    3.7570 H         1 <0>         0.1693
     36 H11         7.5175    3.3730    1.6123 H         1 <0>         0.2021
     37 H12         2.1518    5.6116   -0.3047 H         1 <0>         0.1508
     38 H13         1.6450    7.7312   -1.4494 H         1 <0>         0.1451
     39 H14         5.7734    8.1930   -2.4234 H         1 <0>         0.1494
@<TRIPOS>BOND
     1    1    6 ar
     2    1    2 ar
     3    1   27 1
     4    2    3 ar
     5    2   28 1
     6    3    4 ar
     7    3    9 1
     8    4    5 ar
     9    4    8 1
    10    5    6 ar
    11    5   29 1
    12    6    7 1
    13    9   10 1
    14    9   30 1
    15    9   31 1
    16   10   11 1
    17   11   12 1
    18   11   13 1
    19   11   19 1
    20   13   14 1
    21   13   32 1
    22   13   33 1
    23   14   18 1
    24   14   15 1
    25   15   16 2
    26   15   34 1
    27   16   17 1
    28   16   35 1
    29   17   18 2
    30   18   36 1
    31   19   24 ar
    32   19   20 ar
    33   20   21 ar
    34   20   37 1
    35   21   22 ar
    36   21   38 1
    37   22   23 ar
    38   22   26 1
    39   23   24 ar
    40   23   39 1
    41   24   25 1
@<TRIPOS>MOLECULE
ZINC00896740
   40    42     0     0     0
SMALL
USER_CHARGES

@<TRIPOS>ATOM
      1 C1         -0.0167    1.3792    0.0096 C.ar      1 <0>        -0.1004
      2 C2          1.1708    2.0869    0.0021 C.ar      1 <0>        -0.0703
      3 C3          2.3773    1.4131   -0.0135 C.ar      1 <0>        -0.0961
      4 C4          2.3974    0.0294   -0.0212 C.ar      1 <0>        -0.0232
      5 C5          1.2096   -0.6792   -0.0132 C.ar      1 <0>        -0.0971
      6 C6          0.0021   -0.0041    0.0020 C.ar      1 <0>        -0.0168
      7 Cl1        -1.4893   -0.8926    0.0121 Cl        1 <0>        -0.0380
      8 Cl2         3.9130   -0.8168   -0.0414 Cl        1 <0>        -0.0546
      9 C7          3.6714    2.1853   -0.0227 C.3       1 <0>         0.1018
     10 O1          3.3901    3.5863   -0.0128 O.3       1 <0>        -0.3602
     11 C8          4.5556    4.4132   -0.0205 C.3       1 <0>         0.1211
     12 H1          5.3720    3.8950    0.4825 H         1 <0>         0.0990
     13 C9          4.9569    4.7156   -1.4656 C.3       1 <0>         0.0723
     14 N1          5.3585    3.4737   -2.1309 N.pl3     1 <0>        -0.4122
     15 C10         6.6206    2.9454   -2.1716 C.2       1 <0>         0.0243
     16 C11         6.5424    1.8038   -2.8816 C.2       1 <0>         0.0093
     17 N2          5.2674    1.6394   -3.2640 N.pl3     1 <0>        -0.4746
     18 C12         4.5515    2.6333   -2.8137 C.cat     1 <0>         0.2904
     19 C13         4.2606    5.7038    0.6995 C.ar      1 <0>        -0.1005
     20 C14         2.9600    6.1639    0.7884 C.ar      1 <0>        -0.0587
     21 C15         2.6886    7.3473    1.4484 C.ar      1 <0>        -0.1027
     22 C16         3.7188    8.0723    2.0212 C.ar      1 <0>        -0.0086
     23 C17         5.0201    7.6123    1.9331 C.ar      1 <0>        -0.0985
     24 C18         5.2906    6.4250    1.2763 C.ar      1 <0>        -0.0132
     25 Cl3         6.9229    5.8437    1.1703 Cl        1 <0>        -0.0508
     26 Cl4         3.3778    9.5592    2.8499 Cl        1 <0>        -0.0349
     27 H2         -0.9592    1.9062    0.0260 H         1 <0>         0.1480
     28 H3          1.1557    3.1667    0.0080 H         1 <0>         0.1529
     29 H4          1.2248   -1.7590   -0.0191 H         1 <0>         0.1512
     30 H5          4.2557    1.9258    0.8601 H         1 <0>         0.0836
     31 H6          4.2377    1.9347   -0.9198 H         1 <0>         0.0506
     32 H7          4.1099    5.1534   -1.9939 H         1 <0>         0.1372
     33 H8          5.7910    5.4172   -1.4718 H         1 <0>         0.1376
     34 H9          7.5085    3.3639   -1.7212 H         1 <0>         0.2241
     35 H10         7.3626    1.1373   -3.1041 H         1 <0>         0.2266
     36 H11         3.4900    2.7635   -2.9643 H         1 <0>         0.2586
     37 H12         2.1557    5.5984    0.3415 H         1 <0>         0.1524
     38 H13         1.6724    7.7066    1.5169 H         1 <0>         0.1499
     39 H14         5.8245    8.1778    2.3799 H         1 <0>         0.1538
     40 H15         4.9299    0.8970   -3.7893 H         1 <0>         0.4666
@<TRIPOS>BOND
     1    1    6 ar
     2    1    2 ar
     3    1   27 1
     4    2    3 ar
     5    2   28 1
     6    3    4 ar
     7    3    9 1
     8    4    5 ar
     9    4    8 1
    10    5    6 ar
    11    5   29 1
    12    6    7 1
    13    9   10 1
    14    9   30 1
    15    9   31 1
    16   10   11 1
    17   11   12 1
    18   11   13 1
    19   11   19 1
    20   13   14 1
    21   13   32 1
    22   13   33 1
    23   14   18 1
    24   14   15 1
    25   15   16 2
    26   15   34 1
    27   16   17 1
    28   16   35 1
    29   17   18 2
    30   17   40 1
    31   18   36 1
    32   19   24 ar
    33   19   20 ar
    34   20   21 ar
    35   20   37 1
    36   21   22 ar
    37   21   38 1
    38   22   23 ar
    39   22   26 1
    40   23   24 ar
    41   23   39 1
    42   24   25 1
@<TRIPOS>MOLECULE
ZINC00896740
   39    41     0     0     0
SMALL
USER_CHARGES

@<TRIPOS>ATOM
      1 C1         -0.0167    1.3792    0.0096 C.ar      1 <0>        -0.1052
      2 C2          1.1708    2.0869    0.0021 C.ar      1 <0>        -0.0748
      3 C3          2.3773    1.4131   -0.0135 C.ar      1 <0>        -0.0741
      4 C4          2.3974    0.0294   -0.0212 C.ar      1 <0>        -0.0187
      5 C5          1.2096   -0.6792   -0.0132 C.ar      1 <0>        -0.0996
      6 C6          0.0021   -0.0041    0.0020 C.ar      1 <0>        -0.0239
      7 Cl1        -1.4893   -0.8926    0.0121 Cl        1 <0>        -0.0543
      8 Cl2         3.9130   -0.8168   -0.0414 Cl        1 <0>        -0.0473
      9 C7          3.6714    2.1853   -0.0227 C.3       1 <0>         0.0894
     10 O1          3.3901    3.5863   -0.0128 O.3       1 <0>        -0.3675
     11 C8          4.5556    4.4132   -0.0205 C.3       1 <0>         0.1203
     12 H1          5.3720    3.8950    0.4825 H         1 <0>         0.0901
     13 C9          4.9569    4.7156   -1.4656 C.3       1 <0>         0.0880
     14 N1          5.3585    3.4737   -2.1309 N.pl3     1 <0>        -0.4630
     15 C10         6.6207    2.9457   -2.1720 C.2       1 <0>        -0.0578
     16 C11         6.5425    1.8039   -2.8819 C.2       1 <0>        -0.0235
     17 N2          5.2673    1.6393   -3.2638 N.2       1 <0>        -0.4848
     18 C12         4.5514    2.6330   -2.8133 C.2       1 <0>         0.1858
     19 C13         4.2606    5.7038    0.6995 C.ar      1 <0>        -0.0827
     20 C14         2.9600    6.1639    0.7884 C.ar      1 <0>        -0.0627
     21 C15         2.6886    7.3473    1.4484 C.ar      1 <0>        -0.1047
     22 C16         3.7188    8.0723    2.0212 C.ar      1 <0>        -0.0173
     23 C17         5.0201    7.6123    1.9331 C.ar      1 <0>        -0.1010
     24 C18         5.2906    6.4250    1.2763 C.ar      1 <0>        -0.0164
     25 Cl3         6.9229    5.8437    1.1703 Cl        1 <0>        -0.0500
     26 Cl4         3.3778    9.5592    2.8499 Cl        1 <0>        -0.0491
     27 H2         -0.9592    1.9062    0.0260 H         1 <0>         0.1422
     28 H3          1.1557    3.1667    0.0080 H         1 <0>         0.1496
     29 H4          1.2248   -1.7590   -0.0191 H         1 <0>         0.1469
     30 H5          4.2557    1.9258    0.8601 H         1 <0>         0.0703
     31 H6          4.2377    1.9347   -0.9198 H         1 <0>         0.0923
     32 H7          4.1099    5.1534   -1.9939 H         1 <0>         0.1081
     33 H8          5.7910    5.4172   -1.4718 H         1 <0>         0.1055
     34 H9          7.5086    3.3644   -1.7220 H         1 <0>         0.1730
     35 H10         7.3627    1.1376   -3.1046 H         1 <0>         0.1698
     36 H11         3.4898    2.7630   -2.9636 H         1 <0>         0.2009
     37 H12         2.1557    5.5984    0.3415 H         1 <0>         0.1516
     38 H13         1.6724    7.7066    1.5169 H         1 <0>         0.1454
     39 H14         5.8245    8.1778    2.3799 H         1 <0>         0.1491
@<TRIPOS>BOND
     1    1    6 ar
     2    1    2 ar
     3    1   27 1
     4    2    3 ar
     5    2   28 1
     6    3    4 ar
     7    3    9 1
     8    4    5 ar
     9    4    8 1
    10    5    6 ar
    11    5   29 1
    12    6    7 1
    13    9   10 1
    14    9   30 1
    15    9   31 1
    16   10   11 1
    17   11   12 1
    18   11   13 1
    19   11   19 1
    20   13   14 1
    21   13   32 1
    22   13   33 1
    23   14   18 1
    24   14   15 1
    25   15   16 2
    26   15   34 1
    27   16   17 1
    28   16   35 1
    29   17   18 2
    30   18   36 1
    31   19   24 ar
    32   19   20 ar
    33   20   21 ar
    34   20   37 1
    35   21   22 ar
    36   21   38 1
    37   22   23 ar
    38   22   26 1
    39   23   24 ar
    40   23   39 1
    41   24   25 1
