@<TRIPOS>MOLECULE
ZINC03807804
   42    45     0     0     0
SMALL
USER_CHARGES

@<TRIPOS>ATOM
      1 C1         -0.1404    1.0961   -0.4391 C.ar      1 <0>        -0.1020
      2 C2          0.9979    1.8788   -0.4898 C.ar      1 <0>        -0.1176
      3 C3          2.2443    1.2953   -0.3597 C.ar      1 <0>        -0.1015
      4 C4          2.3524   -0.0709   -0.1784 C.ar      1 <0>        -0.0957
      5 C5          1.2140   -0.8534   -0.1268 C.ar      1 <0>        -0.0879
      6 C6         -0.0323   -0.2701   -0.2583 C.ar      1 <0>        -0.1206
      7 C7          3.7112   -0.7071   -0.0376 C.3       1 <0>         0.3033
      8 C8          3.5548   -2.1991    0.1055 C.ar      1 <0>        -0.0980
      9 C9          4.1018   -3.0454   -0.8408 C.ar      1 <0>        -0.0924
     10 C10         3.9584   -4.4140   -0.7096 C.ar      1 <0>        -0.1192
     11 C11         3.2684   -4.9364    0.3683 C.ar      1 <0>        -0.1040
     12 C12         2.7222   -4.0902    1.3152 C.ar      1 <0>        -0.1220
     13 C13         2.8693   -2.7218    1.1862 C.ar      1 <0>        -0.0909
     14 C14         4.5372   -0.4037   -1.2609 C.ar      1 <0>        -0.0899
     15 C15         5.7856    0.1744   -1.1262 C.ar      1 <0>        -0.0993
     16 C16         6.5434    0.4528   -2.2482 C.ar      1 <0>        -0.1105
     17 C17         6.0533    0.1533   -3.5058 C.ar      1 <0>        -0.0985
     18 C18         4.8053   -0.4246   -3.6418 C.ar      1 <0>        -0.1111
     19 C19         4.0487   -0.7087   -2.5187 C.ar      1 <0>        -0.0192
     20 Cl1         2.4837   -1.4408   -2.6883 Cl        1 <0>        -0.0484
     21 N1          4.3811   -0.1702    1.1495 N.pl3     1 <0>        -0.4460
     22 C20         5.5751   -0.5924    1.6690 C.2       1 <0>        -0.0513
     23 C21         5.8188    0.1680    2.7534 C.2       1 <0>        -0.0258
     24 N2          4.8014    1.0309    2.8923 N.2       1 <0>        -0.4890
     25 C22         3.9390    0.8376    1.9322 C.2       1 <0>         0.1875
     26 H1         -1.1143    1.5526   -0.5363 H         1 <0>         0.1257
     27 H2          0.9135    2.9461   -0.6315 H         1 <0>         0.1275
     28 H3          3.1337    1.9067   -0.4001 H         1 <0>         0.1221
     29 H4          1.2985   -1.9209    0.0142 H         1 <0>         0.1329
     30 H5         -0.9216   -0.8816   -0.2183 H         1 <0>         0.1255
     31 H6          4.6409   -2.6372   -1.6830 H         1 <0>         0.1253
     32 H7          4.3851   -5.0750   -1.4493 H         1 <0>         0.1258
     33 H8          3.1557   -6.0056    0.4705 H         1 <0>         0.1257
     34 H9          2.1828   -4.4983    2.1571 H         1 <0>         0.1266
     35 H10         2.4458   -2.0608    1.9279 H         1 <0>         0.1217
     36 H11         6.1689    0.4089   -0.1441 H         1 <0>         0.1411
     37 H12         7.5185    0.9047   -2.1424 H         1 <0>         0.1336
     38 H13         6.6456    0.3714   -4.3821 H         1 <0>         0.1361
     39 H14         4.4225   -0.6582   -4.6243 H         1 <0>         0.1382
     40 H15         6.2011   -1.3835    1.2836 H         1 <0>         0.1702
     41 H16         6.6821    0.0956    3.3983 H         1 <0>         0.1703
     42 H17         3.0222    1.3901    1.7888 H         1 <0>         0.2017
@<TRIPOS>BOND
     1    1    6 ar
     2    1    2 ar
     3    1   26 1
     4    2    3 ar
     5    2   27 1
     6    3    4 ar
     7    3   28 1
     8    4    5 ar
     9    4    7 1
    10    5    6 ar
    11    5   29 1
    12    6   30 1
    13    7    8 1
    14    7   14 1
    15    7   21 1
    16    8   13 ar
    17    8    9 ar
    18    9   10 ar
    19    9   31 1
    20   10   11 ar
    21   10   32 1
    22   11   12 ar
    23   11   33 1
    24   12   13 ar
    25   12   34 1
    26   13   35 1
    27   14   19 ar
    28   14   15 ar
    29   15   16 ar
    30   15   36 1
    31   16   17 ar
    32   16   37 1
    33   17   18 ar
    34   17   38 1
    35   18   19 ar
    36   18   39 1
    37   19   20 1
    38   21   25 1
    39   21   22 1
    40   22   23 2
    41   22   40 1
    42   23   24 1
    43   23   41 1
    44   24   25 2
    45   25   42 1
@<TRIPOS>MOLECULE
ZINC03807804
   43    46     0     0     0
SMALL
USER_CHARGES

@<TRIPOS>ATOM
      1 C1          0.5987    1.7832    1.4981 C.ar      1 <0>        -0.0892
      2 C2          0.3739    1.0091    0.3751 C.ar      1 <0>        -0.1131
      3 C3          1.3811    0.2033   -0.1220 C.ar      1 <0>        -0.1073
      4 C4          2.6134    0.1720    0.5037 C.ar      1 <0>        -0.1169
      5 C5          2.8385    0.9468    1.6262 C.ar      1 <0>        -0.0809
      6 C6          1.8308    1.7515    2.1240 C.ar      1 <0>        -0.1100
      7 C7          3.7112   -0.7071   -0.0376 C.3       1 <0>         0.3108
      8 C8          4.1045   -0.2308   -1.4122 C.ar      1 <0>        -0.1114
      9 C9          4.1390   -1.1216   -2.4687 C.ar      1 <0>        -0.1224
     10 C10         4.4997   -0.6846   -3.7296 C.ar      1 <0>        -0.1050
     11 C11         4.8255    0.6431   -3.9340 C.ar      1 <0>        -0.0966
     12 C12         4.7901    1.5341   -2.8777 C.ar      1 <0>        -0.1040
     13 C13         4.4252    1.0980   -1.6177 C.ar      1 <0>        -0.0870
     14 C14         4.9061   -0.6400    0.8783 C.ar      1 <0>        -0.1243
     15 C15         6.0946   -0.0984    0.4255 C.ar      1 <0>        -0.0806
     16 C16         7.1906   -0.0368    1.2654 C.ar      1 <0>        -0.1064
     17 C17         7.0990   -0.5167    2.5588 C.ar      1 <0>        -0.0779
     18 C18         5.9114   -1.0584    3.0126 C.ar      1 <0>        -0.1060
     19 C19         4.8121   -1.1151    2.1740 C.ar      1 <0>        -0.0235
     20 Cl1         3.3179   -1.7894    2.7455 Cl        1 <0>        -0.0546
     21 N1          3.2345   -2.0901   -0.1178 N.pl3     1 <0>        -0.3928
     22 C20         1.9543   -2.5219    0.1018 C.2       1 <0>         0.0325
     23 C21         1.9573   -3.8567   -0.0767 C.2       1 <0>         0.0033
     24 N2          3.2053   -4.2297   -0.3965 N.pl3     1 <0>        -0.4715
     25 C22         3.9747   -3.1761   -0.4280 C.cat     1 <0>         0.2859
     26 H1         -0.1868    2.4161    1.8838 H         1 <0>         0.1340
     27 H2         -0.5889    1.0335   -0.1137 H         1 <0>         0.1343
     28 H3          1.2053   -0.4020   -0.9989 H         1 <0>         0.1246
     29 H4          3.8010    0.9218    2.1154 H         1 <0>         0.1290
     30 H5          2.0066    2.3566    3.0012 H         1 <0>         0.1338
     31 H6          3.8845   -2.1589   -2.3090 H         1 <0>         0.1110
     32 H7          4.5274   -1.3807   -4.5549 H         1 <0>         0.1325
     33 H8          5.1080    0.9843   -4.9190 H         1 <0>         0.1349
     34 H9          5.0450    2.5713   -3.0374 H         1 <0>         0.1371
     35 H10         4.3939    1.7949   -0.7931 H         1 <0>         0.1317
     36 H11         6.1669    0.2763   -0.5848 H         1 <0>         0.1476
     37 H12         8.1191    0.3861    0.9110 H         1 <0>         0.1431
     38 H13         7.9558   -0.4686    3.2145 H         1 <0>         0.1451
     39 H14         5.8400   -1.4335    4.0228 H         1 <0>         0.1446
     40 H15         1.1050   -1.9099    0.3675 H         1 <0>         0.2211
     41 H16         1.1044   -4.5120    0.0207 H         1 <0>         0.2258
     42 H17         5.0293   -3.1735   -0.6609 H         1 <0>         0.2540
     43 H18         3.4903   -5.1387   -0.5793 H         1 <0>         0.4647
@<TRIPOS>BOND
     1    1    6 ar
     2    1    2 ar
     3    1   26 1
     4    2    3 ar
     5    2   27 1
     6    3    4 ar
     7    3   28 1
     8    4    5 ar
     9    4    7 1
    10    5    6 ar
    11    5   29 1
    12    6   30 1
    13    7    8 1
    14    7   14 1
    15    7   21 1
    16    8   13 ar
    17    8    9 ar
    18    9   10 ar
    19    9   31 1
    20   10   11 ar
    21   10   32 1
    22   11   12 ar
    23   11   33 1
    24   12   13 ar
    25   12   34 1
    26   13   35 1
    27   14   19 ar
    28   14   15 ar
    29   15   16 ar
    30   15   36 1
    31   16   17 ar
    32   16   37 1
    33   17   18 ar
    34   17   38 1
    35   18   19 ar
    36   18   39 1
    37   19   20 1
    38   21   25 1
    39   21   22 1
    40   22   23 2
    41   22   40 1
    42   23   24 1
    43   23   41 1
    44   24   25 2
    45   24   43 1
    46   25   42 1
@<TRIPOS>MOLECULE
ZINC03873936
   68    72     0     0     0
SMALL
USER_CHARGES
1-[4-[[2-(2,4-dichlorophenyl)-2-(1,2,4-triazol-1-ylmethyl)-1,3-dioxolan-4-yl]methoxy]phenyl]-4-isopropyl-piperazine
@<TRIPOS>ATOM
      1 C1          6.1690    0.6138   -0.7308 C.3       1 <0>        -0.1853
      2 C2          4.8123    0.0880   -0.2578 C.3       1 <0>         0.0286
      3 C3          4.5306    0.6021    1.1554 C.3       1 <0>        -0.1814
      4 C4          2.4581   -0.0236   -0.8148 C.3       1 <0>         0.0002
      5 C5          1.4073    0.4270   -1.8323 C.3       1 <0>         0.0213
      6 N1          1.3389    1.8949   -1.8445 N.pl3     1 <0>        -0.4817
      7 C6          2.6411    2.4770   -2.1985 C.3       1 <0>         0.0259
      8 C7          3.6918    2.0264   -1.1810 C.3       1 <0>        -0.0060
      9 C8          0.3367    2.3431   -2.7123 C.ar      1 <0>         0.0456
     10 C9         -0.4276    1.4271   -3.4228 C.ar      1 <0>        -0.1188
     11 C10        -1.4210    1.8700   -4.2740 C.ar      1 <0>        -0.1856
     12 C11        -1.6467    3.2298   -4.4289 C.ar      1 <0>         0.1328
     13 C12        -0.8795    4.1456   -3.7242 C.ar      1 <0>        -0.1229
     14 C13         0.1098    3.7042   -2.8676 C.ar      1 <0>        -0.0843
     15 O1         -2.6210    3.6653   -5.2719 O.3       1 <0>        -0.2970
     16 C14        -3.3725    2.6672   -5.9655 C.3       1 <0>         0.0663
     17 C15        -4.4141    3.3428   -6.8598 C.3       1 <0>         0.0483
     18 H1         -3.9348    4.0365   -7.5506 H         1 <0>         0.1033
     19 C16        -5.2445    2.2849   -7.6285 C.3       1 <0>         0.0205
     20 O2         -6.4825    2.9975   -7.8647 O.3       1 <0>        -0.3386
     21 C17        -6.6787    3.7946   -6.6846 C.3       1 <0>         0.2977
     22 O3         -5.4066    4.0209   -6.0634 O.3       1 <0>        -0.3284
     23 C18        -7.6012    3.0559   -5.7129 C.3       1 <0>         0.1129
     24 N2         -7.8493    3.8975   -4.5397 N.pl3     1 <0>        -0.3737
     25 C19        -9.0447    4.3016   -4.0764 C.2       1 <0>         0.2569
     26 N3         -8.8409    5.0357   -3.0128 N.2       1 <0>        -0.5378
     27 C20        -7.5341    5.1225   -2.7672 C.2       1 <0>         0.1931
     28 N4         -6.8858    4.4374   -3.6721 N.2       1 <0>        -0.2916
     29 C21        -7.2995    5.1147   -7.0627 C.ar      1 <0>        -0.0995
     30 C22        -6.7207    6.2969   -6.6401 C.ar      1 <0>        -0.0539
     31 C23        -7.2892    7.5078   -6.9868 C.ar      1 <0>        -0.1085
     32 C24        -8.4383    7.5377   -7.7573 C.ar      1 <0>        -0.0102
     33 C25        -9.0178    6.3553   -8.1805 C.ar      1 <0>        -0.1064
     34 C26        -8.4452    5.1434   -7.8375 C.ar      1 <0>        -0.0042
     35 Cl1        -9.1681    3.6590   -8.3737 Cl        1 <0>        -0.0395
     36 Cl2        -9.1526    9.0590   -8.1923 Cl        1 <0>        -0.0457
     37 H2          6.1543    1.7037   -0.7369 H         1 <0>         0.0815
     38 H3          6.9497    0.2647   -0.0549 H         1 <0>         0.1067
     39 H4          6.3697    0.2476   -1.7377 H         1 <0>         0.0803
     40 H5          4.8270   -1.0018   -0.2518 H         1 <0>         0.1362
     41 H6          4.5159    1.6920    1.1493 H         1 <0>         0.0816
     42 H7          3.5640    0.2276    1.4924 H         1 <0>         0.0809
     43 H8          5.3112    0.2531    1.8313 H         1 <0>         0.1051
     44 H9          2.1680    0.3126    0.1807 H         1 <0>         0.1410
     45 H10         2.5311   -1.1111   -0.8248 H         1 <0>         0.1363
     46 H11         0.4349    0.0200   -1.5553 H         1 <0>         0.1279
     47 H12         1.6834    0.0676   -2.8236 H         1 <0>         0.0689
     48 H13         2.9311    2.1408   -3.1940 H         1 <0>         0.0672
     49 H14         2.5681    3.5645   -2.1885 H         1 <0>         0.1269
     50 H15         3.4158    2.3859   -0.1897 H         1 <0>         0.1419
     51 H16         4.6644    2.4334   -1.4576 H         1 <0>         0.1378
     52 H17        -0.2486    0.3684   -3.3063 H         1 <0>         0.1285
     53 H18        -2.0190    1.1576   -4.8228 H         1 <0>         0.1320
     54 H19        -1.0562    5.2042   -3.8451 H         1 <0>         0.1405
     55 H20         0.7066    4.4174   -2.3184 H         1 <0>         0.1349
     56 H21        -2.7005    2.0677   -6.5795 H         1 <0>         0.0819
     57 H22        -3.8758    2.0242   -5.2435 H         1 <0>         0.0753
     58 H23        -4.7622    2.0182   -8.5689 H         1 <0>         0.1241
     59 H24        -5.4144    1.4005   -7.0143 H         1 <0>         0.0843
     60 H25        -8.5468    2.8338   -6.2073 H         1 <0>         0.1234
     61 H26        -7.1280    2.1254   -5.3990 H         1 <0>         0.0993
     62 H27       -10.0058    4.0626   -4.5073 H         1 <0>         0.2146
     63 H28        -7.0839    5.6669   -1.9503 H         1 <0>         0.2146
     64 H29        -5.8242    6.2740   -6.0384 H         1 <0>         0.1506
     65 H30        -6.8364    8.4311   -6.6566 H         1 <0>         0.1443
     66 H31        -9.9148    6.3782   -8.7816 H         1 <0>         0.1504
     67 N5          3.7662    0.5503   -1.1948 N.4       1 <0>        -0.3955
     68 H32         4.0055    0.2371   -2.1429 H         1 <0>         0.4243
@<TRIPOS>BOND
     1    1    2 1
     2    1   37 1
     3    1   38 1
     4    1   39 1
     5    2    3 1
     6    2   40 1
     7    2   67 1
     8    3   41 1
     9    3   42 1
    10    3   43 1
    11    4    5 1
    12    4   44 1
    13    4   45 1
    14    4   67 1
    15    5    6 1
    16    5   46 1
    17    5   47 1
    18    6    7 1
    19    6    9 1
    20    7    8 1
    21    7   48 1
    22    7   49 1
    23    8   50 1
    24    8   51 1
    25    8   67 1
    26    9   14 ar
    27    9   10 ar
    28   10   11 ar
    29   10   52 1
    30   11   12 ar
    31   11   53 1
    32   12   13 ar
    33   12   15 1
    34   13   14 ar
    35   13   54 1
    36   14   55 1
    37   15   16 1
    38   16   17 1
    39   16   56 1
    40   16   57 1
    41   17   18 1
    42   17   22 1
    43   17   19 1
    44   19   20 1
    45   19   58 1
    46   19   59 1
    47   20   21 1
    48   21   22 1
    49   21   23 1
    50   21   29 1
    51   23   24 1
    52   23   60 1
    53   23   61 1
    54   24   28 1
    55   24   25 1
    56   25   26 2
    57   25   62 1
    58   26   27 1
    59   27   28 2
    60   27   63 1
    61   29   34 ar
    62   29   30 ar
    63   30   31 ar
    64   30   64 1
    65   31   32 ar
    66   31   65 1
    67   32   33 ar
    68   32   36 1
    69   33   34 ar
    70   33   66 1
    71   34   35 1
    72   67   68 1
@<TRIPOS>MOLECULE
ZINC04097343
   87    93     0     0     0
SMALL
USER_CHARGES
4-[4-[4-[4-[[2-(2,4-dichlorophenyl)-2-(1,2,4-triazol-1-ylmethyl)-1,3-dioxolan-4-yl]methoxy]phenyl]piperazin-1-yl]phenyl]-2-sec-butyl-1,2,4-triazol-3-one
@<TRIPOS>ATOM
      1 C1          4.1679   -0.8173    1.3405 C.3       1 <0>        -0.1508
      2 C2          3.6502   -0.4775    2.7396 C.3       1 <0>        -0.1337
      3 C3          3.4116    1.0303    2.8428 C.3       1 <0>         0.1820
      4 H1          2.7428    1.3479    2.0429 H         1 <0>         0.1085
      5 C4          2.7775    1.3548    4.1969 C.3       1 <0>        -0.1628
      6 N1          4.6894    1.7364    2.7202 N.am      1 <0>        -0.4408
      7 C5          5.0145    2.6429    1.7751 C.2       1 <0>         0.6462
      8 O1          4.2993    3.0247    0.8658 O.2       1 <0>        -0.5423
      9 N2          6.2765    3.0479    2.0217 N.am      1 <0>        -0.4985
     10 C6          6.7345    2.3815    3.1338 C.2       1 <0>         0.2486
     11 N3          5.7983    1.5997    3.5666 N.2       1 <0>        -0.2636
     12 C7          6.9992    3.9887    1.2716 C.ar      1 <0>         0.1258
     13 C8          6.4173    4.5863    0.1618 C.ar      1 <0>        -0.1052
     14 C9          7.1260    5.5153   -0.5734 C.ar      1 <0>        -0.1421
     15 C10         8.4255    5.8439   -0.2091 C.ar      1 <0>         0.1042
     16 C11         9.0093    5.2419    0.8981 C.ar      1 <0>        -0.1131
     17 C12         8.2978    4.3172    1.6362 C.ar      1 <0>        -0.1125
     18 N4          9.1457    6.7809   -0.9568 N.pl3     1 <0>        -0.4886
     19 C13         9.6162    7.8835   -0.1068 C.3       1 <0>         0.0577
     20 C14        10.4646    8.8435   -0.9441 C.3       1 <0>         0.0575
     21 N5          9.6619    9.3521   -2.0651 N.pl3     1 <0>        -0.4877
     22 C15         9.1914    8.2495   -2.9151 C.3       1 <0>         0.0520
     23 C16         8.3430    7.2896   -2.0778 C.3       1 <0>         0.0495
     24 C17        10.3826   10.2897   -2.8132 C.ar      1 <0>         0.0746
     25 C18        10.5706   10.0953   -4.1752 C.ar      1 <0>        -0.1279
     26 C19        11.2763   11.0246   -4.9141 C.ar      1 <0>        -0.1826
     27 C20        11.8081   12.1453   -4.2936 C.ar      1 <0>         0.1102
     28 C21        11.6261   12.3371   -2.9320 C.ar      1 <0>        -0.1222
     29 C22        10.9150   11.4122   -2.1929 C.ar      1 <0>        -0.0964
     30 O2         12.5081   13.0568   -5.0208 O.3       1 <0>        -0.3024
     31 C23        12.6569   12.7960   -6.4179 C.3       1 <0>         0.0672
     32 C24        13.4667   13.9221   -7.0635 C.3       1 <0>         0.0499
     33 H2         14.4328   14.0314   -6.5707 H         1 <0>         0.1021
     34 C25        13.6476   13.6660   -8.5806 C.3       1 <0>         0.0203
     35 O3         13.8205   15.0112   -9.0874 O.3       1 <0>        -0.3411
     36 C26        12.9489   15.8223   -8.2819 C.3       1 <0>         0.2961
     37 O4         12.7329   15.1628   -7.0274 O.3       1 <0>        -0.3275
     38 C27        11.6115   16.0102   -9.0009 C.3       1 <0>         0.1126
     39 N6         10.7492   16.8886   -8.2065 N.pl3     1 <0>        -0.3731
     40 C28        10.1882   18.0430   -8.6061 C.2       1 <0>         0.2537
     41 N7          9.4922   18.5231   -7.6077 N.2       1 <0>        -0.5393
     42 C29         9.5844   17.7068   -6.5586 C.2       1 <0>         0.1918
     43 N8         10.3394   16.6888   -6.8781 N.2       1 <0>        -0.2861
     44 C30        13.5856   17.1673   -8.0439 C.ar      1 <0>        -0.0962
     45 C31        13.7073   17.6562   -6.7565 C.ar      1 <0>        -0.0530
     46 C32        14.2915   18.8893   -6.5374 C.ar      1 <0>        -0.1081
     47 C33        14.7549   19.6355   -7.6066 C.ar      1 <0>        -0.0114
     48 C34        14.6335   19.1469   -8.8948 C.ar      1 <0>        -0.1076
     49 C35        14.0533   17.9100   -9.1131 C.ar      1 <0>        -0.0044
     50 Cl1        13.9064   17.2930  -10.7291 Cl        1 <0>        -0.0409
     51 Cl2        15.4882   21.1848   -7.3312 Cl        1 <0>        -0.0494
     52 H3          4.3378   -1.8915    1.2670 H         1 <0>         0.0597
     53 H4          5.1038   -0.2882    1.1609 H         1 <0>         0.0469
     54 H5          3.4308   -0.5143    0.5969 H         1 <0>         0.0565
     55 H6          2.7143   -1.0065    2.9191 H         1 <0>         0.0841
     56 H7          4.3873   -0.7805    3.4832 H         1 <0>         0.0777
     57 H8          3.4463    1.0371    4.9968 H         1 <0>         0.0707
     58 H9          2.6075    2.4289    4.2704 H         1 <0>         0.0599
     59 H10         1.8268    0.8294    4.2881 H         1 <0>         0.0781
     60 H11         7.7130    2.4956    3.5764 H         1 <0>         0.2324
     61 H12         5.4086    4.3272   -0.1242 H         1 <0>         0.1559
     62 H13         6.6717    5.9834   -1.4341 H         1 <0>         0.1357
     63 H14        10.0198    5.4969    1.1814 H         1 <0>         0.1356
     64 H15         8.7517    3.8491    2.4972 H         1 <0>         0.1331
     65 H16         8.7592    8.4183    0.3026 H         1 <0>         0.0571
     66 H17        10.2184    7.4827    0.7086 H         1 <0>         0.0921
     67 H18        11.3362    8.3154   -1.3311 H         1 <0>         0.0550
     68 H19        10.7907    9.6773   -0.3225 H         1 <0>         0.0916
     69 H20        10.0485    7.7147   -3.3245 H         1 <0>         0.0569
     70 H21         8.5892    8.6503   -3.7304 H         1 <0>         0.0914
     71 H22         8.0169    6.4557   -2.6994 H         1 <0>         0.0927
     72 H23         7.4713    7.8173   -1.6908 H         1 <0>         0.0598
     73 H24        10.1610    9.2201   -4.6575 H         1 <0>         0.1292
     74 H25        11.4182   10.8761   -5.9744 H         1 <0>         0.1257
     75 H26        12.0402   13.2102   -2.4498 H         1 <0>         0.1336
     76 H27        10.7727   11.5621   -1.1329 H         1 <0>         0.1323
     77 H28        13.1771   11.8483   -6.5572 H         1 <0>         0.0798
     78 H29        11.6731   12.7424   -6.8842 H         1 <0>         0.0724
     79 H30        14.5336   13.0603   -8.7711 H         1 <0>         0.1236
     80 H31        12.7591   13.1998   -9.0063 H         1 <0>         0.0848
     81 H32        11.7847   16.4589   -9.9790 H         1 <0>         0.1221
     82 H33        11.1271   15.0418   -9.1260 H         1 <0>         0.1004
     83 H34        10.2941   18.4955   -9.5809 H         1 <0>         0.2133
     84 H35         9.1088   17.8594   -5.6010 H         1 <0>         0.2149
     85 H36        13.3454   17.0743   -5.9217 H         1 <0>         0.1524
     86 H37        14.3866   19.2706   -5.5314 H         1 <0>         0.1442
     87 H38        14.9947   19.7291   -9.7297 H         1 <0>         0.1490
@<TRIPOS>BOND
     1    1    2 1
     2    1   52 1
     3    1   53 1
     4    1   54 1
     5    2    3 1
     6    2   55 1
     7    2   56 1
     8    3    4 1
     9    3    5 1
    10    3    6 1
    11    5   57 1
    12    5   58 1
    13    5   59 1
    14    6   11 1
    15    6    7 am
    16    7    8 2
    17    7    9 am
    18    9   10 1
    19    9   12 1
    20   10   11 2
    21   10   60 1
    22   12   17 ar
    23   12   13 ar
    24   13   14 ar
    25   13   61 1
    26   14   15 ar
    27   14   62 1
    28   15   16 ar
    29   15   18 1
    30   16   17 ar
    31   16   63 1
    32   17   64 1
    33   18   23 1
    34   18   19 1
    35   19   20 1
    36   19   65 1
    37   19   66 1
    38   20   21 1
    39   20   67 1
    40   20   68 1
    41   21   22 1
    42   21   24 1
    43   22   23 1
    44   22   69 1
    45   22   70 1
    46   23   71 1
    47   23   72 1
    48   24   29 ar
    49   24   25 ar
    50   25   26 ar
    51   25   73 1
    52   26   27 ar
    53   26   74 1
    54   27   28 ar
    55   27   30 1
    56   28   29 ar
    57   28   75 1
    58   29   76 1
    59   30   31 1
    60   31   32 1
    61   31   77 1
    62   31   78 1
    63   32   33 1
    64   32   37 1
    65   32   34 1
    66   34   35 1
    67   34   79 1
    68   34   80 1
    69   35   36 1
    70   36   37 1
    71   36   38 1
    72   36   44 1
    73   38   39 1
    74   38   81 1
    75   38   82 1
    76   39   43 1
    77   39   40 1
    78   40   41 2
    79   40   83 1
    80   41   42 1
    81   42   43 2
    82   42   84 1
    83   44   49 ar
    84   44   45 ar
    85   45   46 ar
    86   45   85 1
    87   46   47 ar
    88   46   86 1
    89   47   48 ar
    90   47   51 1
    91   48   49 ar
    92   48   87 1
    93   49   50 1
@<TRIPOS>MOLECULE
ZINC04097344
   87    93     0     0     0
SMALL
USER_CHARGES
4-[4-[4-[4-[[2-(2,4-dichlorophenyl)-2-(1,2,4-triazol-1-ylmethyl)-1,3-dioxolan-4-yl]methoxy]phenyl]piperazin-1-yl]phenyl]-2-sec-butyl-1,2,4-triazol-3-one
@<TRIPOS>ATOM
      1 C1         -2.1330    0.0091    0.1658 C.3       1 <0>        -0.1507
      2 C2         -2.8145   -0.2535   -1.1786 C.3       1 <0>        -0.1337
      3 C3         -1.8280    0.0273   -2.3139 C.3       1 <0>         0.1820
      4 H1         -1.4386    1.0405   -2.2146 H         1 <0>         0.1085
      5 C4         -2.5441   -0.1144   -3.6585 C.3       1 <0>        -0.1628
      6 N1         -0.7211   -0.9300   -2.2469 N.am      1 <0>        -0.4408
      7 C5          0.5853   -0.6319   -2.0878 C.2       1 <0>         0.6462
      8 O1          1.0615    0.4833   -1.9723 O.2       1 <0>        -0.5422
      9 N2          1.2665   -1.7953   -2.0796 N.am      1 <0>        -0.4985
     10 C6          0.3672   -2.8235   -2.2359 C.2       1 <0>         0.2486
     11 N3         -0.8224   -2.3248   -2.3420 N.2       1 <0>        -0.2637
     12 C7          2.6560   -1.9332   -1.9366 C.ar      1 <0>         0.1258
     13 C8          3.4540   -0.8064   -1.7921 C.ar      1 <0>        -0.1052
     14 C9          4.8201   -0.9420   -1.6465 C.ar      1 <0>        -0.1421
     15 C10         5.3974   -2.2053   -1.6553 C.ar      1 <0>         0.1042
     16 C11         4.5992   -3.3321   -1.8052 C.ar      1 <0>        -0.1131
     17 C12         3.2325   -3.1960   -1.9454 C.ar      1 <0>        -0.1125
     18 N4          6.7818   -2.3427   -1.5127 N.pl3     1 <0>        -0.4886
     19 C13         7.1102   -3.2163   -0.3776 C.3       1 <0>         0.0577
     20 C14         8.6273   -3.4046   -0.3044 C.3       1 <0>         0.0575
     21 N5          9.2747   -2.0932   -0.1605 N.pl3     1 <0>        -0.4877
     22 C15         8.9463   -1.2195   -1.2957 C.3       1 <0>         0.0520
     23 C16         7.4292   -1.0313   -1.3688 C.3       1 <0>         0.0495
     24 C17        10.6600   -2.2307   -0.0179 C.ar      1 <0>         0.0746
     25 C18        11.5167   -1.5832   -0.8983 C.ar      1 <0>        -0.1279
     26 C19        12.8838   -1.7142   -0.7528 C.ar      1 <0>        -0.1826
     27 C20        13.4010   -2.5023    0.2646 C.ar      1 <0>         0.1102
     28 C21        12.5459   -3.1543    1.1407 C.ar      1 <0>        -0.1223
     29 C22        11.1786   -3.0192    1.0007 C.ar      1 <0>        -0.0964
     30 O2         14.7473   -2.6356    0.4035 O.3       1 <0>        -0.3023
     31 C23        15.5686   -1.9362   -0.5337 C.3       1 <0>         0.0672
     32 C24        17.0420   -2.2049   -0.2208 C.3       1 <0>         0.0498
     33 H2         17.2469   -3.2755   -0.2284 H         1 <0>         0.1021
     34 C25        17.9591   -1.4610   -1.2235 C.3       1 <0>         0.0203
     35 O3         19.1698   -1.2948   -0.4471 O.3       1 <0>        -0.3411
     36 C26        18.7156   -1.0584    0.8961 C.3       1 <0>         0.2960
     37 O4         17.4074   -1.6251    1.0478 O.3       1 <0>        -0.3275
     38 C27        18.6574    0.4473    1.1616 C.3       1 <0>         0.1125
     39 N6         18.2548    0.6832    2.5503 N.pl3     1 <0>        -0.3730
     40 C28        18.9336    1.3789    3.4789 C.2       1 <0>         0.2537
     41 N7         18.2409    1.3579    4.5886 N.2       1 <0>        -0.5393
     42 C29        17.1193    0.6617    4.4082 C.2       1 <0>         0.1919
     43 N8         17.0800    0.2326    3.1742 N.2       1 <0>        -0.2861
     44 C30        19.6639   -1.7052    1.8725 C.ar      1 <0>        -0.0962
     45 C31        19.1780   -2.5575    2.8465 C.ar      1 <0>        -0.0530
     46 C32        20.0471   -3.1514    3.7420 C.ar      1 <0>        -0.1081
     47 C33        21.4044   -2.8932    3.6641 C.ar      1 <0>        -0.0114
     48 C34        21.8911   -2.0406    2.6899 C.ar      1 <0>        -0.1076
     49 C35        21.0211   -1.4504    1.7904 C.ar      1 <0>        -0.0044
     50 Cl1        21.6319   -0.3853    0.5632 Cl        1 <0>        -0.0408
     51 Cl2        22.4959   -3.6389    4.7894 Cl        1 <0>        -0.0493
     52 H3         -2.8358   -0.1909    0.9746 H         1 <0>         0.0598
     53 H4         -1.2664   -0.6441    0.2676 H         1 <0>         0.0468
     54 H5         -1.8113    1.0495    0.2130 H         1 <0>         0.0565
     55 H6         -3.6811    0.3997   -1.2804 H         1 <0>         0.0841
     56 H7         -3.1362   -1.2939   -1.2258 H         1 <0>         0.0777
     57 H8         -3.3677    0.5979   -3.7084 H         1 <0>         0.0781
     58 H9         -1.8413    0.0856   -4.4673 H         1 <0>         0.0599
     59 H10        -2.9335   -1.1276   -3.7578 H         1 <0>         0.0707
     60 H11         0.6135   -3.8745   -2.2692 H         1 <0>         0.2324
     61 H12         3.0055    0.1760   -1.7894 H         1 <0>         0.1559
     62 H13         5.4404   -0.0656   -1.5300 H         1 <0>         0.1357
     63 H14         5.0477   -4.3145   -1.8124 H         1 <0>         0.1356
     64 H15         2.6119   -4.0721   -2.0623 H         1 <0>         0.1331
     65 H16         6.7553   -2.7604    0.5467 H         1 <0>         0.0571
     66 H17         6.6297   -4.1852   -0.5134 H         1 <0>         0.0921
     67 H18         8.9786   -3.8853   -1.2175 H         1 <0>         0.0550
     68 H19         8.8753   -4.0287    0.5541 H         1 <0>         0.0916
     69 H20         9.3011   -1.6754   -2.2200 H         1 <0>         0.0569
     70 H21         9.4268   -0.2507   -1.1598 H         1 <0>         0.0914
     71 H22         7.1812   -0.4071   -2.2273 H         1 <0>         0.0926
     72 H23         7.0776   -0.5504   -0.4560 H         1 <0>         0.0598
     73 H24        11.1140   -0.9737   -1.6938 H         1 <0>         0.1292
     74 H25        13.5504   -1.2065   -1.4343 H         1 <0>         0.1257
     75 H26        12.9495   -3.7676    1.9328 H         1 <0>         0.1336
     76 H27        10.5130   -3.5264    1.6834 H         1 <0>         0.1323
     77 H28        15.3427   -2.2809   -1.5428 H         1 <0>         0.0798
     78 H29        15.3713   -0.8666   -0.4624 H         1 <0>         0.0724
     79 H30        18.1437   -2.0694   -2.1088 H         1 <0>         0.1236
     80 H31        17.5353   -0.4948   -1.4972 H         1 <0>         0.0848
     81 H32        19.6407    0.8849    0.9891 H         1 <0>         0.1221
     82 H33        17.9323    0.9069    0.4900 H         1 <0>         0.1004
     83 H34        19.8850    1.8691    3.3343 H         1 <0>         0.2134
     84 H35        16.3631    0.4844    5.1587 H         1 <0>         0.2149
     85 H36        18.1187   -2.7590    2.9078 H         1 <0>         0.1524
     86 H37        19.6669   -3.8174    4.5024 H         1 <0>         0.1442
     87 H38        22.9503   -1.8385    2.6291 H         1 <0>         0.1490
@<TRIPOS>BOND
     1    1    2 1
     2    1   52 1
     3    1   53 1
     4    1   54 1
     5    2    3 1
     6    2   55 1
     7    2   56 1
     8    3    4 1
     9    3    5 1
    10    3    6 1
    11    5   57 1
    12    5   58 1
    13    5   59 1
    14    6   11 1
    15    6    7 am
    16    7    8 2
    17    7    9 am
    18    9   10 1
    19    9   12 1
    20   10   11 2
    21   10   60 1
    22   12   17 ar
    23   12   13 ar
    24   13   14 ar
    25   13   61 1
    26   14   15 ar
    27   14   62 1
    28   15   16 ar
    29   15   18 1
    30   16   17 ar
    31   16   63 1
    32   17   64 1
    33   18   23 1
    34   18   19 1
    35   19   20 1
    36   19   65 1
    37   19   66 1
    38   20   21 1
    39   20   67 1
    40   20   68 1
    41   21   22 1
    42   21   24 1
    43   22   23 1
    44   22   69 1
    45   22   70 1
    46   23   71 1
    47   23   72 1
    48   24   29 ar
    49   24   25 ar
    50   25   26 ar
    51   25   73 1
    52   26   27 ar
    53   26   74 1
    54   27   28 ar
    55   27   30 1
    56   28   29 ar
    57   28   75 1
    58   29   76 1
    59   30   31 1
    60   31   32 1
    61   31   77 1
    62   31   78 1
    63   32   33 1
    64   32   37 1
    65   32   34 1
    66   34   35 1
    67   34   79 1
    68   34   80 1
    69   35   36 1
    70   36   37 1
    71   36   38 1
    72   36   44 1
    73   38   39 1
    74   38   81 1
    75   38   82 1
    76   39   43 1
    77   39   40 1
    78   40   41 2
    79   40   83 1
    80   41   42 1
    81   42   43 2
    82   42   84 1
    83   44   49 ar
    84   44   45 ar
    85   45   46 ar
    86   45   85 1
    87   46   47 ar
    88   46   86 1
    89   47   48 ar
    90   47   51 1
    91   48   49 ar
    92   48   87 1
    93   49   50 1
@<TRIPOS>MOLECULE
ZINC03812958
   43    46     0     0     0
SMALL
USER_CHARGES

@<TRIPOS>ATOM
      1 C1         -0.1075    1.2056    0.1489 C.ar      1 <0>        -0.1054
      2 C2          0.5302    0.8679    1.3289 C.ar      1 <0>        -0.1174
      3 C3          1.7509    0.2245    1.2969 C.ar      1 <0>        -0.1046
      4 C4          2.3406   -0.0848    0.0730 C.ar      1 <0>        -0.0688
      5 C5          1.6937    0.2578   -1.1126 C.ar      1 <0>        -0.1032
      6 C6          0.4734    0.9011   -1.0689 C.ar      1 <0>        -0.1163
      7 C7          3.6531   -0.7760    0.0323 C.ar      1 <0>        -0.0095
      8 C8          4.2975   -1.1233    1.2179 C.ar      1 <0>        -0.1081
      9 C9          5.5178   -1.7665    1.1742 C.ar      1 <0>        -0.1045
     10 C10         6.1014   -2.0660   -0.0436 C.ar      1 <0>        -0.1323
     11 C11         5.4663   -1.7232   -1.2236 C.ar      1 <0>        -0.0766
     12 C12         4.2428   -1.0853   -1.1916 C.ar      1 <0>        -0.1059
     13 C13         7.4343   -2.7680   -0.0849 C.3       1 <0>         0.2278
     14 H1          8.2302   -2.0307   -0.1893 H         1 <0>         0.1409
     15 C14         7.4680   -3.7133   -1.2581 C.ar      1 <0>        -0.1348
     16 C15         6.4631   -4.6484   -1.4214 C.ar      1 <0>        -0.0940
     17 C16         6.4941   -5.5154   -2.4976 C.ar      1 <0>        -0.1141
     18 C17         7.5297   -5.4471   -3.4107 C.ar      1 <0>        -0.0903
     19 C18         8.5341   -4.5113   -3.2479 C.ar      1 <0>        -0.1135
     20 C19         8.5009   -3.6415   -2.1741 C.ar      1 <0>        -0.0912
     21 N1          7.6274   -3.5226    1.1559 N.pl3     1 <0>        -0.3994
     22 C20         6.8331   -4.5349    1.6229 C.2       1 <0>         0.0313
     23 C21         7.3701   -4.9457    2.7876 C.2       1 <0>         0.0032
     24 N2          8.4624   -4.2045    3.0253 N.pl3     1 <0>        -0.4753
     25 C22         8.6256   -3.3534    2.0496 C.cat     1 <0>         0.2884
     26 H2         -1.0647    1.7050    0.1785 H         1 <0>         0.1286
     27 H3          0.0724    1.1084    2.2770 H         1 <0>         0.1286
     28 H4          2.2481   -0.0384    2.2189 H         1 <0>         0.1242
     29 H5          2.1466    0.0207   -2.0640 H         1 <0>         0.1264
     30 H6         -0.0291    1.1668   -1.9873 H         1 <0>         0.1295
     31 H7          3.8430   -0.8893    2.1693 H         1 <0>         0.1330
     32 H8          6.0182   -2.0362    2.0925 H         1 <0>         0.1145
     33 H9          5.9266   -1.9591   -2.1717 H         1 <0>         0.1333
     34 H10         3.7457   -0.8220   -2.1136 H         1 <0>         0.1363
     35 H11         5.6541   -4.7018   -0.7080 H         1 <0>         0.1225
     36 H12         5.7094   -6.2465   -2.6248 H         1 <0>         0.1330
     37 H13         7.5543   -6.1249   -4.2511 H         1 <0>         0.1334
     38 H14         9.3433   -4.4581   -3.9611 H         1 <0>         0.1345
     39 H15         9.2836   -2.9079   -2.0489 H         1 <0>         0.1302
     40 H16         5.9461   -4.9283    1.1487 H         1 <0>         0.2164
     41 H17         6.9881   -5.7339    3.4195 H         1 <0>         0.2239
     42 H18         9.4250   -2.6315    1.9711 H         1 <0>         0.2601
     43 H19         9.0418   -4.2902    3.7985 H         1 <0>         0.4651
@<TRIPOS>BOND
     1    1    6 ar
     2    1    2 ar
     3    1   26 1
     4    2    3 ar
     5    2   27 1
     6    3    4 ar
     7    3   28 1
     8    4    5 ar
     9    4    7 1
    10    5    6 ar
    11    5   29 1
    12    6   30 1
    13    7   12 ar
    14    7    8 ar
    15    8    9 ar
    16    8   31 1
    17    9   10 ar
    18    9   32 1
    19   10   11 ar
    20   10   13 1
    21   11   12 ar
    22   11   33 1
    23   12   34 1
    24   13   14 1
    25   13   15 1
    26   13   21 1
    27   15   20 ar
    28   15   16 ar
    29   16   17 ar
    30   16   35 1
    31   17   18 ar
    32   17   36 1
    33   18   19 ar
    34   18   37 1
    35   19   20 ar
    36   19   38 1
    37   20   39 1
    38   21   25 1
    39   21   22 1
    40   22   23 2
    41   22   40 1
    42   23   24 1
    43   23   41 1
    44   24   25 2
    45   24   43 1
    46   25   42 1
@<TRIPOS>MOLECULE
ZINC03812958
   42    45     0     0     0
SMALL
USER_CHARGES

@<TRIPOS>ATOM
      1 C1         -0.1101    1.2005    0.1530 C.ar      1 <0>        -0.1159
      2 C2          0.5295    0.8650    1.3327 C.ar      1 <0>        -0.1173
      3 C3          1.7505    0.2224    1.3000 C.ar      1 <0>        -0.1087
      4 C4          2.3389   -0.0883    0.0758 C.ar      1 <0>        -0.0513
      5 C5          1.6901    0.2521   -1.1095 C.ar      1 <0>        -0.1089
      6 C6          0.4694    0.8945   -1.0651 C.ar      1 <0>        -0.1177
      7 C7          3.6518   -0.7786    0.0344 C.ar      1 <0>        -0.0330
      8 C8          4.2980   -1.1237    1.2196 C.ar      1 <0>        -0.1079
      9 C9          5.5187   -1.7661    1.1753 C.ar      1 <0>        -0.0960
     10 C10         6.1009   -2.0669   -0.0429 C.ar      1 <0>        -0.1086
     11 C11         5.4641   -1.7263   -1.2225 C.ar      1 <0>        -0.0905
     12 C12         4.2401   -1.0892   -1.1899 C.ar      1 <0>        -0.1096
     13 C13         7.4343   -2.7680   -0.0849 C.3       1 <0>         0.2247
     14 H1          8.2296   -2.0301   -0.1898 H         1 <0>         0.1171
     15 C14         7.4680   -3.7133   -1.2581 C.ar      1 <0>        -0.1068
     16 C15         6.4631   -4.6484   -1.4214 C.ar      1 <0>        -0.0943
     17 C16         6.4941   -5.5154   -2.4976 C.ar      1 <0>        -0.1170
     18 C17         7.5297   -5.4471   -3.4107 C.ar      1 <0>        -0.1070
     19 C18         8.5341   -4.5113   -3.2479 C.ar      1 <0>        -0.1183
     20 C19         8.5009   -3.6415   -2.1741 C.ar      1 <0>        -0.0998
     21 N1          7.6286   -3.5225    1.1558 N.pl3     1 <0>        -0.4503
     22 C20         8.6377   -3.3465    2.0638 C.2       1 <0>        -0.0563
     23 C21         8.4364   -4.2428    3.0486 C.2       1 <0>        -0.0275
     24 N2          7.3344   -4.9468    2.7500 N.2       1 <0>        -0.4923
     25 C22         6.8424   -4.5174    1.6202 C.2       1 <0>         0.1908
     26 H2         -1.0676    1.6992    0.1831 H         1 <0>         0.1242
     27 H3          0.0727    1.1065    2.2810 H         1 <0>         0.1256
     28 H4          2.2492   -0.0388    2.2217 H         1 <0>         0.1254
     29 H5          2.1419    0.0139   -2.0611 H         1 <0>         0.1254
     30 H6         -0.0345    1.1585   -1.9832 H         1 <0>         0.1254
     31 H7          3.8446   -0.8886    2.1712 H         1 <0>         0.1284
     32 H8          6.0205   -2.0340    2.0933 H         1 <0>         0.1251
     33 H9          5.9233   -1.9633   -2.1709 H         1 <0>         0.1282
     34 H10         3.7416   -0.8277   -2.1116 H         1 <0>         0.1293
     35 H11         5.6541   -4.7018   -0.7080 H         1 <0>         0.1212
     36 H12         5.7094   -6.2465   -2.6248 H         1 <0>         0.1269
     37 H13         7.5543   -6.1249   -4.2511 H         1 <0>         0.1259
     38 H14         9.3433   -4.4581   -3.9611 H         1 <0>         0.1269
     39 H15         9.2836   -2.9079   -2.0489 H         1 <0>         0.1247
     40 H16         9.4411   -2.6274    2.0021 H         1 <0>         0.1738
     41 H17         9.0540   -4.3720    3.9251 H         1 <0>         0.1697
     42 H18         5.9549   -4.8967    1.1355 H         1 <0>         0.1963
@<TRIPOS>BOND
     1    1    6 ar
     2    1    2 ar
     3    1   26 1
     4    2    3 ar
     5    2   27 1
     6    3    4 ar
     7    3   28 1
     8    4    5 ar
     9    4    7 1
    10    5    6 ar
    11    5   29 1
    12    6   30 1
    13    7   12 ar
    14    7    8 ar
    15    8    9 ar
    16    8   31 1
    17    9   10 ar
    18    9   32 1
    19   10   11 ar
    20   10   13 1
    21   11   12 ar
    22   11   33 1
    23   12   34 1
    24   13   14 1
    25   13   15 1
    26   13   21 1
    27   15   20 ar
    28   15   16 ar
    29   16   17 ar
    30   16   35 1
    31   17   18 ar
    32   17   36 1
    33   18   19 ar
    34   18   37 1
    35   19   20 ar
    36   19   38 1
    37   20   39 1
    38   21   25 1
    39   21   22 1
    40   22   23 2
    41   22   40 1
    42   23   24 1
    43   23   41 1
    44   24   25 2
    45   25   42 1
@<TRIPOS>MOLECULE
ZINC03871723
   43    46     0     0     0
SMALL
USER_CHARGES

@<TRIPOS>ATOM
      1 C1         -0.5921    0.0379   -0.7385 C.ar      1 <0>        -0.1054
      2 C2          0.0264    0.0012    0.4981 C.ar      1 <0>        -0.1162
      3 C3          1.3252   -0.4522    0.6097 C.ar      1 <0>        -0.1032
      4 C4          2.0134   -0.8734   -0.5263 C.ar      1 <0>        -0.0687
      5 C5          1.3854   -0.8343   -1.7695 C.ar      1 <0>        -0.1046
      6 C6          0.0863   -0.3790   -1.8695 C.ar      1 <0>        -0.1174
      7 C7          3.4101   -1.3615   -0.4126 C.ar      1 <0>        -0.0097
      8 C8          4.0363   -1.4056    0.8314 C.ar      1 <0>        -0.1056
      9 C9          5.3354   -1.8609    0.9314 C.ar      1 <0>        -0.0766
     10 C10         6.0158   -2.2724   -0.2004 C.ar      1 <0>        -0.1320
     11 C11         5.3992   -2.2303   -1.4378 C.ar      1 <0>        -0.1052
     12 C12         4.0983   -1.7827   -1.5486 C.ar      1 <0>        -0.1079
     13 C13         7.4343   -2.7680   -0.0849 C.3       1 <0>         0.2277
     14 H1          8.1166   -1.9181   -0.0774 H         1 <0>         0.1410
     15 C14         7.5908   -3.5493    1.1943 C.ar      1 <0>        -0.1343
     16 C15         6.7342   -4.5977    1.4731 C.ar      1 <0>        -0.0940
     17 C16         6.8778   -5.3143    2.6464 C.ar      1 <0>        -0.1140
     18 C17         7.8784   -4.9827    3.5408 C.ar      1 <0>        -0.0905
     19 C18         8.7356   -3.9348    3.2615 C.ar      1 <0>        -0.1134
     20 C19         8.5947   -3.2210    2.0862 C.ar      1 <0>        -0.0915
     21 N1          7.7438   -3.6328   -1.2262 N.pl3     1 <0>        -0.3996
     22 C20         7.0977   -4.7904   -1.5670 C.2       1 <0>         0.0310
     23 C21         7.7003   -5.2611   -2.6755 C.2       1 <0>         0.0033
     24 N2          8.6874   -4.4140   -3.0027 N.pl3     1 <0>        -0.4752
     25 C22         8.7162   -3.4336   -2.1420 C.cat     1 <0>         0.2886
     26 H2         -1.6101    0.3892   -0.8207 H         1 <0>         0.1285
     27 H3         -0.5078    0.3282    1.3779 H         1 <0>         0.1295
     28 H4          1.8074   -0.4802    1.5757 H         1 <0>         0.1264
     29 H5          1.9143   -1.1593   -2.6533 H         1 <0>         0.1242
     30 H6         -0.4015   -0.3485   -2.8326 H         1 <0>         0.1286
     31 H7          3.5062   -1.0838    1.7156 H         1 <0>         0.1363
     32 H8          5.8217   -1.8955    1.8951 H         1 <0>         0.1332
     33 H9          5.9352   -2.5525   -2.3184 H         1 <0>         0.1145
     34 H10         3.6163   -1.7544   -2.5146 H         1 <0>         0.1330
     35 H11         5.9525   -4.8568    0.7744 H         1 <0>         0.1222
     36 H12         6.2081   -6.1330    2.8646 H         1 <0>         0.1329
     37 H13         7.9901   -5.5422    4.4578 H         1 <0>         0.1334
     38 H14         9.5171   -3.6756    3.9604 H         1 <0>         0.1345
     39 H15         9.2667   -2.4047    1.8663 H         1 <0>         0.1302
     40 H16         6.2650   -5.2400   -1.0466 H         1 <0>         0.2165
     41 H17         7.4351   -6.1627   -3.2078 H         1 <0>         0.2240
     42 H18         9.4052   -2.6021   -2.1578 H         1 <0>         0.2602
     43 H19         9.2834   -4.5126   -3.7616 H         1 <0>         0.4651
@<TRIPOS>BOND
     1    1    6 ar
     2    1    2 ar
     3    1   26 1
     4    2    3 ar
     5    2   27 1
     6    3    4 ar
     7    3   28 1
     8    4    5 ar
     9    4    7 1
    10    5    6 ar
    11    5   29 1
    12    6   30 1
    13    7   12 ar
    14    7    8 ar
    15    8    9 ar
    16    8   31 1
    17    9   10 ar
    18    9   32 1
    19   10   11 ar
    20   10   13 1
    21   11   12 ar
    22   11   33 1
    23   12   34 1
    24   13   14 1
    25   13   15 1
    26   13   21 1
    27   15   20 ar
    28   15   16 ar
    29   16   17 ar
    30   16   35 1
    31   17   18 ar
    32   17   36 1
    33   18   19 ar
    34   18   37 1
    35   19   20 ar
    36   19   38 1
    37   20   39 1
    38   21   25 1
    39   21   22 1
    40   22   23 2
    41   22   40 1
    42   23   24 1
    43   23   41 1
    44   24   25 2
    45   24   43 1
    46   25   42 1
@<TRIPOS>MOLECULE
ZINC03871723
   42    45     0     0     0
SMALL
USER_CHARGES

@<TRIPOS>ATOM
      1 C1         -0.5977    0.0193   -0.7492 C.ar      1 <0>        -0.1160
      2 C2          0.0190   -0.0168    0.4884 C.ar      1 <0>        -0.1177
      3 C3          1.3187   -0.4672    0.6017 C.ar      1 <0>        -0.1089
      4 C4          2.0096   -0.8860   -0.5335 C.ar      1 <0>        -0.0512
      5 C5          1.3835   -0.8475   -1.7776 C.ar      1 <0>        -0.1088
      6 C6          0.0835   -0.3953   -1.8794 C.ar      1 <0>        -0.1173
      7 C7          3.4073   -1.3708   -0.4179 C.ar      1 <0>        -0.0331
      8 C8          4.0317   -1.4142    0.8270 C.ar      1 <0>        -0.1095
      9 C9          5.3317   -1.8665    0.9288 C.ar      1 <0>        -0.0905
     10 C10         6.0148   -2.2757   -0.2022 C.ar      1 <0>        -0.1082
     11 C11         5.4000   -2.2342   -1.4406 C.ar      1 <0>        -0.0964
     12 C12         4.0982   -1.7896   -1.5531 C.ar      1 <0>        -0.1078
     13 C13         7.4343   -2.7680   -0.0849 C.3       1 <0>         0.2247
     14 H1          8.1146   -1.9165   -0.0762 H         1 <0>         0.1172
     15 C14         7.5908   -3.5493    1.1943 C.ar      1 <0>        -0.1069
     16 C15         6.7342   -4.5977    1.4731 C.ar      1 <0>        -0.0942
     17 C16         6.8778   -5.3143    2.6464 C.ar      1 <0>        -0.1170
     18 C17         7.8784   -4.9827    3.5408 C.ar      1 <0>        -0.1070
     19 C18         8.7356   -3.9348    3.2615 C.ar      1 <0>        -0.1183
     20 C19         8.5947   -3.2210    2.0862 C.ar      1 <0>        -0.0997
     21 N1          7.7475   -3.6317   -1.2260 N.pl3     1 <0>        -0.4504
     22 C20         8.7374   -3.4301   -2.1496 C.2       1 <0>        -0.0561
     23 C21         8.6749   -4.4573   -3.0183 C.2       1 <0>        -0.0275
     24 N2          7.6741   -5.2640   -2.6356 N.2       1 <0>        -0.4922
     25 C22         7.1173   -4.7785   -1.5598 C.2       1 <0>         0.1904
     26 H2         -1.6164    0.3682   -0.8327 H         1 <0>         0.1242
     27 H3         -0.5174    0.3085    1.3676 H         1 <0>         0.1254
     28 H4          1.7994   -0.4946    1.5685 H         1 <0>         0.1254
     29 H5          1.9145   -1.1707   -2.6608 H         1 <0>         0.1254
     30 H6         -0.4029   -0.3653   -2.8432 H         1 <0>         0.1256
     31 H7          3.4994   -1.0943    1.7106 H         1 <0>         0.1293
     32 H8          5.8166   -1.9006    1.8932 H         1 <0>         0.1281
     33 H9          5.9381   -2.5546   -2.3205 H         1 <0>         0.1252
     34 H10         3.6177   -1.7619   -2.5199 H         1 <0>         0.1284
     35 H11         5.9525   -4.8568    0.7744 H         1 <0>         0.1212
     36 H12         6.2081   -6.1330    2.8646 H         1 <0>         0.1269
     37 H13         7.9901   -5.5422    4.4578 H         1 <0>         0.1259
     38 H14         9.5171   -3.6756    3.9604 H         1 <0>         0.1269
     39 H15         9.2667   -2.4047    1.8663 H         1 <0>         0.1247
     40 H16         9.4344   -2.6056   -2.1767 H         1 <0>         0.1738
     41 H17         9.3179   -4.6054   -3.8733 H         1 <0>         0.1698
     42 H18         6.2882   -5.2194   -1.0263 H         1 <0>         0.1965
@<TRIPOS>BOND
     1    1    6 ar
     2    1    2 ar
     3    1   26 1
     4    2    3 ar
     5    2   27 1
     6    3    4 ar
     7    3   28 1
     8    4    5 ar
     9    4    7 1
    10    5    6 ar
    11    5   29 1
    12    6   30 1
    13    7   12 ar
    14    7    8 ar
    15    8    9 ar
    16    8   31 1
    17    9   10 ar
    18    9   32 1
    19   10   11 ar
    20   10   13 1
    21   11   12 ar
    22   11   33 1
    23   12   34 1
    24   13   14 1
    25   13   15 1
    26   13   21 1
    27   15   20 ar
    28   15   16 ar
    29   16   17 ar
    30   16   35 1
    31   17   18 ar
    32   17   36 1
    33   18   19 ar
    34   18   37 1
    35   19   20 ar
    36   19   38 1
    37   20   39 1
    38   21   25 1
    39   21   22 1
    40   22   23 2
    41   22   40 1
    42   23   24 1
    43   23   41 1
    44   24   25 2
    45   25   42 1
@<TRIPOS>MOLECULE
ZINC00643138
   65    69     0     0     0
SMALL
USER_CHARGES

@<TRIPOS>ATOM
      1 H1          1.6079    1.9820    1.9526 H         1 <0>         0.0703
      2 C1          1.9730    1.5011    1.0451 C.3       1 <0>         0.1083
      3 C2          2.1165   -0.0071    1.2838 C.3       1 <0>         0.0963
      4 N1          0.7741   -0.5946    1.3963 N.am      1 <0>        -0.6170
      5 C3         -0.1862   -0.3812    0.3044 C.3       1 <0>         0.0857
      6 C4         -0.3297    1.1270    0.0658 C.3       1 <0>         0.1045
      7 N2          1.0127    1.7145   -0.0467 N.pl3     1 <0>        -0.6286
      8 C5          1.3700    2.4640   -1.1731 C.ar      1 <0>         0.1978
      9 C6          0.4180    2.7640   -2.1385 C.ar      1 <0>        -0.1556
     10 C7          0.7714    3.5042   -3.2497 C.ar      1 <0>        -0.0889
     11 C8          2.0767    3.9479   -3.4015 C.ar      1 <0>         0.0597
     12 C9          3.0283    3.6483   -2.4379 C.ar      1 <0>        -0.1602
     13 C10         2.6753    2.9131   -1.3233 C.ar      1 <0>        -0.1639
     14 O1          2.4238    4.6768   -4.4960 O.3       1 <0>        -0.3025
     15 C11         3.7853    5.1010   -4.5878 C.3       1 <0>         0.0716
     16 C12         3.9841    5.9018   -5.8762 C.3       1 <0>         0.0420
     17 H2          3.2697    6.7231   -5.9318 H         1 <0>         0.1182
     18 C13         5.4365    6.4322   -5.9725 C.3       1 <0>         0.0170
     19 O2          5.6082    6.5610   -7.4044 O.3       1 <0>        -0.3351
     20 C14         4.8830    5.4525   -7.9627 C.3       1 <0>         0.2894
     21 O3          3.8680    5.0463   -7.0310 O.3       1 <0>        -0.3428
     22 C15         5.8420    4.2889   -8.2219 C.3       1 <0>         0.0735
     23 N3          6.4757    3.8887   -6.9631 N.pl3     1 <0>        -0.4078
     24 C16         7.6416    4.3862   -6.4467 C.2       1 <0>         0.0277
     25 C17         7.8564    3.7456   -5.2817 C.2       1 <0>         0.0033
     26 N4          6.8490    2.8806   -5.0920 N.pl3     1 <0>        -0.4770
     27 C18         6.0155    2.9645   -6.0927 C.cat     1 <0>         0.2937
     28 C19         4.2377    5.8710   -9.2587 C.ar      1 <0>        -0.1041
     29 C20         4.5460    5.2057  -10.4306 C.ar      1 <0>        -0.0827
     30 C21         3.9547    5.5889  -11.6195 C.ar      1 <0>        -0.1016
     31 C22         3.0531    6.6385  -11.6374 C.ar      1 <0>        -0.0035
     32 C23         2.7439    7.3042  -10.4651 C.ar      1 <0>        -0.1013
     33 C24         3.3326    6.9170   -9.2744 C.ar      1 <0>         0.0199
     34 Cl1         2.9404    7.7480   -7.8016 Cl        1 <0>        -0.0376
     35 Cl2         2.3108    7.1201  -13.1310 Cl        1 <0>        -0.0329
     36 H3         -0.8834    1.3003   -0.8570 H         1 <0>         0.0971
     37 H4         -0.8588    1.5812    0.9035 H         1 <0>         0.0720
     38 H5          0.1789   -0.8621   -0.6031 H         1 <0>         0.0755
     39 H6         -1.1533   -0.8016    0.5805 H         1 <0>         0.1068
     40 C25         0.4300   -1.3165    2.4812 C.2       1 <0>         0.5145
     41 O4          1.2581   -1.5654    3.3316 O.2       1 <0>        -0.5401
     42 C26        -0.9838   -1.8144    2.6375 C.3       1 <0>        -0.1811
     43 H7          2.6456   -0.4613    0.4460 H         1 <0>         0.0694
     44 H8          2.6702   -0.1804    2.2066 H         1 <0>         0.1035
     45 H9          2.9392    1.9241    0.7704 H         1 <0>         0.0931
     46 H10        -0.5984    2.4183   -2.0207 H         1 <0>         0.1344
     47 H11         0.0312    3.7373   -4.0008 H         1 <0>         0.1336
     48 H12         4.0446    3.9939   -2.5571 H         1 <0>         0.1170
     49 H13         3.4153    2.6840   -0.5708 H         1 <0>         0.1270
     50 H14         4.0295    5.7270   -3.7295 H         1 <0>         0.0839
     51 H15         4.4380    4.2281   -4.5982 H         1 <0>         0.0478
     52 H16         5.5321    7.3996   -5.4795 H         1 <0>         0.1310
     53 H17         6.1428    5.7130   -5.5579 H         1 <0>         0.0712
     54 H18         5.2873    3.4457   -8.6335 H         1 <0>         0.1446
     55 H19         6.6084    4.6008   -8.9314 H         1 <0>         0.1499
     56 H20         8.2690    5.1460   -6.8887 H         1 <0>         0.2268
     57 H21         8.6931    3.9010   -4.6168 H         1 <0>         0.2279
     58 H22         5.1093    2.3882   -6.2070 H         1 <0>         0.2603
     59 H23         5.2496    4.3864  -10.4172 H         1 <0>         0.1442
     60 H24         4.1965    5.0692  -12.5349 H         1 <0>         0.1520
     61 H25         2.0403    8.1235  -10.4786 H         1 <0>         0.1548
     62 H26        -1.5536   -1.5784    1.7388 H         1 <0>         0.0829
     63 H27        -0.9742   -2.8938    2.7886 H         1 <0>         0.0983
     64 H28        -1.4461   -1.3311    3.4982 H         1 <0>         0.0992
     65 H29         6.7531    2.2888   -4.3295 H         1 <0>         0.4665
@<TRIPOS>BOND
     1    1    2 1
     2    2    7 1
     3    2    3 1
     4    2   45 1
     5    3    4 1
     6    3   43 1
     7    3   44 1
     8    4    5 1
     9    4   40 am
    10    5    6 1
    11    5   38 1
    12    5   39 1
    13    6    7 1
    14    6   36 1
    15    6   37 1
    16    7    8 1
    17    8   13 ar
    18    8    9 ar
    19    9   10 ar
    20    9   46 1
    21   10   11 ar
    22   10   47 1
    23   11   12 ar
    24   11   14 1
    25   12   13 ar
    26   12   48 1
    27   13   49 1
    28   14   15 1
    29   15   16 1
    30   15   50 1
    31   15   51 1
    32   16   17 1
    33   16   21 1
    34   16   18 1
    35   18   19 1
    36   18   52 1
    37   18   53 1
    38   19   20 1
    39   20   21 1
    40   20   22 1
    41   20   28 1
    42   22   23 1
    43   22   54 1
    44   22   55 1
    45   23   27 1
    46   23   24 1
    47   24   25 2
    48   24   56 1
    49   25   26 1
    50   25   57 1
    51   26   27 2
    52   26   65 1
    53   27   58 1
    54   28   33 ar
    55   28   29 ar
    56   29   30 ar
    57   29   59 1
    58   30   31 ar
    59   30   60 1
    60   31   32 ar
    61   31   35 1
    62   32   33 ar
    63   32   61 1
    64   33   34 1
    65   40   41 2
    66   40   42 1
    67   42   62 1
    68   42   63 1
    69   42   64 1
@<TRIPOS>MOLECULE
ZINC00596881
   40    42     0     0     0
SMALL
USER_CHARGES

@<TRIPOS>ATOM
      1 C1         -0.0167    1.3782    0.0096 C.ar      1 <0>        -0.0794
      2 C2          1.1706    2.0858    0.0021 C.ar      1 <0>        -0.1068
      3 C3          2.3780    1.4104   -0.0130 C.ar      1 <0>        -0.0208
      4 C4          2.3961    0.0270   -0.0206 C.ar      1 <0>        -0.1105
      5 C5          1.2082   -0.6795   -0.0130 C.ar      1 <0>        -0.0901
      6 C6          0.0021   -0.0041    0.0020 C.ar      1 <0>        -0.1009
      7 C7         -1.2928   -0.7750    0.0107 C.3       1 <0>         0.0968
      8 O1         -1.7154   -1.0114   -1.3338 O.3       1 <0>        -0.3551
      9 C8         -2.9406   -1.7395   -1.4384 C.3       1 <0>         0.1197
     10 H1         -3.5665   -1.5238   -0.5725 H         1 <0>         0.0940
     11 C9         -2.6400   -3.2388   -1.4897 C.3       1 <0>         0.0710
     12 N1         -2.0453   -3.6614   -0.2192 N.pl3     1 <0>        -0.4099
     13 C10        -0.7116   -3.6750    0.0885 C.2       1 <0>         0.0266
     14 C11        -0.6078   -4.1306    1.3515 C.2       1 <0>         0.0046
     15 N2         -1.8444   -4.3881    1.8027 N.pl3     1 <0>        -0.4724
     16 C12        -2.7109   -4.1046    0.8690 C.cat     1 <0>         0.2872
     17 C13        -3.6632   -1.3287   -2.6954 C.ar      1 <0>        -0.1001
     18 C14        -2.9524   -0.8197   -3.7662 C.ar      1 <0>        -0.0568
     19 C15        -3.6144   -0.4428   -4.9193 C.ar      1 <0>        -0.1022
     20 C16        -4.9894   -0.5752   -5.0028 C.ar      1 <0>        -0.0091
     21 C17        -5.7010   -1.0849   -3.9319 C.ar      1 <0>        -0.0991
     22 C18        -5.0372   -1.4665   -2.7796 C.ar      1 <0>        -0.0136
     23 Cl1        -5.9289   -2.1120   -1.4372 Cl        1 <0>        -0.0556
     24 Cl2        -5.8209   -0.1012   -6.4511 Cl        1 <0>        -0.0353
     25 Cl3         3.8696    2.2984   -0.0231 Cl        1 <0>        -0.0518
     26 H2         -0.9592    1.9053    0.0259 H         1 <0>         0.1348
     27 H3          1.1558    3.1656    0.0076 H         1 <0>         0.1411
     28 H4          3.3383   -0.5007   -0.0327 H         1 <0>         0.1400
     29 H5          1.2222   -1.7594   -0.0193 H         1 <0>         0.1247
     30 H6         -1.1447   -1.7283    0.5180 H         1 <0>         0.0524
     31 H7         -2.0551   -0.1989    0.5352 H         1 <0>         0.0693
     32 H8         -3.5655   -3.7893   -1.6585 H         1 <0>         0.1334
     33 H9         -1.9429   -3.4420   -2.3026 H         1 <0>         0.1396
     34 H10         0.1013   -3.3779   -0.5575 H         1 <0>         0.2229
     35 H11         0.3102   -4.2651    1.9043 H         1 <0>         0.2272
     36 H12        -3.7826   -4.2096    0.9518 H         1 <0>         0.2600
     37 H13        -1.8793   -0.7161   -3.7015 H         1 <0>         0.1537
     38 H14        -3.0587   -0.0445   -5.7553 H         1 <0>         0.1497
     39 H15        -6.7741   -1.1884   -3.9966 H         1 <0>         0.1535
     40 H16        -2.0608   -4.7279    2.6851 H         1 <0>         0.4672
@<TRIPOS>BOND
     1    1    6 ar
     2    1    2 ar
     3    1   26 1
     4    2    3 ar
     5    2   27 1
     6    3    4 ar
     7    3   25 1
     8    4    5 ar
     9    4   28 1
    10    5    6 ar
    11    5   29 1
    12    6    7 1
    13    7    8 1
    14    7   30 1
    15    7   31 1
    16    8    9 1
    17    9   10 1
    18    9   11 1
    19    9   17 1
    20   11   12 1
    21   11   32 1
    22   11   33 1
    23   12   16 1
    24   12   13 1
    25   13   14 2
    26   13   34 1
    27   14   15 1
    28   14   35 1
    29   15   16 2
    30   15   40 1
    31   16   36 1
    32   17   22 ar
    33   17   18 ar
    34   18   19 ar
    35   18   37 1
    36   19   20 ar
    37   19   38 1
    38   20   21 ar
    39   20   24 1
    40   21   22 ar
    41   21   39 1
    42   22   23 1
@<TRIPOS>MOLECULE
ZINC00596881
   39    41     0     0     0
SMALL
USER_CHARGES

@<TRIPOS>ATOM
      1 C1         -0.0167    1.3782    0.0096 C.ar      1 <0>        -0.0853
      2 C2          1.1706    2.0858    0.0021 C.ar      1 <0>        -0.1123
      3 C3          2.3780    1.4104   -0.0130 C.ar      1 <0>        -0.0269
      4 C4          2.3961    0.0270   -0.0206 C.ar      1 <0>        -0.1121
      5 C5          1.2082   -0.6795   -0.0130 C.ar      1 <0>        -0.0843
      6 C6          0.0021   -0.0041    0.0020 C.ar      1 <0>        -0.0843
      7 C7         -1.2928   -0.7750    0.0107 C.3       1 <0>         0.0875
      8 O1         -1.7154   -1.0114   -1.3338 O.3       1 <0>        -0.3630
      9 C8         -2.9406   -1.7395   -1.4384 C.3       1 <0>         0.1181
     10 H1         -3.5665   -1.5238   -0.5725 H         1 <0>         0.0885
     11 C9         -2.6400   -3.2388   -1.4897 C.3       1 <0>         0.0877
     12 N1         -2.0453   -3.6614   -0.2192 N.pl3     1 <0>        -0.4608
     13 C10        -0.7116   -3.6755    0.0884 C.2       1 <0>        -0.0532
     14 C11        -0.6078   -4.1309    1.3514 C.2       1 <0>        -0.0267
     15 N2         -1.8445   -4.3878    1.8028 N.2       1 <0>        -0.4883
     16 C12        -2.7109   -4.1042    0.8691 C.2       1 <0>         0.1826
     17 C13        -3.6632   -1.3287   -2.6954 C.ar      1 <0>        -0.0827
     18 C14        -2.9524   -0.8197   -3.7662 C.ar      1 <0>        -0.0617
     19 C15        -3.6144   -0.4428   -4.9193 C.ar      1 <0>        -0.1051
     20 C16        -4.9894   -0.5752   -5.0028 C.ar      1 <0>        -0.0176
     21 C17        -5.7010   -1.0849   -3.9319 C.ar      1 <0>        -0.1015
     22 C18        -5.0372   -1.4665   -2.7796 C.ar      1 <0>        -0.0168
     23 Cl1        -5.9289   -2.1120   -1.4372 Cl        1 <0>        -0.0503
     24 Cl2        -5.8209   -0.1012   -6.4511 Cl        1 <0>        -0.0495
     25 Cl3         3.8696    2.2984   -0.0231 Cl        1 <0>        -0.0658
     26 H2         -0.9592    1.9053    0.0259 H         1 <0>         0.1320
     27 H3          1.1558    3.1656    0.0076 H         1 <0>         0.1359
     28 H4          3.3383   -0.5007   -0.0327 H         1 <0>         0.1367
     29 H5          1.2222   -1.7594   -0.0193 H         1 <0>         0.1326
     30 H6         -1.1447   -1.7283    0.5180 H         1 <0>         0.0827
     31 H7         -2.0551   -0.1989    0.5352 H         1 <0>         0.0591
     32 H8         -3.5655   -3.7893   -1.6585 H         1 <0>         0.1065
     33 H9         -1.9429   -3.4420   -2.3026 H         1 <0>         0.1060
     34 H10         0.1013   -3.3788   -0.5578 H         1 <0>         0.1732
     35 H11         0.3102   -4.2656    1.9041 H         1 <0>         0.1708
     36 H12        -3.7827   -4.2087    0.9521 H         1 <0>         0.2027
     37 H13        -1.8793   -0.7161   -3.7015 H         1 <0>         0.1518
     38 H14        -3.0587   -0.0445   -5.7553 H         1 <0>         0.1448
     39 H15        -6.7741   -1.1884   -3.9966 H         1 <0>         0.1491
@<TRIPOS>BOND
     1    1    6 ar
     2    1    2 ar
     3    1   26 1
     4    2    3 ar
     5    2   27 1
     6    3    4 ar
     7    3   25 1
     8    4    5 ar
     9    4   28 1
    10    5    6 ar
    11    5   29 1
    12    6    7 1
    13    7    8 1
    14    7   30 1
    15    7   31 1
    16    8    9 1
    17    9   10 1
    18    9   11 1
    19    9   17 1
    20   11   12 1
    21   11   32 1
    22   11   33 1
    23   12   16 1
    24   12   13 1
    25   13   14 2
    26   13   34 1
    27   14   15 1
    28   14   35 1
    29   15   16 2
    30   16   36 1
    31   17   22 ar
    32   17   18 ar
    33   18   19 ar
    34   18   37 1
    35   19   20 ar
    36   19   38 1
    37   20   21 ar
    38   20   24 1
    39   21   22 ar
    40   21   39 1
    41   22   23 1
@<TRIPOS>MOLECULE
ZINC00643055
   40    42     0     0     0
SMALL
USER_CHARGES

@<TRIPOS>ATOM
      1 C1         -0.0167    1.3782    0.0096 C.ar      1 <0>        -0.0949
      2 C2          1.1706    2.0858    0.0021 C.ar      1 <0>        -0.1091
      3 C3          2.3780    1.4104   -0.0130 C.ar      1 <0>        -0.0205
      4 C4          2.3961    0.0270   -0.0206 C.ar      1 <0>        -0.1039
      5 C5          1.2082   -0.6795   -0.0130 C.ar      1 <0>        -0.0770
      6 C6          0.0021   -0.0041    0.0020 C.ar      1 <0>        -0.1018
      7 C7         -1.2928   -0.7750    0.0107 C.3       1 <0>         0.1013
      8 O1         -1.7154   -1.0114   -1.3338 O.3       1 <0>        -0.3567
      9 C8         -2.9406   -1.7395   -1.4384 C.3       1 <0>         0.1188
     10 H1         -3.0408   -2.4068   -0.5824 H         1 <0>         0.0975
     11 C9         -4.1156   -0.7599   -1.4618 C.3       1 <0>         0.0714
     12 N1         -4.1909   -0.0569   -0.1787 N.pl3     1 <0>        -0.4097
     13 C10        -4.8918   -0.4572    0.9269 C.2       1 <0>         0.0247
     14 C11        -4.6864    0.4749    1.8770 C.2       1 <0>         0.0095
     15 N2         -3.8820    1.4185    1.3655 N.pl3     1 <0>        -0.4752
     16 C12        -3.5771    1.1041    0.1362 C.cat     1 <0>         0.2860
     17 C13        -2.9365   -2.5496   -2.7091 C.ar      1 <0>        -0.1006
     18 C14        -2.1520   -2.1559   -3.7771 C.ar      1 <0>        -0.0575
     19 C15        -2.1478   -2.8983   -4.9428 C.ar      1 <0>        -0.1030
     20 C16        -2.9286   -4.0365   -5.0414 C.ar      1 <0>        -0.0088
     21 C17        -3.7134   -4.4311   -3.9731 C.ar      1 <0>        -0.0993
     22 C18        -3.7135   -3.6901   -2.8046 C.ar      1 <0>        -0.0136
     23 Cl1        -4.6936   -4.1880   -1.4610 Cl        1 <0>        -0.0519
     24 Cl2        -2.9236   -4.9686   -6.5059 Cl        1 <0>        -0.0354
     25 Cl3         3.8696    2.2984   -0.0231 Cl        1 <0>        -0.0493
     26 H2         -0.9592    1.9053    0.0259 H         1 <0>         0.1172
     27 H3          1.1558    3.1656    0.0076 H         1 <0>         0.1404
     28 H4          3.3383   -0.5007   -0.0327 H         1 <0>         0.1427
     29 H5          1.2222   -1.7594   -0.0193 H         1 <0>         0.1369
     30 H6         -1.1447   -1.7283    0.5180 H         1 <0>         0.0750
     31 H7         -2.0551   -0.1989    0.5352 H         1 <0>         0.0410
     32 H8         -3.9699   -0.0368   -2.2643 H         1 <0>         0.1365
     33 H9         -5.0424   -1.3082   -1.6306 H         1 <0>         0.1372
     34 H10        -5.4940   -1.3489    1.0193 H         1 <0>         0.2244
     35 H11        -5.0973    0.4644    2.8757 H         1 <0>         0.2275
     36 H12        -2.9414    1.6785   -0.5213 H         1 <0>         0.2571
     37 H13        -1.5424   -1.2677   -3.7007 H         1 <0>         0.1533
     38 H14        -1.5352   -2.5899   -5.7771 H         1 <0>         0.1495
     39 H15        -4.3230   -5.3193   -4.0495 H         1 <0>         0.1536
     40 H16        -3.5728    2.2082    1.8363 H         1 <0>         0.4667
@<TRIPOS>BOND
     1    1    6 ar
     2    1    2 ar
     3    1   26 1
     4    2    3 ar
     5    2   27 1
     6    3    4 ar
     7    3   25 1
     8    4    5 ar
     9    4   28 1
    10    5    6 ar
    11    5   29 1
    12    6    7 1
    13    7    8 1
    14    7   30 1
    15    7   31 1
    16    8    9 1
    17    9   10 1
    18    9   11 1
    19    9   17 1
    20   11   12 1
    21   11   32 1
    22   11   33 1
    23   12   16 1
    24   12   13 1
    25   13   14 2
    26   13   34 1
    27   14   15 1
    28   14   35 1
    29   15   16 2
    30   15   40 1
    31   16   36 1
    32   17   22 ar
    33   17   18 ar
    34   18   19 ar
    35   18   37 1
    36   19   20 ar
    37   19   38 1
    38   20   21 ar
    39   20   24 1
    40   21   22 ar
    41   21   39 1
    42   22   23 1
@<TRIPOS>MOLECULE
ZINC00643055
   39    41     0     0     0
SMALL
USER_CHARGES

@<TRIPOS>ATOM
      1 C1         -0.0167    1.3782    0.0096 C.ar      1 <0>        -0.0821
      2 C2          1.1706    2.0858    0.0021 C.ar      1 <0>        -0.1113
      3 C3          2.3780    1.4104   -0.0130 C.ar      1 <0>        -0.0264
      4 C4          2.3961    0.0270   -0.0206 C.ar      1 <0>        -0.1130
      5 C5          1.2082   -0.6795   -0.0130 C.ar      1 <0>        -0.0851
      6 C6          0.0021   -0.0041    0.0020 C.ar      1 <0>        -0.0860
      7 C7         -1.2928   -0.7750    0.0107 C.3       1 <0>         0.0901
      8 O1         -1.7154   -1.0114   -1.3338 O.3       1 <0>        -0.3634
      9 C8         -2.9406   -1.7395   -1.4384 C.3       1 <0>         0.1180
     10 H1         -3.0408   -2.4068   -0.5824 H         1 <0>         0.0887
     11 C9         -4.1156   -0.7599   -1.4618 C.3       1 <0>         0.0874
     12 N1         -4.1909   -0.0569   -0.1787 N.pl3     1 <0>        -0.4612
     13 C10        -4.8922   -0.4569    0.9267 C.2       1 <0>        -0.0564
     14 C11        -4.6866    0.4750    1.8769 C.2       1 <0>        -0.0247
     15 N2         -3.8818    1.4184    1.3656 N.2       1 <0>        -0.4886
     16 C12        -3.5768    1.1038    0.1364 C.2       1 <0>         0.1834
     17 C13        -2.9365   -2.5496   -2.7091 C.ar      1 <0>        -0.0828
     18 C14        -2.1520   -2.1559   -3.7771 C.ar      1 <0>        -0.0615
     19 C15        -2.1478   -2.8983   -4.9428 C.ar      1 <0>        -0.1050
     20 C16        -2.9286   -4.0365   -5.0414 C.ar      1 <0>        -0.0175
     21 C17        -3.7134   -4.4311   -3.9731 C.ar      1 <0>        -0.1018
     22 C18        -3.7135   -3.6901   -2.8046 C.ar      1 <0>        -0.0167
     23 Cl1        -4.6936   -4.1880   -1.4610 Cl        1 <0>        -0.0510
     24 Cl2        -2.9236   -4.9686   -6.5059 Cl        1 <0>        -0.0496
     25 Cl3         3.8696    2.2984   -0.0231 Cl        1 <0>        -0.0661
     26 H2         -0.9592    1.9053    0.0259 H         1 <0>         0.1332
     27 H3          1.1558    3.1656    0.0076 H         1 <0>         0.1371
     28 H4          3.3383   -0.5007   -0.0327 H         1 <0>         0.1358
     29 H5          1.2222   -1.7594   -0.0193 H         1 <0>         0.1319
     30 H6         -1.1447   -1.7283    0.5180 H         1 <0>         0.0601
     31 H7         -2.0551   -0.1989    0.5352 H         1 <0>         0.0791
     32 H8         -3.9699   -0.0368   -2.2643 H         1 <0>         0.1078
     33 H9         -5.0424   -1.3082   -1.6306 H         1 <0>         0.1051
     34 H10        -5.4948   -1.3484    1.0190 H         1 <0>         0.1736
     35 H11        -5.0977    0.4646    2.8755 H         1 <0>         0.1710
     36 H12        -2.9407    1.6780   -0.5210 H         1 <0>         0.2011
     37 H13        -1.5424   -1.2677   -3.7007 H         1 <0>         0.1526
     38 H14        -1.5352   -2.5899   -5.7771 H         1 <0>         0.1451
     39 H15        -4.3230   -5.3193   -4.0495 H         1 <0>         0.1489
@<TRIPOS>BOND
     1    1    6 ar
     2    1    2 ar
     3    1   26 1
     4    2    3 ar
     5    2   27 1
     6    3    4 ar
     7    3   25 1
     8    4    5 ar
     9    4   28 1
    10    5    6 ar
    11    5   29 1
    12    6    7 1
    13    7    8 1
    14    7   30 1
    15    7   31 1
    16    8    9 1
    17    9   10 1
    18    9   11 1
    19    9   17 1
    20   11   12 1
    21   11   32 1
    22   11   33 1
    23   12   16 1
    24   12   13 1
    25   13   14 2
    26   13   34 1
    27   14   15 1
    28   14   35 1
    29   15   16 2
    30   16   36 1
    31   17   22 ar
    32   17   18 ar
    33   18   19 ar
    34   18   37 1
    35   19   20 ar
    36   19   38 1
    37   20   21 ar
    38   20   24 1
    39   21   22 ar
    40   21   39 1
    41   22   23 1
@<TRIPOS>MOLECULE
ZINC00607971
   40    42     0     0     0
SMALL
USER_CHARGES

@<TRIPOS>ATOM
      1 C1         -0.0167    1.3792    0.0096 C.ar      1 <0>        -0.1007
      2 C2          1.1708    2.0869    0.0021 C.ar      1 <0>        -0.0710
      3 C3          2.3773    1.4131   -0.0135 C.ar      1 <0>        -0.0906
      4 C4          2.3974    0.0294   -0.0212 C.ar      1 <0>        -0.0206
      5 C5          1.2096   -0.6792   -0.0132 C.ar      1 <0>        -0.0973
      6 C6          0.0021   -0.0041    0.0020 C.ar      1 <0>        -0.0177
      7 Cl1        -1.4893   -0.8926    0.0121 Cl        1 <0>        -0.0399
      8 Cl2         3.9130   -0.8168   -0.0414 Cl        1 <0>        -0.0570
      9 C7          3.6714    2.1853   -0.0227 C.3       1 <0>         0.0967
     10 O1          3.3901    3.5863   -0.0128 O.3       1 <0>        -0.3585
     11 C8          4.5556    4.4132   -0.0205 C.3       1 <0>         0.1220
     12 H1          5.3616    3.9002   -0.5451 H         1 <0>         0.0957
     13 C9          4.9861    4.7010    1.4192 C.3       1 <0>         0.0716
     14 N1          5.4009    3.4525    2.0638 N.pl3     1 <0>        -0.4117
     15 C10         4.5959    2.5906    2.7585 C.2       1 <0>         0.0302
     16 C11         5.3789    1.5784    3.1778 C.2       1 <0>         0.0054
     17 N2          6.6280    1.8158    2.7507 N.pl3     1 <0>        -0.4718
     18 C12         6.6478    2.9340    2.0784 C.cat     1 <0>         0.2862
     19 C13         4.2462    5.7110   -0.7212 C.ar      1 <0>        -0.1000
     20 C14         2.9457    6.1775   -0.7692 C.ar      1 <0>        -0.0580
     21 C15         2.6612    7.3675   -1.4116 C.ar      1 <0>        -0.1019
     22 C16         3.6781    8.0931   -2.0070 C.ar      1 <0>        -0.0089
     23 C17         4.9794    7.6271   -1.9589 C.ar      1 <0>        -0.0983
     24 C18         5.2644    6.4381   -1.3114 C.ar      1 <0>        -0.0131
     25 Cl3         6.8983    5.8554   -1.2454 Cl        1 <0>        -0.0545
     26 Cl4         3.3204    9.5877   -2.8144 Cl        1 <0>        -0.0347
     27 H2         -0.9592    1.9062    0.0260 H         1 <0>         0.1470
     28 H3          1.1557    3.1667    0.0080 H         1 <0>         0.1515
     29 H4          1.2248   -1.7590   -0.0191 H         1 <0>         0.1506
     30 H5          4.2557    1.9258    0.8601 H         1 <0>         0.0625
     31 H6          4.2377    1.9347   -0.9198 H         1 <0>         0.0786
     32 H7          5.8203    5.4026    1.4156 H         1 <0>         0.1341
     33 H8          4.1501    5.1334    1.9689 H         1 <0>         0.1404
     34 H9          3.5364    2.7013    2.9365 H         1 <0>         0.2241
     35 H10         5.0575    0.7251    3.7566 H         1 <0>         0.2262
     36 H11         7.5177    3.3735    1.6130 H         1 <0>         0.2599
     37 H12         2.1518    5.6116   -0.3047 H         1 <0>         0.1528
     38 H13         1.6450    7.7312   -1.4494 H         1 <0>         0.1501
     39 H14         5.7734    8.1930   -2.4234 H         1 <0>         0.1537
     40 H15         7.3950    1.2444    2.9128 H         1 <0>         0.4669
@<TRIPOS>BOND
     1    1    6 ar
     2    1    2 ar
     3    1   27 1
     4    2    3 ar
     5    2   28 1
     6    3    4 ar
     7    3    9 1
     8    4    5 ar
     9    4    8 1
    10    5    6 ar
    11    5   29 1
    12    6    7 1
    13    9   10 1
    14    9   30 1
    15    9   31 1
    16   10   11 1
    17   11   12 1
    18   11   13 1
    19   11   19 1
    20   13   14 1
    21   13   32 1
    22   13   33 1
    23   14   18 1
    24   14   15 1
    25   15   16 2
    26   15   34 1
    27   16   17 1
    28   16   35 1
    29   17   18 2
    30   17   40 1
    31   18   36 1
    32   19   24 ar
    33   19   20 ar
    34   20   21 ar
    35   20   37 1
    36   21   22 ar
    37   21   38 1
    38   22   23 ar
    39   22   26 1
    40   23   24 ar
    41   23   39 1
    42   24   25 1
@<TRIPOS>MOLECULE
ZINC00607971
   39    41     0     0     0
SMALL
USER_CHARGES

@<TRIPOS>ATOM
      1 C1         -0.0167    1.3792    0.0096 C.ar      1 <0>        -0.1048
      2 C2          1.1708    2.0869    0.0021 C.ar      1 <0>        -0.0750
      3 C3          2.3773    1.4131   -0.0135 C.ar      1 <0>        -0.0723
      4 C4          2.3974    0.0294   -0.0212 C.ar      1 <0>        -0.0216
      5 C5          1.2096   -0.6792   -0.0132 C.ar      1 <0>        -0.0995
      6 C6          0.0021   -0.0041    0.0020 C.ar      1 <0>        -0.0247
      7 Cl1        -1.4893   -0.8926    0.0121 Cl        1 <0>        -0.0542
      8 Cl2         3.9130   -0.8168   -0.0414 Cl        1 <0>        -0.0471
      9 C7          3.6714    2.1853   -0.0227 C.3       1 <0>         0.0868
     10 O1          3.3901    3.5863   -0.0128 O.3       1 <0>        -0.3671
     11 C8          4.5556    4.4132   -0.0205 C.3       1 <0>         0.1203
     12 H1          5.3616    3.9002   -0.5451 H         1 <0>         0.0900
     13 C9          4.9861    4.7010    1.4192 C.3       1 <0>         0.0882
     14 N1          5.4009    3.4525    2.0638 N.pl3     1 <0>        -0.4624
     15 C10         4.5960    2.5909    2.7589 C.2       1 <0>        -0.0515
     16 C11         5.3790    1.5786    3.1781 C.2       1 <0>        -0.0235
     17 N2          6.6280    1.8156    2.7505 N.2       1 <0>        -0.4865
     18 C12         6.6477    2.9338    2.0780 C.2       1 <0>         0.1814
     19 C13         4.2462    5.7110   -0.7212 C.ar      1 <0>        -0.0826
     20 C14         2.9457    6.1775   -0.7692 C.ar      1 <0>        -0.0629
     21 C15         2.6612    7.3675   -1.4116 C.ar      1 <0>        -0.1048
     22 C16         3.6781    8.0931   -2.0070 C.ar      1 <0>        -0.0174
     23 C17         4.9794    7.6271   -1.9589 C.ar      1 <0>        -0.1007
     24 C18         5.2644    6.4381   -1.3114 C.ar      1 <0>        -0.0164
     25 Cl3         6.8983    5.8554   -1.2454 Cl        1 <0>        -0.0493
     26 Cl4         3.3204    9.5877   -2.8144 Cl        1 <0>        -0.0490
     27 H2         -0.9592    1.9062    0.0260 H         1 <0>         0.1420
     28 H3          1.1557    3.1667    0.0080 H         1 <0>         0.1492
     29 H4          1.2248   -1.7590   -0.0191 H         1 <0>         0.1470
     30 H5          4.2557    1.9258    0.8601 H         1 <0>         0.0957
     31 H6          4.2377    1.9347   -0.9198 H         1 <0>         0.0696
     32 H7          5.8203    5.4026    1.4156 H         1 <0>         0.1070
     33 H8          4.1501    5.1334    1.9689 H         1 <0>         0.1064
     34 H9          3.5366    2.7018    2.9373 H         1 <0>         0.1730
     35 H10         5.0576    0.7254    3.7570 H         1 <0>         0.1693
     36 H11         7.5175    3.3730    1.6123 H         1 <0>         0.2021
     37 H12         2.1518    5.6116   -0.3047 H         1 <0>         0.1508
     38 H13         1.6450    7.7312   -1.4494 H         1 <0>         0.1451
     39 H14         5.7734    8.1930   -2.4234 H         1 <0>         0.1494
@<TRIPOS>BOND
     1    1    6 ar
     2    1    2 ar
     3    1   27 1
     4    2    3 ar
     5    2   28 1
     6    3    4 ar
     7    3    9 1
     8    4    5 ar
     9    4    8 1
    10    5    6 ar
    11    5   29 1
    12    6    7 1
    13    9   10 1
    14    9   30 1
    15    9   31 1
    16   10   11 1
    17   11   12 1
    18   11   13 1
    19   11   19 1
    20   13   14 1
    21   13   32 1
    22   13   33 1
    23   14   18 1
    24   14   15 1
    25   15   16 2
    26   15   34 1
    27   16   17 1
    28   16   35 1
    29   17   18 2
    30   18   36 1
    31   19   24 ar
    32   19   20 ar
    33   20   21 ar
    34   20   37 1
    35   21   22 ar
    36   21   38 1
    37   22   23 ar
    38   22   26 1
    39   23   24 ar
    40   23   39 1
    41   24   25 1
@<TRIPOS>MOLECULE
ZINC00896740
   40    42     0     0     0
SMALL
USER_CHARGES

@<TRIPOS>ATOM
      1 C1         -0.0167    1.3792    0.0096 C.ar      1 <0>        -0.1004
      2 C2          1.1708    2.0869    0.0021 C.ar      1 <0>        -0.0703
      3 C3          2.3773    1.4131   -0.0135 C.ar      1 <0>        -0.0961
      4 C4          2.3974    0.0294   -0.0212 C.ar      1 <0>        -0.0232
      5 C5          1.2096   -0.6792   -0.0132 C.ar      1 <0>        -0.0971
      6 C6          0.0021   -0.0041    0.0020 C.ar      1 <0>        -0.0168
      7 Cl1        -1.4893   -0.8926    0.0121 Cl        1 <0>        -0.0380
      8 Cl2         3.9130   -0.8168   -0.0414 Cl        1 <0>        -0.0546
      9 C7          3.6714    2.1853   -0.0227 C.3       1 <0>         0.1018
     10 O1          3.3901    3.5863   -0.0128 O.3       1 <0>        -0.3602
     11 C8          4.5556    4.4132   -0.0205 C.3       1 <0>         0.1211
     12 H1          5.3720    3.8950    0.4825 H         1 <0>         0.0990
     13 C9          4.9569    4.7156   -1.4656 C.3       1 <0>         0.0723
     14 N1          5.3585    3.4737   -2.1309 N.pl3     1 <0>        -0.4122
     15 C10         6.6206    2.9454   -2.1716 C.2       1 <0>         0.0243
     16 C11         6.5424    1.8038   -2.8816 C.2       1 <0>         0.0093
     17 N2          5.2674    1.6394   -3.2640 N.pl3     1 <0>        -0.4746
     18 C12         4.5515    2.6333   -2.8137 C.cat     1 <0>         0.2904
     19 C13         4.2606    5.7038    0.6995 C.ar      1 <0>        -0.1005
     20 C14         2.9600    6.1639    0.7884 C.ar      1 <0>        -0.0587
     21 C15         2.6886    7.3473    1.4484 C.ar      1 <0>        -0.1027
     22 C16         3.7188    8.0723    2.0212 C.ar      1 <0>        -0.0086
     23 C17         5.0201    7.6123    1.9331 C.ar      1 <0>        -0.0985
     24 C18         5.2906    6.4250    1.2763 C.ar      1 <0>        -0.0132
     25 Cl3         6.9229    5.8437    1.1703 Cl        1 <0>        -0.0508
     26 Cl4         3.3778    9.5592    2.8499 Cl        1 <0>        -0.0349
     27 H2         -0.9592    1.9062    0.0260 H         1 <0>         0.1480
     28 H3          1.1557    3.1667    0.0080 H         1 <0>         0.1529
     29 H4          1.2248   -1.7590   -0.0191 H         1 <0>         0.1512
     30 H5          4.2557    1.9258    0.8601 H         1 <0>         0.0836
     31 H6          4.2377    1.9347   -0.9198 H         1 <0>         0.0506
     32 H7          4.1099    5.1534   -1.9939 H         1 <0>         0.1372
     33 H8          5.7910    5.4172   -1.4718 H         1 <0>         0.1376
     34 H9          7.5085    3.3639   -1.7212 H         1 <0>         0.2241
     35 H10         7.3626    1.1373   -3.1041 H         1 <0>         0.2266
     36 H11         3.4900    2.7635   -2.9643 H         1 <0>         0.2586
     37 H12         2.1557    5.5984    0.3415 H         1 <0>         0.1524
     38 H13         1.6724    7.7066    1.5169 H         1 <0>         0.1499
     39 H14         5.8245    8.1778    2.3799 H         1 <0>         0.1538
     40 H15         4.9299    0.8970   -3.7893 H         1 <0>         0.4666
@<TRIPOS>BOND
     1    1    6 ar
     2    1    2 ar
     3    1   27 1
     4    2    3 ar
     5    2   28 1
     6    3    4 ar
     7    3    9 1
     8    4    5 ar
     9    4    8 1
    10    5    6 ar
    11    5   29 1
    12    6    7 1
    13    9   10 1
    14    9   30 1
    15    9   31 1
    16   10   11 1
    17   11   12 1
    18   11   13 1
    19   11   19 1
    20   13   14 1
    21   13   32 1
    22   13   33 1
    23   14   18 1
    24   14   15 1
    25   15   16 2
    26   15   34 1
    27   16   17 1
    28   16   35 1
    29   17   18 2
    30   17   40 1
    31   18   36 1
    32   19   24 ar
    33   19   20 ar
    34   20   21 ar
    35   20   37 1
    36   21   22 ar
    37   21   38 1
    38   22   23 ar
    39   22   26 1
    40   23   24 ar
    41   23   39 1
    42   24   25 1
@<TRIPOS>MOLECULE
ZINC00896740
   39    41     0     0     0
SMALL
USER_CHARGES

@<TRIPOS>ATOM
      1 C1         -0.0167    1.3792    0.0096 C.ar      1 <0>        -0.1052
      2 C2          1.1708    2.0869    0.0021 C.ar      1 <0>        -0.0748
      3 C3          2.3773    1.4131   -0.0135 C.ar      1 <0>        -0.0741
      4 C4          2.3974    0.0294   -0.0212 C.ar      1 <0>        -0.0187
      5 C5          1.2096   -0.6792   -0.0132 C.ar      1 <0>        -0.0996
      6 C6          0.0021   -0.0041    0.0020 C.ar      1 <0>        -0.0239
      7 Cl1        -1.4893   -0.8926    0.0121 Cl        1 <0>        -0.0543
      8 Cl2         3.9130   -0.8168   -0.0414 Cl        1 <0>        -0.0473
      9 C7          3.6714    2.1853   -0.0227 C.3       1 <0>         0.0894
     10 O1          3.3901    3.5863   -0.0128 O.3       1 <0>        -0.3675
     11 C8          4.5556    4.4132   -0.0205 C.3       1 <0>         0.1203
     12 H1          5.3720    3.8950    0.4825 H         1 <0>         0.0901
     13 C9          4.9569    4.7156   -1.4656 C.3       1 <0>         0.0880
     14 N1          5.3585    3.4737   -2.1309 N.pl3     1 <0>        -0.4630
     15 C10         6.6207    2.9457   -2.1720 C.2       1 <0>        -0.0578
     16 C11         6.5425    1.8039   -2.8819 C.2       1 <0>        -0.0235
     17 N2          5.2673    1.6393   -3.2638 N.2       1 <0>        -0.4848
     18 C12         4.5514    2.6330   -2.8133 C.2       1 <0>         0.1858
     19 C13         4.2606    5.7038    0.6995 C.ar      1 <0>        -0.0827
     20 C14         2.9600    6.1639    0.7884 C.ar      1 <0>        -0.0627
     21 C15         2.6886    7.3473    1.4484 C.ar      1 <0>        -0.1047
     22 C16         3.7188    8.0723    2.0212 C.ar      1 <0>        -0.0173
     23 C17         5.0201    7.6123    1.9331 C.ar      1 <0>        -0.1010
     24 C18         5.2906    6.4250    1.2763 C.ar      1 <0>        -0.0164
     25 Cl3         6.9229    5.8437    1.1703 Cl        1 <0>        -0.0500
     26 Cl4         3.3778    9.5592    2.8499 Cl        1 <0>        -0.0491
     27 H2         -0.9592    1.9062    0.0260 H         1 <0>         0.1422
     28 H3          1.1557    3.1667    0.0080 H         1 <0>         0.1496
     29 H4          1.2248   -1.7590   -0.0191 H         1 <0>         0.1469
     30 H5          4.2557    1.9258    0.8601 H         1 <0>         0.0703
     31 H6          4.2377    1.9347   -0.9198 H         1 <0>         0.0923
     32 H7          4.1099    5.1534   -1.9939 H         1 <0>         0.1081
     33 H8          5.7910    5.4172   -1.4718 H         1 <0>         0.1055
     34 H9          7.5086    3.3644   -1.7220 H         1 <0>         0.1730
     35 H10         7.3627    1.1376   -3.1046 H         1 <0>         0.1698
     36 H11         3.4898    2.7630   -2.9636 H         1 <0>         0.2009
     37 H12         2.1557    5.5984    0.3415 H         1 <0>         0.1516
     38 H13         1.6724    7.7066    1.5169 H         1 <0>         0.1454
     39 H14         5.8245    8.1778    2.3799 H         1 <0>         0.1491
@<TRIPOS>BOND
     1    1    6 ar
     2    1    2 ar
     3    1   27 1
     4    2    3 ar
     5    2   28 1
     6    3    4 ar
     7    3    9 1
     8    4    5 ar
     9    4    8 1
    10    5    6 ar
    11    5   29 1
    12    6    7 1
    13    9   10 1
    14    9   30 1
    15    9   31 1
    16   10   11 1
    17   11   12 1
    18   11   13 1
    19   11   19 1
    20   13   14 1
    21   13   32 1
    22   13   33 1
    23   14   18 1
    24   14   15 1
    25   15   16 2
    26   15   34 1
    27   16   17 1
    28   16   35 1
    29   17   18 2
    30   18   36 1
    31   19   24 ar
    32   19   20 ar
    33   20   21 ar
    34   20   37 1
    35   21   22 ar
    36   21   38 1
    37   22   23 ar
    38   22   26 1
    39   23   24 ar
    40   23   39 1
    41   24   25 1
@<TRIPOS>MOLECULE
ZINC00602032
   54    57     0     0     0
SMALL
USER_CHARGES
5-chloro-N-[2-(4-fluorophenyl)-1-[(4-hydroxy-1-piperidyl)carbonyl]ethyl]-1H-indole-2-carboxamide
@<TRIPOS>ATOM
      1 C1          6.2064    2.7071    0.6246 C.ar      1 <0>        -0.0773
      2 C2          7.4569    3.2944    0.5925 C.ar      1 <0>        -0.1441
      3 C3          8.5227    2.6214    0.0195 C.ar      1 <0>         0.1024
      4 C4          8.3353    1.3584   -0.5160 C.ar      1 <0>        -0.1422
      5 C5          7.0849    0.7709   -0.4781 C.ar      1 <0>        -0.0787
      6 C6          6.0216    1.4438    0.0943 C.ar      1 <0>        -0.0834
      7 C7          4.6585    0.8024    0.1346 C.3       1 <0>        -0.0907
      8 C8          4.5124   -0.0041    1.4266 C.3       1 <0>         0.1359
      9 H1          4.7236    0.6382    2.2816 H         1 <0>         0.1207
     10 C9          3.1055   -0.5339    1.5317 C.2       1 <0>         0.5178
     11 O1          2.8977   -1.7252    1.4396 O.2       1 <0>        -0.5321
     12 N1          2.0782    0.3162    1.7280 N.am      1 <0>        -0.6063
     13 C10         2.3204    1.7539    1.9093 C.3       1 <0>         0.1007
     14 C11         1.6427    2.2084    3.2058 C.3       1 <0>        -0.1314
     15 C12         0.1628    1.8204    3.1663 C.3       1 <0>         0.1050
     16 C13         0.0352    0.2989    3.0622 C.3       1 <0>        -0.1689
     17 C14         0.6948   -0.1772    1.7641 C.3       1 <0>         0.1132
     18 O2         -0.4797    2.2715    4.3603 O.3       1 <0>        -0.5653
     19 N2          5.4563   -1.1243    1.4124 N.am      1 <0>        -0.7148
     20 C15         6.7267   -0.9404    1.8234 C.2       1 <0>         0.5875
     21 O3          7.0895    0.1558    2.2060 O.2       1 <0>        -0.4969
     22 C16         7.6742   -2.0649    1.8091 C.2       1 <0>         0.0184
     23 C17         8.9748   -2.0040    2.1974 C.2       1 <0>        -0.0946
     24 C18         9.5356   -3.2933    2.0304 C.ar      1 <0>        -0.1108
     25 C19        10.8111   -3.8249    2.2617 C.ar      1 <0>        -0.0482
     26 C20        11.0561   -5.1417    1.9969 C.ar      1 <0>        -0.0606
     27 C21        10.0500   -5.9624    1.4994 C.ar      1 <0>        -0.0778
     28 C22         8.7889   -5.4628    1.2649 C.ar      1 <0>        -0.1174
     29 C23         8.5150   -4.1232    1.5269 C.ar      1 <0>         0.1181
     30 N3          7.3822   -3.3530    1.4044 N.pl3     1 <0>        -0.5758
     31 H2          6.5205   -3.6629    1.0845 H         1 <0>         0.4201
     32 Cl1        12.6378   -5.7971    2.2837 Cl        1 <0>        -0.0686
     33 F1          9.7447    3.1965   -0.0167 F         1 <0>        -0.1411
     34 H3          5.3740    3.2335    1.0678 H         1 <0>         0.1277
     35 H4          7.6020    4.2796    1.0105 H         1 <0>         0.1334
     36 H5          9.1659    0.8324   -0.9629 H         1 <0>         0.1310
     37 H6          6.9386   -0.2144   -0.8954 H         1 <0>         0.1203
     38 H7          4.5436    0.1390   -0.7226 H         1 <0>         0.0858
     39 H8          3.8916    1.5762    0.1006 H         1 <0>         0.0937
     40 H9          1.9025    2.3041    1.0663 H         1 <0>         0.0821
     41 H10         3.3924    1.9409    1.9724 H         1 <0>         0.0963
     42 H11         1.7326    3.2903    3.3035 H         1 <0>         0.0895
     43 H12         2.1230    1.7247    4.0564 H         1 <0>         0.0775
     44 H13        -0.3113    2.2846    2.3015 H         1 <0>         0.0595
     45 H14         0.5307   -0.1669    3.9141 H         1 <0>         0.0769
     46 H15        -1.0189    0.0217    3.0577 H         1 <0>         0.0816
     47 H16         0.1443    0.2154    0.9092 H         1 <0>         0.0750
     48 H17         0.6944   -1.2668    1.7324 H         1 <0>         0.0989
     49 H18        -1.4222    2.0596    4.4040 H         1 <0>         0.3814
     50 H19         5.1670   -1.9985    1.1073 H         1 <0>         0.4057
     51 H20         9.4888   -1.1289    2.5669 H         1 <0>         0.1594
     52 H21        11.5987   -3.1946    2.6473 H         1 <0>         0.1379
     53 H22        10.2599   -7.0020    1.2953 H         1 <0>         0.1399
     54 H23         8.0139   -6.1084    0.8790 H         1 <0>         0.1340
@<TRIPOS>BOND
     1    1    6 ar
     2    1    2 ar
     3    1   34 1
     4    2    3 ar
     5    2   35 1
     6    3    4 ar
     7    3   33 1
     8    4    5 ar
     9    4   36 1
    10    5    6 ar
    11    5   37 1
    12    6    7 1
    13    7    8 1
    14    7   38 1
    15    7   39 1
    16    8    9 1
    17    8   10 1
    18    8   19 1
    19   10   11 2
    20   10   12 am
    21   12   17 1
    22   12   13 1
    23   13   14 1
    24   13   40 1
    25   13   41 1
    26   14   15 1
    27   14   42 1
    28   14   43 1
    29   15   16 1
    30   15   18 1
    31   15   44 1
    32   16   17 1
    33   16   45 1
    34   16   46 1
    35   17   47 1
    36   17   48 1
    37   18   49 1
    38   19   20 am
    39   19   50 1
    40   20   21 2
    41   20   22 1
    42   22   30 1
    43   22   23 2
    44   23   24 1
    45   23   51 1
    46   24   29 ar
    47   24   25 ar
    48   25   26 ar
    49   25   52 1
    50   26   27 ar
    51   26   32 1
    52   27   28 ar
    53   27   53 1
    54   28   29 ar
    55   28   54 1
    56   29   30 1
    57   30   31 1
