@<TRIPOS>MOLECULE
ZINC03814434
   62    69     0     0     0
SMALL
USER_CHARGES

@<TRIPOS>ATOM
      1 C1         -0.1295    1.5952   -0.2973 C.3       1 <0>        -0.1687
      2 C2         -0.0862    0.0696   -0.1900 C.3       1 <0>         0.3342
      3 C3          0.5692   -0.4501   -1.4637 C.3       1 <0>         0.0405
      4 H1          1.4796    0.1159   -1.6612 H         1 <0>         0.1372
      5 C4          0.9167   -1.9328   -1.2889 C.3       1 <0>        -0.0061
      6 H2          1.3963   -2.3075   -2.1932 H         1 <0>         0.1555
      7 C5          1.8785   -2.0596   -0.1021 C.3       1 <0>        -0.1827
      8 C6          1.2061   -1.5198    1.1541 C.3       1 <0>         0.2999
      9 H3          1.9797   -1.4243    1.9161 H         1 <0>         0.1550
     10 O1          0.6555   -0.2442    0.9666 O.3       1 <0>        -0.3234
     11 N1          0.2189   -2.4746    1.6600 N.pl3     1 <0>        -0.5366
     12 C7          0.4705   -3.5508    2.4739 C.ar      1 <0>         0.1469
     13 C8          1.6649   -4.0152    3.0240 C.ar      1 <0>        -0.1522
     14 C9          1.5948   -5.1456    3.8201 C.ar      1 <0>        -0.0582
     15 C10         0.4006   -5.7997    4.0696 C.ar      1 <0>        -0.1457
     16 C11        -0.7984   -5.3597    3.5358 C.ar      1 <0>        -0.0280
     17 C12        -0.7487   -4.2198    2.7307 C.ar      1 <0>        -0.1131
     18 C13        -1.7893   -3.4830    2.0197 C.ar      1 <0>         0.0276
     19 C14        -1.1442   -2.4197    1.3841 C.ar      1 <0>         0.0376
     20 C15        -1.8806   -1.5095    0.6175 C.ar      1 <0>         0.0894
     21 N2         -1.4718   -0.3951   -0.1095 N.pl3     1 <0>        -0.5183
     22 C16        -2.5611    0.1913   -0.7090 C.ar      1 <0>         0.1618
     23 C17        -2.6521    1.3277   -1.5118 C.ar      1 <0>        -0.1305
     24 C18        -3.9109    1.6745   -1.9733 C.ar      1 <0>        -0.0737
     25 C19        -5.0393    0.9368   -1.6616 C.ar      1 <0>        -0.1358
     26 C20        -4.9745   -0.1955   -0.8662 C.ar      1 <0>        -0.0503
     27 C21        -3.7147   -0.5596   -0.3919 C.ar      1 <0>        -0.1042
     28 C22        -3.2693   -1.6660    0.4845 C.ar      1 <0>        -0.0360
     29 C23        -3.9084   -2.7313    1.1102 C.ar      1 <0>        -0.0288
     30 C24        -3.1873   -3.6421    1.8754 C.ar      1 <0>        -0.1255
     31 C25        -4.1221   -4.6480    2.4030 C.2       1 <0>         0.5632
     32 O2         -3.8062   -5.5851    3.1110 O.2       1 <0>        -0.5106
     33 N3         -5.3744   -4.3851    1.9926 N.am      1 <0>        -0.7162
     34 C26        -5.3495   -3.1771    1.1601 C.3       1 <0>         0.1358
     35 N4         -0.3067   -2.7008   -1.0216 N.4       1 <0>        -0.5252
     36 C27         0.0145   -4.1336   -0.9773 C.3       1 <0>        -0.0497
     37 O3         -0.3340   -0.2979   -2.5607 O.3       1 <0>        -0.3614
     38 C28         0.3101   -0.0933   -3.8198 C.3       1 <0>         0.0162
     39 H4          0.8261    2.0094    0.0240 H         1 <0>         0.0984
     40 H5         -0.3202    1.8814   -1.3317 H         1 <0>         0.1036
     41 H6         -0.9255    1.9818    0.3392 H         1 <0>         0.0921
     42 H7          2.1370   -3.1081    0.0458 H         1 <0>         0.1233
     43 H8          2.7835   -1.4869   -0.3048 H         1 <0>         0.1455
     44 H9          2.6036   -3.5149    2.8368 H         1 <0>         0.1365
     45 H10         2.5026   -5.5304    4.2610 H         1 <0>         0.1359
     46 H11         0.4045   -6.6780    4.6980 H         1 <0>         0.1352
     47 H12        -1.7278   -5.8736    3.7323 H         1 <0>         0.1600
     48 H13        -1.7792    1.9122   -1.7624 H         1 <0>         0.1440
     49 H14        -4.0153    2.5500   -2.5970 H         1 <0>         0.1336
     50 H15        -5.9967    1.2527   -2.0488 H         1 <0>         0.1332
     51 H16        -5.8575   -0.7687   -0.6249 H         1 <0>         0.1415
     52 H17        -6.1628   -4.9065    2.2103 H         1 <0>         0.4348
     53 H18        -5.9671   -2.3994    1.6094 H         1 <0>         0.1115
     54 H19        -5.7060   -3.4063    0.1559 H         1 <0>         0.1103
     55 H20        -0.6958   -2.4158   -0.1353 H         1 <0>         0.4186
     56 H21         0.4349   -4.4415   -1.9347 H         1 <0>         0.1256
     57 H22         0.7403   -4.3189   -0.1854 H         1 <0>         0.1191
     58 H23        -0.8932   -4.7035   -0.7789 H         1 <0>         0.1256
     59 H24         0.9168    0.8112   -3.7748 H         1 <0>         0.0633
     60 H25         0.9482   -0.9479   -4.0446 H         1 <0>         0.0514
     61 H26        -0.4433    0.0130   -4.6003 H         1 <0>         0.1100
     62 H27        -0.9785   -2.5293   -1.7546 H         1 <0>         0.4274
@<TRIPOS>BOND
     1    1    2 1
     2    1   39 1
     3    1   40 1
     4    1   41 1
     5    2   10 1
     6    2   21 1
     7    2    3 1
     8    3    4 1
     9    3    5 1
    10    3   37 1
    11    5    6 1
    12    5    7 1
    13    5   35 1
    14    7    8 1
    15    7   42 1
    16    7   43 1
    17    8    9 1
    18    8   10 1
    19    8   11 1
    20   11   19 1
    21   11   12 1
    22   12   17 ar
    23   12   13 ar
    24   13   14 ar
    25   13   44 1
    26   14   15 ar
    27   14   45 1
    28   15   16 ar
    29   15   46 1
    30   16   17 ar
    31   16   47 1
    32   17   18 1
    33   18   30 ar
    34   18   19 ar
    35   19   20 ar
    36   20   28 ar
    37   20   21 1
    38   21   22 1
    39   22   27 ar
    40   22   23 ar
    41   23   24 ar
    42   23   48 1
    43   24   25 ar
    44   24   49 1
    45   25   26 ar
    46   25   50 1
    47   26   27 ar
    48   26   51 1
    49   27   28 1
    50   28   29 ar
    51   29   34 1
    52   29   30 ar
    53   30   31 1
    54   31   32 2
    55   31   33 am
    56   33   34 1
    57   33   52 1
    58   34   53 1
    59   34   54 1
    60   35   36 1
    61   35   55 1
    62   35   62 1
    63   36   56 1
    64   36   57 1
    65   36   58 1
    66   37   38 1
    67   38   59 1
    68   38   60 1
    69   38   61 1
@<TRIPOS>MOLECULE
ZINC03871640
   66    69     0     0     0
SMALL
USER_CHARGES

@<TRIPOS>ATOM
      1 C1          0.0959    1.4674   -0.2512 C.ar      1 <0>        -0.1091
      2 C2          0.8146    0.9699   -1.3249 C.ar      1 <0>        -0.0948
      3 C3          1.9911    0.2592   -1.1091 C.ar      1 <0>        -0.1068
      4 C4          2.4469    0.0488    0.2089 C.ar      1 <0>        -0.1190
      5 C5          1.7091    0.5580    1.2818 C.ar      1 <0>         0.1242
      6 C6          0.5363    1.2651    1.0413 C.ar      1 <0>        -0.1480
      7 O1          2.1361    0.3623    2.5542 O.3       1 <0>        -0.4980
      8 C7          3.6928   -0.7035    0.4536 C.2       1 <0>         0.4852
      9 O2          4.7460   -0.1095    0.5851 O.2       1 <0>        -0.4322
     10 C8          3.6608   -2.1743    0.5387 C.ar      1 <0>        -0.1265
     11 C9          2.4342   -2.8546    0.5024 C.ar      1 <0>         0.1691
     12 C10         2.4088   -4.2360    0.5827 C.ar      1 <0>        -0.1057
     13 C11         3.6003   -4.9519    0.7000 C.ar      1 <0>        -0.0938
     14 C12         4.8221   -4.2796    0.7369 C.ar      1 <0>        -0.1165
     15 C13         4.8572   -2.8988    0.6505 C.ar      1 <0>         0.1730
     16 O3          6.0463   -2.2463    0.6804 O.3       1 <0>        -0.4652
     17 C14         3.5681   -6.4288    0.7860 C.2       1 <0>         0.5222
     18 O4          2.5055   -7.0158    0.7544 O.2       1 <0>        -0.4916
     19 O5          4.7174   -7.1220    0.8992 O.3       1 <0>        -0.3307
     20 C15         4.6117   -8.5449    0.9774 C.3       1 <0>         0.0657
     21 H1          3.7299   -8.8691    0.4248 H         1 <0>         0.1055
     22 C16         4.4640   -8.9632    2.4617 C.3       1 <0>        -0.1470
     23 C17         3.9653  -10.3824    2.5193 C.3       1 <0>        -0.1434
     24 C18         5.0937  -11.4275    2.5830 C.3       1 <0>        -0.0094
     25 N1          6.2180  -11.1401    1.6666 N.4       1 <0>        -0.4994
     26 C19         5.7588  -10.6833    0.3774 C.3       1 <0>        -0.0231
     27 C20         5.7981   -9.1464    0.3812 C.3       1 <0>         0.1310
     28 H2          6.6752   -8.8189    0.9394 H         1 <0>         0.1179
     29 N2          5.9207   -8.6760   -1.0008 N.am      1 <0>        -0.7209
     30 C21         7.1275   -8.6538   -1.6005 C.2       1 <0>         0.5793
     31 O6          8.1144   -9.0242   -0.9946 O.2       1 <0>        -0.5352
     32 C22         7.2511   -8.1798   -2.9929 C.ar      1 <0>        -0.1671
     33 C23         6.1190   -7.7483   -3.6891 C.ar      1 <0>        -0.0608
     34 C24         6.2385   -7.3064   -4.9878 C.ar      1 <0>        -0.1505
     35 C25         7.4831   -7.2896   -5.6064 C.ar      1 <0>         0.1533
     36 C26         8.6116   -7.7181   -4.9173 C.ar      1 <0>        -0.1554
     37 C27         8.5013   -8.1560   -3.6164 C.ar      1 <0>        -0.0342
     38 O7          7.5966   -6.8543   -6.8868 O.3       1 <0>        -0.4978
     39 O8          1.2748   -2.1593    0.3893 O.3       1 <0>        -0.4747
     40 C28         2.7579   -0.2720   -2.2534 C.2       1 <0>         0.5130
     41 O9          2.3100   -0.1755   -3.3872 O.co2     1 <0>        -0.6731
     42 O10         3.8408   -0.8086   -2.0675 O.co2     1 <0>        -0.6648
     43 H3         -0.8141    2.0219   -0.4264 H         1 <0>         0.1239
     44 H4          0.4610    1.1335   -2.3322 H         1 <0>         0.1348
     45 H5         -0.0334    1.6583    1.8704 H         1 <0>         0.1251
     46 H6          2.6589    1.0936    2.9105 H         1 <0>         0.3854
     47 H7          1.4651   -4.7604    0.5548 H         1 <0>         0.1491
     48 H8          5.7421   -4.8377    0.8285 H         1 <0>         0.1454
     49 H9          6.3403   -2.0050    1.5695 H         1 <0>         0.3934
     50 H10         5.4320   -8.8958    2.9582 H         1 <0>         0.0842
     51 H11         3.7505   -8.3050    2.9574 H         1 <0>         0.1075
     52 H12         3.3348  -10.4953    3.4013 H         1 <0>         0.1186
     53 H13         3.3599  -10.5759    1.6338 H         1 <0>         0.0921
     54 H14         5.4761  -11.4662    3.6030 H         1 <0>         0.1350
     55 H15         4.6795  -12.4038    2.3315 H         1 <0>         0.1342
     56 H16         6.8030  -10.4283    2.0779 H         1 <0>         0.4287
     57 H17         6.4137  -11.0674   -0.4047 H         1 <0>         0.1476
     58 H18         4.7384  -11.0263    0.2064 H         1 <0>         0.1422
     59 H19         5.1334   -8.3805   -1.4842 H         1 <0>         0.4133
     60 H20         5.1515   -7.7616   -3.2093 H         1 <0>         0.1278
     61 H21         5.3639   -6.9727   -5.5265 H         1 <0>         0.1421
     62 H22         9.5769   -7.7036   -5.4015 H         1 <0>         0.1409
     63 H23         9.3793   -8.4849   -3.0803 H         1 <0>         0.1415
     64 H24         7.7635   -5.9051   -6.9661 H         1 <0>         0.4053
     65 H25         0.9516   -2.0784   -0.5186 H         1 <0>         0.4012
     66 H26         6.7632  -11.9799    1.5424 H         1 <0>         0.4364
@<TRIPOS>BOND
     1    1    6 ar
     2    1    2 ar
     3    1   43 1
     4    2    3 ar
     5    2   44 1
     6    3    4 ar
     7    3   40 1
     8    4    5 ar
     9    4    8 1
    10    5    6 ar
    11    5    7 1
    12    6   45 1
    13    7   46 1
    14    8    9 2
    15    8   10 1
    16   10   15 ar
    17   10   11 ar
    18   11   12 ar
    19   11   39 1
    20   12   13 ar
    21   12   47 1
    22   13   14 ar
    23   13   17 1
    24   14   15 ar
    25   14   48 1
    26   15   16 1
    27   16   49 1
    28   17   18 2
    29   17   19 1
    30   19   20 1
    31   20   21 1
    32   20   27 1
    33   20   22 1
    34   22   23 1
    35   22   50 1
    36   22   51 1
    37   23   24 1
    38   23   52 1
    39   23   53 1
    40   24   25 1
    41   24   54 1
    42   24   55 1
    43   25   26 1
    44   25   56 1
    45   25   66 1
    46   26   27 1
    47   26   57 1
    48   26   58 1
    49   27   28 1
    50   27   29 1
    51   29   30 am
    52   29   59 1
    53   30   31 2
    54   30   32 1
    55   32   37 ar
    56   32   33 ar
    57   33   34 ar
    58   33   60 1
    59   34   35 ar
    60   34   61 1
    61   35   36 ar
    62   35   38 1
    63   36   37 ar
    64   36   62 1
    65   37   63 1
    66   38   64 1
    67   39   65 1
    68   40   41 2
    69   40   42 1
@<TRIPOS>MOLECULE
ZINC03872446
   28    31     0     0     0
SMALL
USER_CHARGES

@<TRIPOS>ATOM
      1 C1         -0.0167    1.3830    0.0096 C.ar      1 <0>        -0.0604
      2 C2          1.1863    2.0770    0.0019 C.ar      1 <0>        -0.1234
      3 C3          2.3926    1.3452   -0.0012 C.ar      1 <0>        -0.0764
      4 C4          3.6485    2.1050    0.0027 C.ar      1 <0>        -0.0764
      5 C5          4.8466    1.3869   -0.1987 C.ar      1 <0>        -0.1232
      6 C6          6.0497    2.0805   -0.1986 C.ar      1 <0>        -0.0590
      7 C7          6.0379    3.4562   -0.0202 C.ar      1 <0>         0.1179
      8 C8          4.8480    4.1611    0.1666 C.ar      1 <0>         0.1231
      9 C9          3.6323    3.4858    0.1873 C.ar      1 <0>         0.1200
     10 O1          2.4525    4.1170    0.4119 O.3       1 <0>        -0.2602
     11 C10         1.3009    3.5438   -0.0161 C.2       1 <0>         0.5371
     12 O2          0.3774    4.2309   -0.4091 O.2       1 <0>        -0.4121
     13 O3          4.8772    5.5099    0.3289 O.3       1 <0>        -0.4645
     14 O4          7.2160    4.1351   -0.0270 O.3       1 <0>        -0.4711
     15 C11         4.7207   -0.0622   -0.4200 C.2       1 <0>         0.5387
     16 O5          5.6013   -0.6796   -0.9881 O.2       1 <0>        -0.4109
     17 O6          3.6072   -0.6979    0.0201 O.3       1 <0>        -0.2624
     18 C12         2.4165   -0.0480   -0.0047 C.ar      1 <0>         0.1193
     19 C13         1.1993   -0.7211   -0.0097 C.ar      1 <0>         0.1247
     20 C14         0.0021   -0.0041    0.0020 C.ar      1 <0>         0.1186
     21 O7         -1.1763   -0.6825    0.0061 O.3       1 <0>        -0.4765
     22 O8          1.1759   -2.0796   -0.0262 O.3       1 <0>        -0.4696
     23 H1         -0.9555    1.9167    0.0260 H         1 <0>         0.1661
     24 H2          6.9834    1.5552   -0.3355 H         1 <0>         0.1663
     25 H3          4.8118    6.0071   -0.4979 H         1 <0>         0.4009
     26 H4          7.4868    4.4442   -0.9023 H         1 <0>         0.4006
     27 H5         -1.5229   -0.8740   -0.8761 H         1 <0>         0.4061
     28 H6          1.1714   -2.4835    0.8524 H         1 <0>         0.4066
@<TRIPOS>BOND
     1    1   20 ar
     2    1    2 ar
     3    1   23 1
     4    2   11 1
     5    2    3 ar
     6    3   18 ar
     7    3    4 1
     8    4    9 ar
     9    4    5 ar
    10    5    6 ar
    11    5   15 1
    12    6    7 ar
    13    6   24 1
    14    7    8 ar
    15    7   14 1
    16    8    9 ar
    17    8   13 1
    18    9   10 1
    19   10   11 1
    20   11   12 2
    21   13   25 1
    22   14   26 1
    23   15   16 2
    24   15   17 1
    25   17   18 1
    26   18   19 ar
    27   19   20 ar
    28   19   22 1
    29   20   21 1
    30   21   27 1
    31   22   28 1
