@<TRIPOS>MOLECULE
ZINC14806405
   48    52     0     0     0
SMALL
USER_CHARGES

@<TRIPOS>ATOM
      1 C1         -0.0167    1.3789    0.0096 C.ar      1 <0>        -0.0760
      2 C2          1.1941    2.0586    0.0017 C.ar      1 <0>        -0.1722
      3 C3          2.3751    1.3408   -0.0134 C.ar      1 <0>         0.1031
      4 N1          2.3663    0.0230   -0.0208 N.ar      1 <0>        -0.4662
      5 C4          1.2307   -0.6650   -0.0137 C.ar      1 <0>         0.2043
      6 C5          0.0021   -0.0041    0.0020 C.ar      1 <0>        -0.1413
      7 C6          1.2685   -2.1448   -0.0225 C.2       1 <0>         0.0622
      8 C7          2.3023   -2.9340   -0.5056 C.2       1 <0>         0.0852
      9 N2          1.9164   -4.2375   -0.3156 N.pl3     1 <0>        -0.5510
     10 H1          2.4258   -5.0288   -0.5508 H         1 <0>         0.4261
     11 C8          0.6805   -4.2121    0.2676 C.2       1 <0>         0.2474
     12 N3          0.3115   -2.9636    0.4406 N.2       1 <0>        -0.4438
     13 C9         -0.1115   -5.3995    0.6478 C.ar      1 <0>         0.0159
     14 C10         0.3976   -6.6810    0.4208 C.ar      1 <0>        -0.1185
     15 C11        -0.3375   -7.7833    0.7737 C.ar      1 <0>        -0.0514
     16 C12        -1.5961   -7.6252    1.3604 C.ar      1 <0>        -0.1321
     17 C13        -2.1053   -6.3436    1.5874 C.ar      1 <0>        -0.0809
     18 C14        -1.3676   -5.2413    1.2397 C.ar      1 <0>        -0.0850
     19 C15        -2.3883   -8.8125    1.7401 C.2       1 <0>         0.5625
     20 O1         -1.9455   -9.9273    1.5423 O.2       1 <0>        -0.5372
     21 N4         -3.6020   -8.6600    2.3059 N.am      1 <0>        -0.8495
     22 C16         3.5664   -2.4649   -1.1051 C.ar      1 <0>        -0.0120
     23 C17         3.5551   -1.4326   -2.0465 C.ar      1 <0>        -0.0527
     24 C18         4.7376   -0.9975   -2.6050 C.ar      1 <0>        -0.1113
     25 C19         5.9430   -1.5810   -2.2358 C.ar      1 <0>         0.0632
     26 C20         5.9618   -2.6083   -1.2970 C.ar      1 <0>         0.0505
     27 C21         4.7787   -3.0474   -0.7290 C.ar      1 <0>        -0.0989
     28 O2          7.1357   -3.1850   -0.9192 O.3       1 <0>        -0.3073
     29 C22         8.2625   -2.9725   -1.7764 C.3       1 <0>         0.0204
     30 C23         8.3169   -1.4820   -2.1376 C.3       1 <0>         0.0198
     31 O3          7.0976   -1.1376   -2.8042 O.3       1 <0>        -0.3055
     32 H2         -0.9523    1.9181    0.0259 H         1 <0>         0.1364
     33 H3          1.2128    3.1385    0.0070 H         1 <0>         0.1352
     34 H4          3.3182    1.8671   -0.0196 H         1 <0>         0.1571
     35 H5         -0.9212   -0.5644    0.0082 H         1 <0>         0.1398
     36 H6          1.3701   -6.8031   -0.0329 H         1 <0>         0.1272
     37 H7          0.0558   -8.7736    0.5980 H         1 <0>         0.1434
     38 H8         -3.0779   -6.2214    2.0408 H         1 <0>         0.1343
     39 H9         -1.7590   -4.2509    1.4195 H         1 <0>         0.1461
     40 H10        -3.9552   -7.7705    2.4638 H         1 <0>         0.4019
     41 H11        -4.1222   -9.4398    2.5553 H         1 <0>         0.4074
     42 H12         2.6203   -0.9760   -2.3366 H         1 <0>         0.1282
     43 H13         4.7270   -0.1998   -3.3330 H         1 <0>         0.1382
     44 H14         4.7925   -3.8428    0.0014 H         1 <0>         0.1309
     45 H15         9.1777   -3.2589   -1.2584 H         1 <0>         0.1238
     46 H16         8.1515   -3.5667   -2.6835 H         1 <0>         0.0784
     47 H17         8.4204   -0.8874   -1.2300 H         1 <0>         0.0797
     48 H18         9.1628   -1.2946   -2.7989 H         1 <0>         0.1240
@<TRIPOS>BOND
     1    1    6 ar
     2    1    2 ar
     3    1   32 1
     4    2    3 ar
     5    2   33 1
     6    3    4 ar
     7    3   34 1
     8    4    5 ar
     9    5    6 ar
    10    5    7 1
    11    6   35 1
    12    7   12 1
    13    7    8 2
    14    8    9 1
    15    8   22 1
    16    9   10 1
    17    9   11 1
    18   11   12 2
    19   11   13 1
    20   13   18 ar
    21   13   14 ar
    22   14   15 ar
    23   14   36 1
    24   15   16 ar
    25   15   37 1
    26   16   17 ar
    27   16   19 1
    28   17   18 ar
    29   17   38 1
    30   18   39 1
    31   19   20 2
    32   19   21 am
    33   21   40 1
    34   21   41 1
    35   22   27 ar
    36   22   23 ar
    37   23   24 ar
    38   23   42 1
    39   24   25 ar
    40   24   43 1
    41   25   31 1
    42   25   26 ar
    43   26   27 ar
    44   26   28 1
    45   27   44 1
    46   28   29 1
    47   29   30 1
    48   29   45 1
    49   29   46 1
    50   30   31 1
    51   30   47 1
    52   30   48 1
@<TRIPOS>MOLECULE
ZINC14806405
   49    53     0     0     0
SMALL
USER_CHARGES
4-[4-(2,3-dihydro-1,4-benzodioxin-6-yl)-5-(2-pyridyl)-1H-imidazol-2-yl]benzamide
@<TRIPOS>ATOM
      1 C1         -6.5267    2.4428    2.4163 C.ar      1 <0>        -0.0639
      2 C2         -5.4142    3.0273    3.0078 C.ar      1 <0>        -0.1371
      3 C3         -4.1664    2.4651    2.8120 C.ar      1 <0>         0.1158
      4 N1         -4.0189    1.3845    2.0731 N.ar      1 <0>        -0.4461
      5 C4         -5.0569    0.7935    1.4890 C.ar      1 <0>         0.1505
      6 C5         -6.3455    1.3126    1.6408 C.ar      1 <0>        -0.1450
      7 C6         -4.8462   -0.4147    0.6704 C.2       1 <0>         0.1168
      8 C7         -3.6790   -0.7837    0.0186 C.2       1 <0>         0.1451
      9 C8         -5.1511   -2.3237   -0.3898 C.cat     1 <0>         0.3788
     10 N2         -5.7682   -1.3997    0.4019 N.pl3     1 <0>        -0.5026
     11 H1         -6.7136   -1.4324    0.7262 H         1 <0>         0.4700
     12 C9         -5.7767   -3.5538   -0.9173 C.ar      1 <0>        -0.0643
     13 C10        -7.1067   -3.8493   -0.6074 C.ar      1 <0>        -0.0792
     14 C11        -7.6909   -4.9926   -1.1026 C.ar      1 <0>        -0.0767
     15 C12        -6.9508   -5.8635   -1.9066 C.ar      1 <0>        -0.0835
     16 C13        -5.6190   -5.5706   -2.2121 C.ar      1 <0>        -0.0476
     17 C14        -5.0365   -4.4246   -1.7212 C.ar      1 <0>        -0.0796
     18 C15        -7.5760   -7.0940   -2.4332 C.2       1 <0>         0.5535
     19 O1         -6.9319   -7.8518   -3.1323 O.2       1 <0>        -0.5185
     20 N3         -8.8604   -7.3765   -2.1385 N.am      1 <0>        -0.8426
     21 C16        -2.4037   -0.0293    0.0159 C.ar      1 <0>        -0.0635
     22 C17        -2.4165    1.3652    0.0254 C.ar      1 <0>        -0.0331
     23 C18        -1.2283    2.0653    0.0191 C.ar      1 <0>        -0.1143
     24 C19        -0.0168    1.3869    0.0097 C.ar      1 <0>         0.0932
     25 C20         0.0021   -0.0041    0.0020 C.ar      1 <0>         0.0531
     26 C21        -1.1882   -0.7115    0.0043 C.ar      1 <0>        -0.0880
     27 O2          1.1811   -0.6847   -0.0064 O.3       1 <0>        -0.3037
     28 C22         2.3474    0.0534   -0.3868 C.3       1 <0>         0.0192
     29 C23         2.3347    1.3914    0.3649 C.3       1 <0>         0.0172
     30 O3          1.1439    2.0983    0.0024 O.3       1 <0>        -0.2987
     31 H2         -7.5112    2.8646    2.5554 H         1 <0>         0.1508
     32 H3         -5.5231    3.9132    3.6159 H         1 <0>         0.1517
     33 H4         -3.3003    2.9181    3.2715 H         1 <0>         0.1741
     34 H5         -7.1881    0.8353    1.1628 H         1 <0>         0.1360
     35 H6         -7.6776   -3.1783    0.0174 H         1 <0>         0.1395
     36 H7         -8.7203   -5.2188   -0.8667 H         1 <0>         0.1497
     37 H8         -5.0468   -6.2438   -2.8332 H         1 <0>         0.1610
     38 H9         -4.0071   -4.1984   -1.9570 H         1 <0>         0.1413
     39 H10        -9.3743   -6.7718   -1.5807 H         1 <0>         0.4023
     40 H11        -9.2710   -8.1844   -2.4843 H         1 <0>         0.4155
     41 H12        -3.3566    1.8968    0.0354 H         1 <0>         0.1334
     42 H13        -1.2401    3.1452    0.0270 H         1 <0>         0.1473
     43 H14        -1.1748   -1.7914   -0.0032 H         1 <0>         0.1355
     44 H15         3.2419   -0.5095   -0.1204 H         1 <0>         0.1315
     45 H16         2.3336    0.2346   -1.4615 H         1 <0>         0.0842
     46 H17         2.3411    1.2094    1.4395 H         1 <0>         0.0858
     47 H18         3.2099    1.9781    0.0857 H         1 <0>         0.1322
     48 N4         -3.9128   -1.9428   -0.6137 N.pl3     1 <0>        -0.4759
     49 H19        -3.2298   -2.4543   -1.1848 H         1 <0>         0.4789
@<TRIPOS>BOND
     1    1    6 ar
     2    1    2 ar
     3    1   31 1
     4    2    3 ar
     5    2   32 1
     6    3    4 ar
     7    3   33 1
     8    4    5 ar
     9    5    6 ar
    10    5    7 1
    11    6   34 1
    12    7   10 1
    13    7    8 2
    14    8   21 1
    15    8   48 1
    16    9   10 1
    17    9   12 1
    18    9   48 2
    19   10   11 1
    20   12   17 ar
    21   12   13 ar
    22   13   14 ar
    23   13   35 1
    24   14   15 ar
    25   14   36 1
    26   15   16 ar
    27   15   18 1
    28   16   17 ar
    29   16   37 1
    30   17   38 1
    31   18   19 2
    32   18   20 am
    33   20   39 1
    34   20   40 1
    35   21   26 ar
    36   21   22 ar
    37   22   23 ar
    38   22   41 1
    39   23   24 ar
    40   23   42 1
    41   24   30 1
    42   24   25 ar
    43   25   26 ar
    44   25   27 1
    45   26   43 1
    46   27   28 1
    47   28   29 1
    48   28   44 1
    49   28   45 1
    50   29   30 1
    51   29   46 1
    52   29   47 1
    53   48   49 1
