@<TRIPOS>MOLECULE
ZINC03990465
   53    57     0     0     0
SMALL
USER_CHARGES

@<TRIPOS>ATOM
      1 C1         -3.6603   -1.0928    0.0153 C.ar      1 <0>        -0.1148
      2 C2         -2.4866   -0.3940    0.0126 C.ar      1 <0>        -0.1044
      3 C3         -2.5041    1.0019    0.0198 C.ar      1 <0>        -0.0694
      4 C4         -3.7206    1.6868    0.0351 C.ar      1 <0>        -0.1016
      5 C5         -4.8967    0.9922    0.0325 C.ar      1 <0>        -0.1190
      6 C6         -4.8816   -0.4079    0.0253 C.ar      1 <0>        -0.0256
      7 C7         -6.1457   -1.1576    0.0277 C.2       1 <0>        -0.1263
      8 C8         -7.3233   -0.4959    0.0373 C.2       1 <0>        -0.1373
      9 C9         -8.5801   -1.2413    0.0397 C.2       1 <0>         0.4720
     10 O1         -8.5660   -2.4576    0.0330 O.co2     1 <0>        -0.6331
     11 C10        -1.2297    1.7577    0.0174 C.ar      1 <0>        -0.0344
     12 C11        -0.0126    1.0758    0.0080 C.ar      1 <0>        -0.1053
     13 C12         1.1711    1.7819    0.0004 C.ar      1 <0>        -0.1390
     14 C13         1.1532    3.1708    0.0071 C.ar      1 <0>         0.1010
     15 C14        -0.0564    3.8525    0.0219 C.ar      1 <0>        -0.0900
     16 C15        -1.2441    3.1523    0.0294 C.ar      1 <0>        -0.1020
     17 C16        -0.0711    5.3594    0.0291 C.3       1 <0>        -0.0022
     18 C17        -1.5184    5.8553    0.0452 C.3       1 <0>        -0.1081
     19 C18        -1.5333    7.3852    0.0525 C.3       1 <0>        -0.0856
     20 C19        -0.8051    7.8964    1.2973 C.3       1 <0>        -0.1094
     21 C20         0.6422    7.4005    1.2812 C.3       1 <0>        -0.0856
     22 C21         0.6571    5.8706    1.2738 C.3       1 <0>        -0.1005
     23 C22         1.3465    7.9233    0.0276 C.3       1 <0>        -0.1064
     24 C23         0.6184    7.4122   -1.2172 C.3       1 <0>        -0.0841
     25 C24        -0.8289    7.9081   -1.2011 C.3       1 <0>        -0.1088
     26 C25         0.6333    5.8823   -1.2245 C.3       1 <0>        -0.1007
     27 O2          2.3216    3.8637   -0.0003 O.3       1 <0>        -0.4918
     28 H1         -3.6463   -2.1727    0.0094 H         1 <0>         0.1265
     29 H2         -1.5444   -0.9218    0.0053 H         1 <0>         0.1222
     30 H3         -3.7317    2.7667    0.0448 H         1 <0>         0.1214
     31 H4         -5.8375    1.5224    0.0398 H         1 <0>         0.1298
     32 H5         -6.1332   -2.2375    0.0218 H         1 <0>         0.1284
     33 H6         -7.3358    0.5840    0.0432 H         1 <0>         0.1077
     34 H7          0.0021   -0.0041    0.0020 H         1 <0>         0.1284
     35 H8          2.1136    1.2547   -0.0110 H         1 <0>         0.1272
     36 H9         -2.1846    3.6831    0.0405 H         1 <0>         0.1336
     37 H10        -2.0371    5.4911   -0.8416 H         1 <0>         0.0657
     38 H11        -2.0202    5.4828    0.9383 H         1 <0>         0.0662
     39 H12        -2.5644    7.7385    0.0640 H         1 <0>         0.0705
     40 H13        -1.3069    7.5239    2.1903 H         1 <0>         0.0613
     41 H14        -0.8157    8.9863    1.3025 H         1 <0>         0.0598
     42 H15         1.1609    7.7646    2.1680 H         1 <0>         0.0678
     43 H16         0.1553    5.4981    2.1669 H         1 <0>         0.0576
     44 H17         1.6882    5.5173    1.2624 H         1 <0>         0.0813
     45 H18         1.3359    9.0133    0.0328 H         1 <0>         0.0590
     46 H19         2.3776    7.5701    0.0161 H         1 <0>         0.0615
     47 H20         1.1202    7.7847   -2.1102 H         1 <0>         0.0682
     48 H21        -1.3477    7.5439   -2.0879 H         1 <0>         0.0614
     49 H22        -0.8395    8.9980   -1.1958 H         1 <0>         0.0606
     50 H23         1.6643    5.5290   -1.2360 H         1 <0>         0.0645
     51 H24         0.1145    5.5181   -2.1113 H         1 <0>         0.0608
     52 H25         2.6518    4.0684   -0.8858 H         1 <0>         0.3818
     53 O3         -9.7564   -0.5803    0.0493 O.co2     1 <0>        -0.7607
@<TRIPOS>BOND
     1    1    6 ar
     2    1    2 ar
     3    1   28 1
     4    2    3 ar
     5    2   29 1
     6    3    4 ar
     7    3   11 1
     8    4    5 ar
     9    4   30 1
    10    5    6 ar
    11    5   31 1
    12    6    7 1
    13    7    8 2
    14    7   32 1
    15    8    9 1
    16    8   33 1
    17    9   10 2
    18    9   53 1
    19   11   16 ar
    20   11   12 ar
    21   12   13 ar
    22   12   34 1
    23   13   14 ar
    24   13   35 1
    25   14   15 ar
    26   14   27 1
    27   15   16 ar
    28   15   17 1
    29   16   36 1
    30   17   22 1
    31   17   26 1
    32   17   18 1
    33   18   19 1
    34   18   37 1
    35   18   38 1
    36   19   25 1
    37   19   20 1
    38   19   39 1
    39   20   21 1
    40   20   40 1
    41   20   41 1
    42   21   22 1
    43   21   23 1
    44   21   42 1
    45   22   43 1
    46   22   44 1
    47   23   24 1
    48   23   45 1
    49   23   46 1
    50   24   25 1
    51   24   26 1
    52   24   47 1
    53   25   48 1
    54   25   49 1
    55   26   50 1
    56   26   51 1
    57   27   52 1
