@<TRIPOS>MOLECULE
ZINC00057001
   28    28     0     0     0
SMALL
USER_CHARGES

@<TRIPOS>ATOM
      1 C1         -0.0187    1.5258    0.0104 C.3       1 <0>        -0.1499
      2 C2          0.0021   -0.0041    0.0020 C.3       1 <0>        -0.0861
      3 H1         -1.0205   -0.3814    0.0098 H         1 <0>         0.0991
      4 C3          0.7421   -0.5109    1.2415 C.3       1 <0>        -0.0413
      5 S1         -0.1871   -0.0517    2.7303 S.3       1 <0>        -0.2560
      6 C4          0.7074   -0.4901   -1.2379 C.2       1 <0>         0.5406
      7 O1          1.7039   -1.1744   -1.1398 O.2       1 <0>        -0.5341
      8 N1          0.2309   -0.1642   -2.4557 N.am      1 <0>        -0.5870
      9 C5         -0.9612    0.6622   -2.7190 C.3       1 <0>         0.1001
     10 C6         -1.4323    0.2395   -4.1329 C.3       1 <0>        -0.1344
     11 C7         -0.0792    0.0101   -4.8565 C.3       1 <0>        -0.1069
     12 C8          0.8176   -0.5687   -3.7417 C.3       1 <0>         0.0652
     13 H2          0.8397   -1.6561   -3.8134 H         1 <0>         0.0661
     14 C9          2.2140   -0.0156   -3.8646 C.2       1 <0>         0.4962
     15 O2          2.9386   -0.3858   -4.7726 O.co2     1 <0>        -0.7023
     16 O3          2.6192    0.8020   -3.0561 O.co2     1 <0>        -0.6788
     17 H3          1.0039    1.9031    0.0027 H         1 <0>         0.0664
     18 H4         -0.5459    1.8868   -0.8726 H         1 <0>         0.0680
     19 H5         -0.5289    1.8773    0.9072 H         1 <0>         0.0715
     20 H6          0.8346   -1.5958    1.1912 H         1 <0>         0.0908
     21 H7          1.7350   -0.0630    1.2804 H         1 <0>         0.0927
     22 H8          0.5521   -0.5447    3.7401 H         1 <0>         0.0864
     23 H9         -1.7373    0.4540   -1.9825 H         1 <0>         0.0699
     24 H10        -0.6995    1.7202   -2.7069 H         1 <0>         0.0682
     25 H11        -2.0144   -0.6812   -4.0917 H         1 <0>         0.0709
     26 H12        -2.0003    1.0379   -4.6104 H         1 <0>         0.0779
     27 H13        -0.1941   -0.7041   -5.6719 H         1 <0>         0.0749
     28 H14         0.3271    0.9530   -5.2227 H         1 <0>         0.0719
@<TRIPOS>BOND
     1    1    2 1
     2    1   17 1
     3    1   18 1
     4    1   19 1
     5    2    3 1
     6    2    4 1
     7    2    6 1
     8    4    5 1
     9    4   20 1
    10    4   21 1
    11    5   22 1
    12    6    7 2
    13    6    8 am
    14    8   12 1
    15    8    9 1
    16    9   10 1
    17    9   23 1
    18    9   24 1
    19   10   11 1
    20   10   25 1
    21   10   26 1
    22   11   12 1
    23   11   27 1
    24   11   28 1
    25   12   13 1
    26   12   14 1
    27   14   15 2
    28   14   16 1
@<TRIPOS>MOLECULE
ZINC00114124
   20    19     0     0     0
SMALL
USER_CHARGES

@<TRIPOS>ATOM
      1 C1         -0.0187    1.5258    0.0104 C.3       1 <0>        -0.1605
      2 C2          0.0021   -0.0041    0.0020 C.3       1 <0>        -0.0111
      3 C3          0.7421   -0.5109    1.2415 C.3       1 <0>        -0.1448
      4 C4         -1.4333   -0.5336    0.0129 C.3       1 <0>        -0.0256
      5 H1         -1.4185   -1.6235    0.0069 H         1 <0>         0.1435
      6 C5         -2.1387   -0.0476    1.2528 C.2       1 <0>         0.4970
      7 O1         -2.7455    1.0097    1.2340 O.co2     1 <0>        -0.6586
      8 O2         -2.1025   -0.7118    2.2746 O.co2     1 <0>        -0.6252
      9 N1         -2.1438   -0.0470   -1.1772 N.4       1 <0>        -0.6146
     10 S1          0.8511   -0.5891   -1.4904 S.3       1 <0>        -0.2771
     11 H2          1.0039    1.9031    0.0027 H         1 <0>         0.0688
     12 H3         -0.5459    1.8868   -0.8726 H         1 <0>         0.0627
     13 H4         -0.5289    1.8773    0.9072 H         1 <0>         0.1004
     14 H5          0.2319   -0.1594    2.1383 H         1 <0>         0.0936
     15 H6          0.7568   -1.6008    1.2356 H         1 <0>         0.0791
     16 H7          1.7647   -0.1336    1.2338 H         1 <0>         0.0620
     17 H8         -1.6715   -0.3724   -2.0074 H         1 <0>         0.4199
     18 H9         -3.0904   -0.3963   -1.1701 H         1 <0>         0.4328
     19 H10         2.0861   -0.0661   -1.3884 H         1 <0>         0.1260
     20 H11        -2.1575    0.9619   -1.1717 H         1 <0>         0.4320
@<TRIPOS>BOND
     1    1    2 1
     2    1   11 1
     3    1   12 1
     4    1   13 1
     5    2    3 1
     6    2    4 1
     7    2   10 1
     8    3   14 1
     9    3   15 1
    10    3   16 1
    11    4    5 1
    12    4    6 1
    13    4    9 1
    14    6    7 2
    15    6    8 1
    16    9   17 1
    17    9   18 1
    18    9   20 1
    19   10   19 1
