@<TRIPOS>MOLECULE
ZINC03815700
   43    46     0     0     0
SMALL
USER_CHARGES

@<TRIPOS>ATOM
      1 C1         -0.4417    2.5108    0.1274 C.3       1 <0>        -0.4980
      2 S1         -0.2285    0.7138    0.0013 S.o       1 <0>         1.3317
      3 O1          0.3381    0.2184    1.2066 O.2       1 <0>        -0.8500
      4 C2         -1.8753    0.0872    0.0153 C.ar      1 <0>        -0.4539
      5 C3         -2.4807   -0.2316    1.2179 C.ar      1 <0>        -0.0505
      6 C4         -3.7698   -0.7226    1.2359 C.ar      1 <0>        -0.0905
      7 C5         -4.4635   -0.8973    0.0374 C.ar      1 <0>         0.0183
      8 C6         -3.8471   -0.5733   -1.1722 C.ar      1 <0>        -0.1282
      9 C7         -2.5593   -0.0786   -1.1759 C.ar      1 <0>        -0.0372
     10 C8         -5.8450   -1.4235    0.0492 C.2       1 <0>         0.2539
     11 N1         -6.6187   -1.6414   -1.0552 N.pl3     1 <0>        -0.5494
     12 H1         -6.3641   -1.4808   -1.9773 H         1 <0>         0.4258
     13 C9         -7.8254   -2.1307   -0.6157 C.2       1 <0>         0.0559
     14 C10        -7.7421   -2.1946    0.7659 C.2       1 <0>         0.0600
     15 N2         -6.5217   -1.7612    1.1224 N.2       1 <0>        -0.4460
     16 C11        -8.8052   -2.6624    1.6841 C.ar      1 <0>         0.0397
     17 C12        -9.5683   -3.7960    1.3824 C.ar      1 <0>        -0.1547
     18 C13       -10.5481   -4.1969    2.2660 C.ar      1 <0>         0.1020
     19 N3        -10.7699   -3.5273    3.3814 N.ar      1 <0>        -0.4829
     20 C14       -10.0734   -2.4536    3.7038 C.ar      1 <0>         0.1009
     21 C15        -9.0708   -1.9865    2.8804 C.ar      1 <0>        -0.1469
     22 C16        -8.9814   -2.5126   -1.4503 C.ar      1 <0>        -0.0400
     23 C17       -10.2631   -2.0665   -1.1192 C.ar      1 <0>        -0.0563
     24 C18       -11.3392   -2.4265   -1.9026 C.ar      1 <0>        -0.1471
     25 C19       -11.1511   -3.2299   -3.0163 C.ar      1 <0>         0.1129
     26 C20        -9.8817   -3.6756   -3.3498 C.ar      1 <0>        -0.1491
     27 C21        -8.7972   -3.3169   -2.5775 C.ar      1 <0>        -0.0765
     28 F1        -12.2093   -3.5802   -3.7797 F         1 <0>        -0.1335
     29 H2          0.5355    2.9936    0.1264 H         1 <0>         0.1086
     30 H3         -1.0243    2.8681   -0.7218 H         1 <0>         0.1118
     31 H4         -0.9645    2.7506    1.0533 H         1 <0>         0.0820
     32 H5         -1.9427   -0.0960    2.1446 H         1 <0>         0.1340
     33 H6         -4.2409   -0.9717    2.1752 H         1 <0>         0.1409
     34 H7         -4.3783   -0.7065   -2.1030 H         1 <0>         0.1252
     35 H8         -2.0825    0.1760   -2.1109 H         1 <0>         0.1447
     36 H9         -9.3927   -4.3483    0.4711 H         1 <0>         0.1333
     37 H10       -11.1422   -5.0705    2.0420 H         1 <0>         0.1579
     38 H11       -10.2890   -1.9361    4.6268 H         1 <0>         0.1588
     39 H12        -8.5017   -1.1100    3.1527 H         1 <0>         0.1379
     40 H13       -10.4110   -1.4411   -0.2513 H         1 <0>         0.1357
     41 H14       -12.3306   -2.0822   -1.6477 H         1 <0>         0.1434
     42 H15        -9.7412   -4.3013   -4.2187 H         1 <0>         0.1424
     43 H16        -7.8079   -3.6609   -2.8410 H         1 <0>         0.1331
@<TRIPOS>BOND
     1    1    2 1
     2    1   29 1
     3    1   30 1
     4    1   31 1
     5    2    3 2
     6    2    4 1
     7    4    9 ar
     8    4    5 ar
     9    5    6 ar
    10    5   32 1
    11    6    7 ar
    12    6   33 1
    13    7    8 ar
    14    7   10 1
    15    8    9 ar
    16    8   34 1
    17    9   35 1
    18   10   15 2
    19   10   11 1
    20   11   12 1
    21   11   13 1
    22   13   14 2
    23   13   22 1
    24   14   15 1
    25   14   16 1
    26   16   21 ar
    27   16   17 ar
    28   17   18 ar
    29   17   36 1
    30   18   19 ar
    31   18   37 1
    32   19   20 ar
    33   20   21 ar
    34   20   38 1
    35   21   39 1
    36   22   27 ar
    37   22   23 ar
    38   23   24 ar
    39   23   40 1
    40   24   25 ar
    41   24   41 1
    42   25   26 ar
    43   25   28 1
    44   26   27 ar
    45   26   42 1
    46   27   43 1
@<TRIPOS>MOLECULE
ZINC18274812
   43    46     0     0     0
SMALL
USER_CHARGES

@<TRIPOS>ATOM
      1 C1          0.0458    2.4645   -0.3714 C.3       1 <0>        -0.4977
      2 S1          0.1034    0.6635   -0.1624 S.o       1 <0>         1.3328
      3 O1          0.9995    0.3374    0.8912 O.2       1 <0>        -0.8522
      4 C2          0.9248    0.0922   -1.6127 C.ar      1 <0>        -0.4531
      5 C3          0.1894   -0.2245   -2.7411 C.ar      1 <0>        -0.0385
      6 C4          0.8263   -0.6720   -3.8801 C.ar      1 <0>        -0.0921
      7 C5          2.2157   -0.8050   -3.8925 C.ar      1 <0>         0.0171
      8 C6          2.9515   -0.4838   -2.7508 C.ar      1 <0>        -0.1253
      9 C7          2.3027   -0.0324   -1.6200 C.ar      1 <0>        -0.0497
     10 C8          2.9049   -1.2844   -5.1094 C.2       1 <0>         0.2582
     11 N1          4.2515   -1.4590   -5.2384 N.pl3     1 <0>        -0.5486
     12 H1          4.9216   -1.2936   -4.5568 H         1 <0>         0.4252
     13 C9          4.4814   -1.9147   -6.5171 C.2       1 <0>         0.0337
     14 C10         3.2416   -2.0017   -7.1294 C.2       1 <0>         0.0807
     15 N2          2.3171   -1.6154   -6.2370 N.2       1 <0>        -0.4488
     16 C11         2.9826   -2.4473   -8.5186 C.ar      1 <0>        -0.0206
     17 C12         3.6496   -3.5590   -9.0325 C.ar      1 <0>        -0.0694
     18 C13         3.4051   -3.9700  -10.3265 C.ar      1 <0>        -0.1511
     19 C14         2.4988   -3.2799  -11.1154 C.ar      1 <0>         0.1060
     20 C15         1.8337   -2.1747  -10.6093 C.ar      1 <0>        -0.1526
     21 C16         2.0668   -1.7598   -9.3145 C.ar      1 <0>        -0.0599
     22 F1          2.2634   -3.6856  -12.3824 F         1 <0>        -0.1371
     23 C17         5.7881   -2.2443   -7.1163 C.ar      1 <0>         0.0226
     24 C18         6.1399   -1.7662   -8.3862 C.ar      1 <0>        -0.1423
     25 C19         7.3716   -2.0992   -8.9074 C.ar      1 <0>         0.1081
     26 N3          8.2131   -2.8565   -8.2286 N.ar      1 <0>        -0.4784
     27 C20         7.9224   -3.3278   -7.0303 C.ar      1 <0>         0.1071
     28 C21         6.7158   -3.0398   -6.4296 C.ar      1 <0>        -0.1652
     29 H2          1.0609    2.8540   -0.4489 H         1 <0>         0.0810
     30 H3         -0.5069    2.7075   -1.2790 H         1 <0>         0.1130
     31 H4         -0.4514    2.9143    0.4881 H         1 <0>         0.1088
     32 H5         -0.8856   -0.1215   -2.7301 H         1 <0>         0.1470
     33 H6          0.2512   -0.9192   -4.7602 H         1 <0>         0.1462
     34 H7          4.0268   -0.5845   -2.7539 H         1 <0>         0.1202
     35 H8          2.8713    0.2203   -0.7373 H         1 <0>         0.1322
     36 H9          4.3566   -4.0971   -8.4186 H         1 <0>         0.1287
     37 H10         3.9211   -4.8308  -10.7253 H         1 <0>         0.1387
     38 H11         1.1282   -1.6400  -11.2280 H         1 <0>         0.1401
     39 H12         1.5446   -0.9009   -8.9194 H         1 <0>         0.1377
     40 H13         5.4562   -1.1467   -8.9476 H         1 <0>         0.1400
     41 H14         7.6520   -1.7358   -9.8850 H         1 <0>         0.1626
     42 H15         8.6418   -3.9441   -6.5116 H         1 <0>         0.1610
     43 H16         6.4868   -3.4248   -5.4469 H         1 <0>         0.1340
@<TRIPOS>BOND
     1    1    2 1
     2    1   29 1
     3    1   30 1
     4    1   31 1
     5    2    3 2
     6    2    4 1
     7    4    9 ar
     8    4    5 ar
     9    5    6 ar
    10    5   32 1
    11    6    7 ar
    12    6   33 1
    13    7    8 ar
    14    7   10 1
    15    8    9 ar
    16    8   34 1
    17    9   35 1
    18   10   15 2
    19   10   11 1
    20   11   12 1
    21   11   13 1
    22   13   14 2
    23   13   23 1
    24   14   15 1
    25   14   16 1
    26   16   21 ar
    27   16   17 ar
    28   17   18 ar
    29   17   36 1
    30   18   19 ar
    31   18   37 1
    32   19   20 ar
    33   19   22 1
    34   20   21 ar
    35   20   38 1
    36   21   39 1
    37   23   28 ar
    38   23   24 ar
    39   24   25 ar
    40   24   40 1
    41   25   26 ar
    42   25   41 1
    43   26   27 ar
    44   27   28 ar
    45   27   42 1
    46   28   43 1
@<TRIPOS>MOLECULE
ZINC18274812
   43    46     0     0     0
SMALL
USER_CHARGES

@<TRIPOS>ATOM
      1 C1          0.0761    2.5207   -0.3946 C.3       1 <0>        -0.4977
      2 S1          0.1067    0.7194   -0.1829 S.o       1 <0>         1.3328
      3 O1          0.9925    0.3819    0.8757 O.2       1 <0>        -0.8523
      4 C2          0.9273    0.1342   -1.6283 C.ar      1 <0>        -0.4535
      5 C3          0.1933   -0.1734   -2.7600 C.ar      1 <0>        -0.0382
      6 C4          0.8295   -0.6320   -3.8950 C.ar      1 <0>        -0.0929
      7 C5          2.2169   -0.7850   -3.8999 C.ar      1 <0>         0.0183
      8 C6          2.9514   -0.4724   -2.7550 C.ar      1 <0>        -0.1257
      9 C7          2.3033   -0.0102   -1.6282 C.ar      1 <0>        -0.0496
     10 C8          2.9053   -1.2765   -5.1125 C.2       1 <0>         0.2536
     11 N1          4.2517   -1.4710   -5.2346 N.pl3     1 <0>        -0.5504
     12 H1          4.9205   -1.3136   -4.5499 H         1 <0>         0.4255
     13 C9          4.4817   -1.9314   -6.5089 C.2       1 <0>         0.0556
     14 C10         3.2446   -2.0022   -7.1288 C.2       1 <0>         0.0602
     15 N2          2.3192   -1.6008   -6.2417 N.2       1 <0>        -0.4443
     16 C11         2.9879   -2.4463   -8.5176 C.ar      1 <0>         0.0401
     17 C12         3.6482   -3.5593   -9.0502 C.ar      1 <0>        -0.1549
     18 C13         3.3789   -3.9386  -10.3482 C.ar      1 <0>         0.1021
     19 N3          2.5133   -3.2676  -11.0845 N.ar      1 <0>        -0.4831
     20 C14         1.8693   -2.2129  -10.6212 C.ar      1 <0>         0.1008
     21 C15         2.0741   -1.7682   -9.3321 C.ar      1 <0>        -0.1466
     22 C16         5.7882   -2.2812   -7.1001 C.ar      1 <0>        -0.0406
     23 C17         6.1350   -1.8042   -8.3665 C.ar      1 <0>        -0.0561
     24 C18         7.3568   -2.1344   -8.9137 C.ar      1 <0>        -0.1471
     25 C19         8.2399   -2.9383   -8.2101 C.ar      1 <0>         0.1131
     26 C20         7.9012   -3.4146   -6.9533 C.ar      1 <0>        -0.1492
     27 C21         6.6848   -3.0860   -6.3932 C.ar      1 <0>        -0.0767
     28 F1          9.4352   -3.2593   -8.7516 F         1 <0>        -0.1334
     29 H2          1.0971    2.8954   -0.4674 H         1 <0>         0.0810
     30 H3         -0.4683    2.7703   -1.3054 H         1 <0>         0.1130
     31 H4         -0.4189    2.9788    0.4616 H         1 <0>         0.1087
     32 H5         -0.8802   -0.0546   -2.7549 H         1 <0>         0.1468
     33 H6          0.2554   -0.8725   -4.7775 H         1 <0>         0.1457
     34 H7          4.0251   -0.5889   -2.7522 H         1 <0>         0.1204
     35 H8          2.8708    0.2356   -0.7429 H         1 <0>         0.1321
     36 H9          4.3583   -4.1127   -8.4536 H         1 <0>         0.1329
     37 H10         3.8834   -4.7962  -10.7681 H         1 <0>         0.1577
     38 H11         1.1696   -1.6933  -11.2591 H         1 <0>         0.1590
     39 H12         1.5402   -0.9072   -8.9580 H         1 <0>         0.1385
     40 H13         5.4474   -1.1783   -8.9159 H         1 <0>         0.1360
     41 H14         7.6261   -1.7662   -9.8926 H         1 <0>         0.1436
     42 H15         8.5933   -4.0406   -6.4097 H         1 <0>         0.1423
     43 H16         6.4240   -3.4537   -5.4118 H         1 <0>         0.1327
@<TRIPOS>BOND
     1    1    2 1
     2    1   29 1
     3    1   30 1
     4    1   31 1
     5    2    3 2
     6    2    4 1
     7    4    9 ar
     8    4    5 ar
     9    5    6 ar
    10    5   32 1
    11    6    7 ar
    12    6   33 1
    13    7    8 ar
    14    7   10 1
    15    8    9 ar
    16    8   34 1
    17    9   35 1
    18   10   15 2
    19   10   11 1
    20   11   12 1
    21   11   13 1
    22   13   14 2
    23   13   22 1
    24   14   15 1
    25   14   16 1
    26   16   21 ar
    27   16   17 ar
    28   17   18 ar
    29   17   36 1
    30   18   19 ar
    31   18   37 1
    32   19   20 ar
    33   20   21 ar
    34   20   38 1
    35   21   39 1
    36   22   27 ar
    37   22   23 ar
    38   23   24 ar
    39   23   40 1
    40   24   25 ar
    41   24   41 1
    42   25   26 ar
    43   25   28 1
    44   26   27 ar
    45   26   42 1
    46   27   43 1
@<TRIPOS>MOLECULE
ZINC24044436
   76    80     0     0     0
SMALL
USER_CHARGES
1-[5-tert-butyl-2-(p-tolyl)pyrazol-3-yl]-3-[4-(2-morpholinoethoxy)-1-naphthyl]urea
@<TRIPOS>ATOM
      1 C1          3.3307    9.5387   -0.3298 C.3       1 <0>        -0.1193
      2 C2          2.0898    8.6848   -0.2813 C.ar      1 <0>        -0.0892
      3 C3          0.9612    9.0673   -0.9828 C.ar      1 <0>        -0.0934
      4 C4         -0.1775    8.2868   -0.9403 C.ar      1 <0>        -0.1062
      5 C5         -0.1884    7.1174   -0.1919 C.ar      1 <0>         0.1564
      6 C6          0.9444    6.7392    0.5163 C.ar      1 <0>        -0.1500
      7 C7          2.0821    7.5207    0.4649 C.ar      1 <0>        -0.0924
      8 N1         -1.3424    6.3233   -0.1469 N.pl3     1 <0>        -0.3448
      9 C8         -1.3788    4.9645   -0.0790 C.2       1 <0>         0.3309
     10 C9         -2.6878    4.5925   -0.0483 C.2       1 <0>        -0.2629
     11 C10        -3.4651    5.7529   -0.1047 C.2       1 <0>         0.1115
     12 N2         -2.6643    6.7861   -0.1672 N.2       1 <0>        -0.2779
     13 C11        -4.9712    5.8052   -0.0954 C.3       1 <0>         0.0134
     14 C12        -5.4824    5.5257    1.3193 C.3       1 <0>        -0.1388
     15 C13        -5.4360    7.1933   -0.5406 C.3       1 <0>        -0.1390
     16 C14        -5.5242    4.7499   -1.0553 C.3       1 <0>        -0.1399
     17 N3         -0.2771    4.1104   -0.0417 N.am      1 <0>        -0.6731
     18 C15        -0.4603    2.7771    0.0314 C.2       1 <0>         0.7165
     19 O1         -1.5862    2.3190    0.0649 O.2       1 <0>        -0.5445
     20 N4          0.6045    1.9516    0.0675 N.am      1 <0>        -0.6819
     21 C16         0.4162    0.5655    0.0407 C.ar      1 <0>         0.1254
     22 C17        -0.6813    0.0024    0.6542 C.ar      1 <0>        -0.0743
     23 C18        -0.8835   -1.3742    0.6299 C.ar      1 <0>        -0.2061
     24 C19         0.0048   -2.2051    0.0082 C.ar      1 <0>         0.1395
     25 C20         1.1426   -1.6672   -0.6254 C.ar      1 <0>        -0.0565
     26 C21         1.3517   -0.2661   -0.6096 C.ar      1 <0>        -0.0251
     27 C22         2.4862    0.2686   -1.2409 C.ar      1 <0>        -0.1232
     28 C23         3.3687   -0.5639   -1.8588 C.ar      1 <0>        -0.0971
     29 C24         3.1636   -1.9422   -1.8742 C.ar      1 <0>        -0.1313
     30 C25         2.0750   -2.4951   -1.2724 C.ar      1 <0>        -0.0739
     31 O2         -0.2080   -3.5475    0.0012 O.3       1 <0>        -0.2916
     32 C26        -1.3823   -4.0216    0.6634 C.3       1 <0>         0.0605
     33 C27        -1.4510   -5.5459    0.5508 C.3       1 <0>         0.0539
     34 N5         -0.3065   -6.1409    1.2538 N.3       1 <0>        -0.5287
     35 C28        -0.1978   -7.5776    0.9617 C.3       1 <0>         0.0167
     36 C29         1.0390   -8.1436    1.6645 C.3       1 <0>         0.0615
     37 O3          0.9456   -7.8818    3.0674 O.3       1 <0>        -0.3849
     38 C30         0.8389   -6.4921    3.3879 C.3       1 <0>         0.0625
     39 C31        -0.3999   -5.9094    2.7026 C.3       1 <0>         0.0120
     40 H1          3.1476   10.4156   -0.9682 H         1 <0>         0.0687
     41 H2          4.1639    8.9515   -0.7434 H         1 <0>         0.0732
     42 H3          3.5863    9.8722    0.6868 H         1 <0>         0.0734
     43 H4          0.9703    9.9770   -1.5648 H         1 <0>         0.1335
     44 H5         -1.0587    8.5861   -1.4884 H         1 <0>         0.1355
     45 H6          0.9374    5.8324    1.1029 H         1 <0>         0.1262
     46 H7          2.9651    7.2245    1.0118 H         1 <0>         0.1343
     47 H8         -3.0598    3.5802    0.0092 H         1 <0>         0.1784
     48 H9         -6.5817    5.5639    1.3261 H         1 <0>         0.0656
     49 H10        -5.0849    6.2845    2.0094 H         1 <0>         0.0565
     50 H11        -5.1481    4.5278    1.6395 H         1 <0>         0.0614
     51 H12        -6.5353    7.2315   -0.5338 H         1 <0>         0.0604
     52 H13        -5.0684    7.3943   -1.5577 H         1 <0>         0.0568
     53 H14        -5.0385    7.9519    0.1496 H         1 <0>         0.0614
     54 H15        -6.6235    4.7882   -1.0484 H         1 <0>         0.0647
     55 H16        -5.1900    3.7520   -0.7351 H         1 <0>         0.0637
     56 H17        -5.1566    4.9509   -2.0724 H         1 <0>         0.0570
     57 H18         0.7414    4.5248   -0.0719 H         1 <0>         0.4294
     58 H19         1.6215    2.3677    0.1180 H         1 <0>         0.4280
     59 H20        -1.3959    0.6376    1.1566 H         1 <0>         0.1450
     60 H21        -1.7537   -1.7925    1.1139 H         1 <0>         0.1296
     61 H22         2.6580    1.3348   -1.2361 H         1 <0>         0.1222
     62 H23         4.2405   -0.1501   -2.3437 H         1 <0>         0.1243
     63 H24         3.8790   -2.5810   -2.3706 H         1 <0>         0.1250
     64 H25         1.9286   -3.5650   -1.2926 H         1 <0>         0.1353
     65 H26        -1.3465   -3.7335    1.7244 H         1 <0>         0.0659
     66 H27        -2.2726   -3.5787    0.1931 H         1 <0>         0.0716
     67 H28        -2.3868   -5.9052    1.0039 H         1 <0>         0.0605
     68 H29        -1.4216   -5.8370   -0.5096 H         1 <0>         0.0912
     69 H30        -1.0977   -8.0949    1.3258 H         1 <0>         0.0437
     70 H31        -0.1044   -7.7249   -0.1244 H         1 <0>         0.0891
     71 H32         1.0925   -9.2291    1.4949 H         1 <0>         0.1001
     72 H33         1.9424   -7.6643    1.2595 H         1 <0>         0.0618
     73 H34         0.7475   -6.3731    4.4776 H         1 <0>         0.0994
     74 H35         1.7375   -5.9645    3.0355 H         1 <0>         0.0616
     75 H36        -0.4553   -4.8284    2.8983 H         1 <0>         0.0869
     76 H37        -1.3031   -6.3997    3.0948 H         1 <0>         0.0443
@<TRIPOS>BOND
     1    1    2 1
     2    1   40 1
     3    1   41 1
     4    1   42 1
     5    2    7 ar
     6    2    3 ar
     7    3    4 ar
     8    3   43 1
     9    4    5 ar
    10    4   44 1
    11    5    6 ar
    12    5    8 1
    13    6    7 ar
    14    6   45 1
    15    7   46 1
    16    8   12 1
    17    8    9 1
    18    9   10 2
    19    9   17 1
    20   10   11 1
    21   10   47 1
    22   11   12 2
    23   11   13 1
    24   13   14 1
    25   13   15 1
    26   13   16 1
    27   14   48 1
    28   14   49 1
    29   14   50 1
    30   15   51 1
    31   15   52 1
    32   15   53 1
    33   16   54 1
    34   16   55 1
    35   16   56 1
    36   17   18 am
    37   17   57 1
    38   18   19 2
    39   18   20 am
    40   20   21 1
    41   20   58 1
    42   21   26 ar
    43   21   22 ar
    44   22   23 ar
    45   22   59 1
    46   23   24 ar
    47   23   60 1
    48   24   25 ar
    49   24   31 1
    50   25   30 ar
    51   25   26 ar
    52   26   27 ar
    53   27   28 ar
    54   27   61 1
    55   28   29 ar
    56   28   62 1
    57   29   30 ar
    58   29   63 1
    59   30   64 1
    60   31   32 1
    61   32   33 1
    62   32   65 1
    63   32   66 1
    64   33   34 1
    65   33   67 1
    66   33   68 1
    67   34   39 1
    68   34   35 1
    69   35   36 1
    70   35   69 1
    71   35   70 1
    72   36   37 1
    73   36   71 1
    74   36   72 1
    75   37   38 1
    76   38   39 1
    77   38   73 1
    78   38   74 1
    79   39   75 1
    80   39   76 1
@<TRIPOS>MOLECULE
ZINC01493878
   48    50     0     0     0
SMALL
USER_CHARGES

@<TRIPOS>ATOM
      1 C1         -1.0955   -5.0083   -6.9234 C.3       1 <0>         0.0847
      2 N1         -1.5520   -4.3038   -5.7228 N.am      1 <0>        -0.7137
      3 C2         -1.8827   -5.0004   -4.6175 C.2       1 <0>         0.5696
      4 O1         -1.8023   -6.2129   -4.6168 O.2       1 <0>        -0.5284
      5 C3         -2.3445   -4.2878   -3.4031 C.ar      1 <0>         0.1129
      6 C4         -2.6788   -5.0128   -2.2640 C.ar      1 <0>        -0.1883
      7 C5         -3.1110   -4.3279   -1.1310 C.ar      1 <0>         0.1595
      8 C6         -3.1903   -2.9389   -1.1877 C.ar      1 <0>        -0.1766
      9 C7         -2.8404   -2.2885   -2.3571 C.ar      1 <0>         0.1349
     10 N2         -2.4302   -2.9626   -3.4105 N.ar      1 <0>        -0.4815
     11 O2         -3.4471   -4.9979    0.0005 O.3       1 <0>        -0.2437
     12 C8         -3.4462   -6.3570   -0.0383 C.ar      1 <0>         0.0568
     13 C9         -2.2447   -7.0505   -0.0178 C.ar      1 <0>        -0.1074
     14 C10        -2.2431   -8.4307   -0.0577 C.ar      1 <0>        -0.1009
     15 C11        -3.4442   -9.1246   -0.1179 C.ar      1 <0>         0.1671
     16 C12        -4.6464   -8.4301   -0.1379 C.ar      1 <0>        -0.1272
     17 C13        -4.6469   -7.0500   -0.0928 C.ar      1 <0>        -0.0940
     18 N3         -3.4432  -10.5252   -0.1588 N.am      1 <0>        -0.6776
     19 C14        -2.5108  -11.2187    0.5239 C.2       1 <0>         0.7077
     20 O3         -1.6217  -10.6297    1.1080 O.2       1 <0>        -0.5493
     21 N4         -2.5639  -12.5649    0.5593 N.am      1 <0>        -0.6795
     22 C15        -1.6655  -13.2800    1.3600 C.ar      1 <0>         0.1700
     23 C16        -1.2529  -12.7583    2.5792 C.ar      1 <0>        -0.0742
     24 C17        -0.3670  -13.4659    3.3674 C.ar      1 <0>        -0.0871
     25 C18         0.1097  -14.6941    2.9434 C.ar      1 <0>        -0.0077
     26 C19        -0.2993  -15.2159    1.7290 C.ar      1 <0>        -0.1564
     27 C20        -1.1898  -14.5147    0.9394 C.ar      1 <0>        -0.0879
     28 C21         0.2222  -16.5533    1.2702 C.3       1 <0>         0.5112
     29 F1         -0.3299  -16.8663    0.0234 F         1 <0>        -0.1743
     30 F2          1.6160  -16.4983    1.1626 F         1 <0>        -0.1671
     31 F3         -0.1354  -17.5367    2.1987 F         1 <0>        -0.1677
     32 Cl1         1.2234  -15.5812    3.9366 Cl        1 <0>        -0.0394
     33 H1         -0.8760   -4.2843   -7.7081 H         1 <0>         0.0803
     34 H2         -0.1948   -5.5764   -6.6909 H         1 <0>         0.0631
     35 H3         -1.8761   -5.6883   -7.2645 H         1 <0>         0.0629
     36 H4         -1.6162   -3.3359   -5.7233 H         1 <0>         0.4141
     37 H5         -2.6047   -6.0902   -2.2584 H         1 <0>         0.1546
     38 H6         -3.5217   -2.3755   -0.3280 H         1 <0>         0.1523
     39 H7         -2.9005   -1.2112   -2.4052 H         1 <0>         0.1747
     40 H8         -1.3104   -6.5106    0.0290 H         1 <0>         0.1364
     41 H9         -1.3078   -8.9704   -0.0424 H         1 <0>         0.1514
     42 H10        -5.5809   -8.9693   -0.1851 H         1 <0>         0.1386
     43 H11        -5.5820   -6.5098   -0.1039 H         1 <0>         0.1400
     44 H12        -4.1137  -10.9957   -0.6785 H         1 <0>         0.4131
     45 H13        -3.2246  -13.0383    0.0299 H         1 <0>         0.4146
     46 H14        -1.6244  -11.7997    2.9103 H         1 <0>         0.1546
     47 H15        -0.0456  -13.0604    4.3154 H         1 <0>         0.1524
     48 H16        -1.5123  -14.9245   -0.0064 H         1 <0>         0.1525
@<TRIPOS>BOND
     1    1    2 1
     2    1   33 1
     3    1   34 1
     4    1   35 1
     5    2    3 am
     6    2   36 1
     7    3    4 2
     8    3    5 1
     9    5   10 ar
    10    5    6 ar
    11    6    7 ar
    12    6   37 1
    13    7    8 ar
    14    7   11 1
    15    8    9 ar
    16    8   38 1
    17    9   10 ar
    18    9   39 1
    19   11   12 1
    20   12   17 ar
    21   12   13 ar
    22   13   14 ar
    23   13   40 1
    24   14   15 ar
    25   14   41 1
    26   15   16 ar
    27   15   18 1
    28   16   17 ar
    29   16   42 1
    30   17   43 1
    31   18   19 am
    32   18   44 1
    33   19   20 2
    34   19   21 am
    35   21   22 1
    36   21   45 1
    37   22   27 ar
    38   22   23 ar
    39   23   24 ar
    40   23   46 1
    41   24   25 ar
    42   24   47 1
    43   25   26 ar
    44   25   32 1
    45   26   27 ar
    46   26   28 1
    47   27   48 1
    48   28   29 1
    49   28   30 1
    50   28   31 1
@<TRIPOS>MOLECULE
ZINC21982951
   60    63     0     0     0
SMALL
USER_CHARGES

@<TRIPOS>ATOM
      1 C1         -2.0700    1.6928    0.2333 C.3       1 <0>        -0.1170
      2 C2         -1.6482    0.2604    0.0301 C.ar      1 <0>        -0.0813
      3 C3         -1.8479   -0.3525   -1.1919 C.ar      1 <0>        -0.1034
      4 C4         -1.4615   -1.6665   -1.3798 C.ar      1 <0>        -0.0990
      5 C5         -0.8738   -2.3725   -0.3459 C.ar      1 <0>        -0.1046
      6 C6         -0.6714   -1.7660    0.8791 C.ar      1 <0>        -0.0220
      7 C7         -1.0534   -0.4428    1.0688 C.ar      1 <0>         0.1347
      8 N1         -0.8441    0.1769    2.3055 N.am      1 <0>        -0.6659
      9 C8         -1.2819   -0.4110    3.4365 C.2       1 <0>         0.6018
     10 O1         -1.7689   -1.5261    3.3939 O.2       1 <0>        -0.4722
     11 C9         -1.1720    0.2905    4.7149 C.2       1 <0>        -0.2635
     12 C10        -1.5472   -0.1201    5.9866 C.2       1 <0>         0.1512
     13 N2         -1.3262    0.7270    6.9599 N.2       1 <0>        -0.5510
     14 C11        -0.7756    1.9070    6.7361 C.2       1 <0>         0.2513
     15 S1         -0.5107    1.9100    5.0742 S.3       1 <0>         0.2445
     16 N3         -0.4817    2.8997    7.6498 N.pl3     1 <0>        -0.5870
     17 C12        -0.6908    2.6801    9.0050 C.ar      1 <0>         0.4543
     18 C13        -1.0534    1.4192    9.4679 C.ar      1 <0>        -0.2926
     19 C14        -1.2512    1.2508   10.8352 C.ar      1 <0>         0.4935
     20 N4         -1.0875    2.2952   11.6453 N.ar      1 <0>        -0.5328
     21 C15        -0.7435    3.4737   11.1677 C.ar      1 <0>         0.4541
     22 N5         -0.5417    3.6719    9.8809 N.ar      1 <0>        -0.5672
     23 C16        -0.5694    4.6273   12.1217 C.3       1 <0>        -0.1251
     24 N6         -1.6138    0.0143   11.3464 N.pl3     1 <0>        -0.5370
     25 C17        -2.0559   -0.1253   12.7422 C.3       1 <0>         0.1090
     26 C18        -3.3866   -0.8852   12.7576 C.3       1 <0>         0.0383
     27 N7         -3.2335   -2.1493   12.0251 N.3       1 <0>        -0.5289
     28 C19        -2.9165   -1.9105   10.6107 C.3       1 <0>         0.0343
     29 C20        -1.5725   -1.1917   10.5056 C.3       1 <0>         0.1057
     30 C21        -4.4334   -2.9856   12.1619 C.3       1 <0>         0.0545
     31 C22        -4.1483   -4.3816   11.6043 C.3       1 <0>         0.0776
     32 O2         -3.1500   -5.0191   12.4038 O.3       1 <0>        -0.5606
     33 Cl1         0.0658   -2.6526    2.1768 Cl        1 <0>        -0.0453
     34 H1         -1.2464    2.3553   -0.0328 H         1 <0>         0.0773
     35 H2         -2.9308    1.9112   -0.3987 H         1 <0>         0.0785
     36 H3         -2.3379    1.8478    1.2784 H         1 <0>         0.0640
     37 H4         -2.3069    0.1956   -2.0014 H         1 <0>         0.1372
     38 H5         -1.6193   -2.1430   -2.3361 H         1 <0>         0.1391
     39 H6         -0.5731   -3.3989   -0.4959 H         1 <0>         0.1403
     40 H7         -0.3838    1.0296    2.3489 H         1 <0>         0.4083
     41 H8         -1.9972   -1.0858    6.1634 H         1 <0>         0.2027
     42 H9         -0.1293    3.7505    7.3451 H         1 <0>         0.4460
     43 H10        -1.1784    0.5927    8.7841 H         1 <0>         0.2218
     44 H11         0.4644    4.6619   12.4652 H         1 <0>         0.1245
     45 H12        -0.8146    5.5596   11.6130 H         1 <0>         0.1071
     46 H13        -1.2322    4.4948   12.9768 H         1 <0>         0.1273
     47 H14        -1.3096   -0.6823   13.3087 H         1 <0>         0.0989
     48 H15        -2.1929    0.8619   13.1834 H         1 <0>         0.1094
     49 H16        -3.6740   -1.0944   13.7880 H         1 <0>         0.1036
     50 H17        -4.1569   -0.2794   12.2806 H         1 <0>         0.0428
     51 H18        -2.8631   -2.8634   10.0841 H         1 <0>         0.1043
     52 H19        -3.6935   -1.2904   10.1636 H         1 <0>         0.0450
     53 H20        -1.3900   -0.9091    9.4688 H         1 <0>         0.1029
     54 H21        -0.7788   -1.8532   10.8529 H         1 <0>         0.1042
     55 H22        -4.7041   -3.0633   13.2149 H         1 <0>         0.0912
     56 H23        -5.2561   -2.5340   11.6075 H         1 <0>         0.0533
     57 H24        -5.0627   -4.9745   11.6240 H         1 <0>         0.0547
     58 H25        -3.7921   -4.2970   10.5776 H         1 <0>         0.0454
     59 H26        -2.9188   -5.9101   12.1076 H         1 <0>         0.3805
     60 H27        -0.2852    4.5531    9.5669 H         1 <0>         0.4414
@<TRIPOS>BOND
     1    1    2 1
     2    1   34 1
     3    1   35 1
     4    1   36 1
     5    2    7 ar
     6    2    3 ar
     7    3    4 ar
     8    3   37 1
     9    4    5 ar
    10    4   38 1
    11    5    6 ar
    12    5   39 1
    13    6    7 ar
    14    6   33 1
    15    7    8 1
    16    8    9 am
    17    8   40 1
    18    9   10 2
    19    9   11 1
    20   11   15 1
    21   11   12 2
    22   12   13 1
    23   12   41 1
    24   13   14 2
    25   14   15 1
    26   14   16 1
    27   16   17 1
    28   16   42 1
    29   17   22 ar
    30   17   18 ar
    31   18   19 ar
    32   18   43 1
    33   19   20 ar
    34   19   24 1
    35   20   21 ar
    36   21   22 ar
    37   21   23 1
    38   22   60 1
    39   23   44 1
    40   23   45 1
    41   23   46 1
    42   24   29 1
    43   24   25 1
    44   25   26 1
    45   25   47 1
    46   25   48 1
    47   26   27 1
    48   26   49 1
    49   26   50 1
    50   27   28 1
    51   27   30 1
    52   28   29 1
    53   28   51 1
    54   28   52 1
    55   29   53 1
    56   29   54 1
    57   30   31 1
    58   30   55 1
    59   30   56 1
    60   31   32 1
    61   31   57 1
    62   31   58 1
    63   32   59 1
@<TRIPOS>MOLECULE
ZINC21982951
   60    63     0     0     0
SMALL
USER_CHARGES

@<TRIPOS>ATOM
      1 C1          3.2739    6.6585    1.8418 C.3       1 <0>        -0.1168
      2 C2          2.5810    7.9910    1.9663 C.ar      1 <0>        -0.0823
      3 C3          2.8983    9.0189    1.0995 C.ar      1 <0>        -0.1038
      4 C4          2.2635   10.2419    1.2126 C.ar      1 <0>        -0.1008
      5 C5          1.3088   10.4411    2.1933 C.ar      1 <0>        -0.1049
      6 C6          0.9869    9.4175    3.0639 C.ar      1 <0>        -0.0226
      7 C7          1.6192    8.1849    2.9486 C.ar      1 <0>         0.1373
      8 N1          1.2913    7.1440    3.8238 N.am      1 <0>        -0.6678
      9 C8          1.3128    7.3511    5.1554 C.2       1 <0>         0.6036
     10 O1          1.5184    8.4680    5.5945 O.2       1 <0>        -0.4759
     11 C9          1.0891    6.2346    6.0728 C.2       1 <0>        -0.2694
     12 C10         1.0619    6.2190    7.4604 C.2       1 <0>         0.1522
     13 N2          0.8357    5.0596    8.0247 N.2       1 <0>        -0.5060
     14 C11         0.6446    3.9678    7.3056 C.2       1 <0>         0.2464
     15 S1          0.7674    4.5141    5.7185 S.3       1 <0>         0.2029
     16 N3          0.3973    2.6842    7.7505 N.pl3     1 <0>        -0.5650
     17 C12         0.2197    2.4414    9.1063 C.ar      1 <0>         0.4999
     18 C13        -0.1342    1.1736    9.5555 C.ar      1 <0>        -0.3181
     19 C14        -0.3003    0.9817   10.9244 C.ar      1 <0>         0.4940
     20 N4         -0.1157    2.0114   11.7481 N.ar      1 <0>        -0.5712
     21 C15         0.2193    3.1978   11.2829 C.ar      1 <0>         0.4509
     22 N5          0.3911    3.4178    9.9956 N.ar      1 <0>        -0.4879
     23 C16         0.4179    4.3344   12.2523 C.3       1 <0>        -0.1253
     24 N6         -0.6531   -0.2629   11.4224 N.pl3     1 <0>        -0.5744
     25 C17        -0.9639   -0.4449   12.8484 C.3       1 <0>         0.1013
     26 C18        -2.3114   -1.1652   12.9649 C.3       1 <0>         0.0387
     27 N7         -2.2712   -2.4031   12.1749 N.3       1 <0>        -0.5277
     28 C19        -2.0835   -2.1176   10.7462 C.3       1 <0>         0.0305
     29 C20        -0.7325   -1.4351   10.5377 C.3       1 <0>         0.1149
     30 C21        -3.4796   -3.2085   12.3965 C.3       1 <0>         0.0543
     31 C22        -3.2958   -4.5889   11.7629 C.3       1 <0>         0.0774
     32 O2         -2.2472   -5.2869   12.4378 O.3       1 <0>        -0.5615
     33 Cl1        -0.2110    9.6681    4.2952 Cl        1 <0>        -0.0453
     34 H1          2.7121    6.0191    1.1609 H         1 <0>         0.0767
     35 H2          4.2810    6.8077    1.4524 H         1 <0>         0.0779
     36 H3          3.3298    6.1850    2.8220 H         1 <0>         0.0648
     37 H4          3.6435    8.8670    0.3327 H         1 <0>         0.1365
     38 H5          2.5139   11.0437    0.5337 H         1 <0>         0.1383
     39 H6          0.8148   11.3976    2.2790 H         1 <0>         0.1396
     40 H7          1.0484    6.2731    3.4723 H         1 <0>         0.4083
     41 H8          1.2191    7.1147    8.0430 H         1 <0>         0.1979
     42 H9          0.3477    1.9521    7.1161 H         1 <0>         0.4525
     43 H10        -0.2767    0.3593    8.8606 H         1 <0>         0.1835
     44 H11         1.4596    4.3615   12.5720 H         1 <0>         0.1250
     45 H12         0.1626    5.2758   11.7656 H         1 <0>         0.1301
     46 H13        -0.2249    4.1881   13.1203 H         1 <0>         0.1049
     47 H14        -0.1857   -1.0458   13.3190 H         1 <0>         0.1119
     48 H15        -1.0251    0.5276   13.3369 H         1 <0>         0.0843
     49 H16        -2.5057   -1.4068   14.0099 H         1 <0>         0.1076
     50 H17        -3.1034   -0.5184   12.5874 H         1 <0>         0.0465
     51 H18        -2.1124   -3.0499   10.1822 H         1 <0>         0.1076
     52 H19        -2.8786   -1.4576   10.3996 H         1 <0>         0.0467
     53 H20        -0.6409   -1.1170    9.4992 H         1 <0>         0.1034
     54 H21         0.0684   -2.1330   10.7819 H         1 <0>         0.1075
     55 H22        -3.6507   -3.3200   13.4672 H         1 <0>         0.0925
     56 H23        -4.3362   -2.7111   11.9416 H         1 <0>         0.0553
     57 H24        -4.2233   -5.1548   11.8494 H         1 <0>         0.0565
     58 H25        -3.0370   -4.4741   10.7103 H         1 <0>         0.0456
     59 H26        -2.0752   -6.1719   12.0881 H         1 <0>         0.3821
     60 H27        -0.2297    1.8867   12.7033 H         1 <0>         0.4392
@<TRIPOS>BOND
     1    1    2 1
     2    1   34 1
     3    1   35 1
     4    1   36 1
     5    2    7 ar
     6    2    3 ar
     7    3    4 ar
     8    3   37 1
     9    4    5 ar
    10    4   38 1
    11    5    6 ar
    12    5   39 1
    13    6    7 ar
    14    6   33 1
    15    7    8 1
    16    8    9 am
    17    8   40 1
    18    9   10 2
    19    9   11 1
    20   11   15 1
    21   11   12 2
    22   12   13 1
    23   12   41 1
    24   13   14 2
    25   14   15 1
    26   14   16 1
    27   16   17 1
    28   16   42 1
    29   17   18 ar
    30   17   22 ar
    31   18   43 1
    32   18   19 ar
    33   19   24 1
    34   19   20 ar
    35   20   60 1
    36   20   21 ar
    37   21   23 1
    38   21   22 ar
    39   23   44 1
    40   23   45 1
    41   23   46 1
    42   24   29 1
    43   24   25 1
    44   25   26 1
    45   25   47 1
    46   25   48 1
    47   26   27 1
    48   26   49 1
    49   26   50 1
    50   27   28 1
    51   27   30 1
    52   28   29 1
    53   28   51 1
    54   28   52 1
    55   29   53 1
    56   29   54 1
    57   30   31 1
    58   30   55 1
    59   30   56 1
    60   31   32 1
    61   31   57 1
    62   31   58 1
    63   32   59 1
@<TRIPOS>MOLECULE
ZINC21982951
   59    62     0     0     0
SMALL
USER_CHARGES

@<TRIPOS>ATOM
      1 C1          3.4106    6.6420    1.8847 C.3       1 <0>        -0.1165
      2 C2          2.6976    7.9659    1.9845 C.ar      1 <0>        -0.0852
      3 C3          3.0204    8.9921    1.1176 C.ar      1 <0>        -0.1055
      4 C4          2.3672   10.2073    1.2080 C.ar      1 <0>        -0.1070
      5 C5          1.3885   10.4004    2.1660 C.ar      1 <0>        -0.1064
      6 C6          1.0609    9.3785    3.0365 C.ar      1 <0>        -0.0243
      7 C7          1.7118    8.1536    2.9438 C.ar      1 <0>         0.1460
      8 N1          1.3783    7.1144    3.8189 N.am      1 <0>        -0.6734
      9 C8          1.3676    7.3308    5.1492 C.2       1 <0>         0.6131
     10 O1          1.5489    8.4533    5.5848 O.2       1 <0>        -0.4899
     11 C9          1.1384    6.2176    6.0693 C.2       1 <0>        -0.3092
     12 C10         1.0807    6.2111    7.4561 C.2       1 <0>         0.1722
     13 N2          0.8573    5.0526    8.0233 N.2       1 <0>        -0.5180
     14 C11         0.6966    3.9535    7.3079 C.2       1 <0>         0.3121
     15 S1          0.8472    4.4907    5.7202 S.3       1 <0>         0.1340
     16 N3          0.4564    2.6698    7.7563 N.pl3     1 <0>        -0.5904
     17 C12         0.2490    2.4343    9.1091 C.ar      1 <0>         0.4412
     18 C13        -0.1036    1.1661    9.5586 C.ar      1 <0>        -0.3412
     19 C14        -0.3003    0.9817   10.9244 C.ar      1 <0>         0.4686
     20 N4         -0.1450    2.0186   11.7452 N.ar      1 <0>        -0.5923
     21 C15         0.1898    3.2050   11.2799 C.ar      1 <0>         0.3946
     22 N5          0.3901    3.4182    9.9956 N.ar      1 <0>        -0.5459
     23 C16         0.3546    4.3498   12.2460 C.3       1 <0>        -0.0834
     24 N6         -0.6531   -0.2629   11.4224 N.pl3     1 <0>        -0.5966
     25 C17        -1.0693   -0.4249   12.8237 C.3       1 <0>         0.1300
     26 C18        -2.3993   -1.1856   12.8517 C.3       1 <0>         0.0401
     27 N7         -2.2595   -2.4378   12.0965 N.3       1 <0>        -0.5276
     28 C19        -1.9688   -2.1765   10.6804 C.3       1 <0>         0.0363
     29 C20        -0.6270   -1.4554   10.5619 C.3       1 <0>         0.1269
     30 C21        -3.4565   -3.2768   12.2420 C.3       1 <0>         0.0537
     31 C22        -3.1814   -4.6636   11.6572 C.3       1 <0>         0.0792
     32 O2         -2.1684   -5.3132   12.4279 O.3       1 <0>        -0.5589
     33 Cl1        -0.1672    9.6214    4.2392 Cl        1 <0>        -0.0433
     34 H1          2.8725    5.9906    1.1961 H         1 <0>         0.0754
     35 H2          4.4240    6.8020    1.5166 H         1 <0>         0.0754
     36 H3          3.4510    6.1760    2.8692 H         1 <0>         0.0676
     37 H4          3.7844    8.8450    0.3685 H         1 <0>         0.1337
     38 H5          2.6220   11.0077    0.5292 H         1 <0>         0.1350
     39 H6          0.8801   11.3508    2.2339 H         1 <0>         0.1371
     40 H7          1.1547    6.2381    3.4683 H         1 <0>         0.4085
     41 H8          1.2132    7.1127    8.0357 H         1 <0>         0.1884
     42 H9          0.4325    1.9325    7.1264 H         1 <0>         0.4387
     43 H10        -0.2220    0.3459    8.8660 H         1 <0>         0.1413
     44 H11         1.3882    4.3890   12.5900 H         1 <0>         0.0870
     45 H12         0.1021    5.2855   11.7470 H         1 <0>         0.0890
     46 H13        -0.3072    4.2031   13.0995 H         1 <0>         0.0846
     47 H14        -0.3126   -0.9904   13.3674 H         1 <0>         0.0744
     48 H15        -1.1984    0.5551   13.2831 H         1 <0>         0.1008
     49 H16        -2.6676   -1.4113   13.8837 H         1 <0>         0.0903
     50 H17        -3.1785   -0.5727   12.3986 H         1 <0>         0.0372
     51 H18        -1.9249   -3.1208   10.1378 H         1 <0>         0.0905
     52 H19        -2.7540   -1.5497   10.2576 H         1 <0>         0.0380
     53 H20        -0.4638   -1.1563    9.5265 H         1 <0>         0.0877
     54 H21         0.1731   -2.1219   10.8840 H         1 <0>         0.0802
     55 H22        -3.7077   -3.3713   13.2985 H         1 <0>         0.0861
     56 H23        -4.2894   -2.8169   11.7102 H         1 <0>         0.0487
     57 H24        -4.0952   -5.2572   11.6843 H         1 <0>         0.0498
     58 H25        -2.8443   -4.5626   10.6256 H         1 <0>         0.0451
     59 H26        -1.9426   -6.1994   12.1134 H         1 <0>         0.3762
@<TRIPOS>BOND
     1    1    2 1
     2    1   34 1
     3    1   35 1
     4    1   36 1
     5    2    7 ar
     6    2    3 ar
     7    3    4 ar
     8    3   37 1
     9    4    5 ar
    10    4   38 1
    11    5    6 ar
    12    5   39 1
    13    6    7 ar
    14    6   33 1
    15    7    8 1
    16    8    9 am
    17    8   40 1
    18    9   10 2
    19    9   11 1
    20   11   15 1
    21   11   12 2
    22   12   13 1
    23   12   41 1
    24   13   14 2
    25   14   15 1
    26   14   16 1
    27   16   17 1
    28   16   42 1
    29   17   18 ar
    30   17   22 ar
    31   18   43 1
    32   18   19 ar
    33   19   24 1
    34   19   20 ar
    35   20   21 ar
    36   21   23 1
    37   21   22 ar
    38   23   44 1
    39   23   45 1
    40   23   46 1
    41   24   29 1
    42   24   25 1
    43   25   26 1
    44   25   47 1
    45   25   48 1
    46   26   27 1
    47   26   49 1
    48   26   50 1
    49   27   28 1
    50   27   30 1
    51   28   29 1
    52   28   51 1
    53   28   52 1
    54   29   53 1
    55   29   54 1
    56   30   31 1
    57   30   55 1
    58   30   56 1
    59   31   32 1
    60   31   57 1
    61   31   58 1
    62   32   59 1
@<TRIPOS>MOLECULE
ZINC21982951
   61    64     0     0     0
SMALL
USER_CHARGES

@<TRIPOS>ATOM
      1 C1          3.2770    6.6581    1.8427 C.3       1 <0>        -0.1166
      2 C2          2.5837    7.9904    1.9667 C.ar      1 <0>        -0.0814
      3 C3          2.9012    9.0183    1.0999 C.ar      1 <0>        -0.1028
      4 C4          2.2660   10.2411    1.2125 C.ar      1 <0>        -0.0975
      5 C5          1.3108   10.4402    2.1928 C.ar      1 <0>        -0.1039
      6 C6          0.9888    9.4167    3.0634 C.ar      1 <0>        -0.0218
      7 C7          1.6215    8.1842    2.9485 C.ar      1 <0>         0.1327
      8 N1          1.2933    7.1433    3.8237 N.am      1 <0>        -0.6648
      9 C8          1.3141    7.3507    5.1552 C.2       1 <0>         0.5983
     10 O1          1.5193    8.4677    5.5943 O.2       1 <0>        -0.4690
     11 C9          1.0903    6.2342    6.0727 C.2       1 <0>        -0.2500
     12 C10         1.0624    6.2188    7.4604 C.2       1 <0>         0.1439
     13 N2          0.8362    5.0594    8.0246 N.2       1 <0>        -0.4984
     14 C11         0.6458    3.9675    7.3056 C.2       1 <0>         0.2172
     15 S1          0.7692    4.5136    5.7185 S.3       1 <0>         0.2242
     16 N3          0.3986    2.6839    7.7506 N.pl3     1 <0>        -0.5513
     17 C12         0.2203    2.4413    9.1063 C.ar      1 <0>         0.5098
     18 C13        -0.1335    1.1734    9.5556 C.ar      1 <0>        -0.3097
     19 C14        -0.3003    0.9817   10.9244 C.ar      1 <0>         0.4927
     20 N4         -0.1163    2.0116   11.7481 N.ar      1 <0>        -0.5695
     21 C15         0.2187    3.1980   11.2828 C.ar      1 <0>         0.4589
     22 N5          0.3911    3.4178    9.9956 N.ar      1 <0>        -0.4762
     23 C16         0.4165    4.3348   12.2521 C.3       1 <0>        -0.1303
     24 N6         -0.6531   -0.2629   11.4224 N.pl3     1 <0>        -0.6123
     25 C17        -0.9643   -0.4465   12.8484 C.3       1 <0>         0.0782
     26 C18        -2.3027   -1.1838   12.9625 C.3       1 <0>        -0.0204
     27 N7         -2.2406   -2.4311   12.1903 N.4       1 <0>        -0.3852
     28 C19        -2.0770   -2.1279   10.7629 C.3       1 <0>        -0.0304
     29 C20        -0.7330   -1.4363   10.5388 C.3       1 <0>         0.0932
     30 C21        -3.4827   -3.1900   12.3886 C.3       1 <0>        -0.0061
     31 C22        -3.3702   -4.5448   11.6865 C.3       1 <0>         0.0434
     32 O2         -2.3479   -5.3224   12.3128 O.3       1 <0>        -0.5819
     33 Cl1        -0.2098    9.6671    4.2940 Cl        1 <0>        -0.0466
     34 H1          2.7157    6.0184    1.1617 H         1 <0>         0.0770
     35 H2          4.2843    6.8074    1.4538 H         1 <0>         0.0791
     36 H3          3.3325    6.1847    2.8230 H         1 <0>         0.0631
     37 H4          3.6468    8.8665    0.3335 H         1 <0>         0.1380
     38 H5          2.5166   11.0428    0.5336 H         1 <0>         0.1401
     39 H6          0.8165   11.3966    2.2780 H         1 <0>         0.1410
     40 H7          1.0508    6.2723    3.4722 H         1 <0>         0.4077
     41 H8          1.2191    7.1146    8.0429 H         1 <0>         0.2016
     42 H9          0.3494    1.9517    7.1163 H         1 <0>         0.4545
     43 H10        -0.2756    0.3590    8.8607 H         1 <0>         0.1860
     44 H11         1.4581    4.3621   12.5724 H         1 <0>         0.1309
     45 H12         0.1613    5.2760   11.7653 H         1 <0>         0.1358
     46 H13        -0.2267    4.1885   13.1199 H         1 <0>         0.1083
     47 H14        -0.1795   -1.0367   13.3215 H         1 <0>         0.1249
     48 H15        -1.0392    0.5259   13.3352 H         1 <0>         0.1232
     49 H16        -2.5028   -1.4138   14.0090 H         1 <0>         0.1602
     50 H17        -3.0999   -0.5526   12.5701 H         1 <0>         0.1410
     51 H18        -2.1110   -3.0537   10.1885 H         1 <0>         0.1585
     52 H19        -2.8811   -1.4682   10.4370 H         1 <0>         0.1418
     53 H20        -0.6550   -1.1179    9.4992 H         1 <0>         0.1416
     54 H21         0.0756   -2.1281   10.7747 H         1 <0>         0.1211
     55 H22        -3.6469   -3.3459   13.4548 H         1 <0>         0.1465
     56 H23        -4.3202   -2.6321   11.9697 H         1 <0>         0.1464
     57 H24        -4.3221   -5.0710   11.7578 H         1 <0>         0.1026
     58 H25        -3.1180   -4.3904   10.6374 H         1 <0>         0.0719
     59 H26        -2.2211   -6.1961   11.9183 H         1 <0>         0.4154
     60 H27        -0.2308    1.8869   12.7032 H         1 <0>         0.4393
     61 H28        -1.4578   -2.9831   12.5075 H         1 <0>         0.4359
@<TRIPOS>BOND
     1    1    2 1
     2    1   34 1
     3    1   35 1
     4    1   36 1
     5    2    7 ar
     6    2    3 ar
     7    3    4 ar
     8    3   37 1
     9    4    5 ar
    10    4   38 1
    11    5    6 ar
    12    5   39 1
    13    6    7 ar
    14    6   33 1
    15    7    8 1
    16    8    9 am
    17    8   40 1
    18    9   10 2
    19    9   11 1
    20   11   15 1
    21   11   12 2
    22   12   13 1
    23   12   41 1
    24   13   14 2
    25   14   15 1
    26   14   16 1
    27   16   17 1
    28   16   42 1
    29   17   18 ar
    30   17   22 ar
    31   18   43 1
    32   18   19 ar
    33   19   24 1
    34   19   20 ar
    35   20   60 1
    36   20   21 ar
    37   21   23 1
    38   21   22 ar
    39   23   44 1
    40   23   45 1
    41   23   46 1
    42   24   29 1
    43   24   25 1
    44   25   26 1
    45   25   47 1
    46   25   48 1
    47   26   27 1
    48   26   49 1
    49   26   50 1
    50   27   28 1
    51   27   30 1
    52   27   61 1
    53   28   29 1
    54   28   51 1
    55   28   52 1
    56   29   53 1
    57   29   54 1
    58   30   31 1
    59   30   55 1
    60   30   56 1
    61   31   32 1
    62   31   57 1
    63   31   58 1
    64   32   59 1
@<TRIPOS>MOLECULE
ZINC03814434
   62    69     0     0     0
SMALL
USER_CHARGES

@<TRIPOS>ATOM
      1 C1         -0.1295    1.5952   -0.2973 C.3       1 <0>        -0.1687
      2 C2         -0.0862    0.0696   -0.1900 C.3       1 <0>         0.3342
      3 C3          0.5692   -0.4501   -1.4637 C.3       1 <0>         0.0405
      4 H1          1.4796    0.1159   -1.6612 H         1 <0>         0.1372
      5 C4          0.9167   -1.9328   -1.2889 C.3       1 <0>        -0.0061
      6 H2          1.3963   -2.3075   -2.1932 H         1 <0>         0.1555
      7 C5          1.8785   -2.0596   -0.1021 C.3       1 <0>        -0.1827
      8 C6          1.2061   -1.5198    1.1541 C.3       1 <0>         0.2999
      9 H3          1.9797   -1.4243    1.9161 H         1 <0>         0.1550
     10 O1          0.6555   -0.2442    0.9666 O.3       1 <0>        -0.3234
     11 N1          0.2189   -2.4746    1.6600 N.pl3     1 <0>        -0.5366
     12 C7          0.4705   -3.5508    2.4739 C.ar      1 <0>         0.1469
     13 C8          1.6649   -4.0152    3.0240 C.ar      1 <0>        -0.1522
     14 C9          1.5948   -5.1456    3.8201 C.ar      1 <0>        -0.0582
     15 C10         0.4006   -5.7997    4.0696 C.ar      1 <0>        -0.1457
     16 C11        -0.7984   -5.3597    3.5358 C.ar      1 <0>        -0.0280
     17 C12        -0.7487   -4.2198    2.7307 C.ar      1 <0>        -0.1131
     18 C13        -1.7893   -3.4830    2.0197 C.ar      1 <0>         0.0276
     19 C14        -1.1442   -2.4197    1.3841 C.ar      1 <0>         0.0376
     20 C15        -1.8806   -1.5095    0.6175 C.ar      1 <0>         0.0894
     21 N2         -1.4718   -0.3951   -0.1095 N.pl3     1 <0>        -0.5183
     22 C16        -2.5611    0.1913   -0.7090 C.ar      1 <0>         0.1618
     23 C17        -2.6521    1.3277   -1.5118 C.ar      1 <0>        -0.1305
     24 C18        -3.9109    1.6745   -1.9733 C.ar      1 <0>        -0.0737
     25 C19        -5.0393    0.9368   -1.6616 C.ar      1 <0>        -0.1358
     26 C20        -4.9745   -0.1955   -0.8662 C.ar      1 <0>        -0.0503
     27 C21        -3.7147   -0.5596   -0.3919 C.ar      1 <0>        -0.1042
     28 C22        -3.2693   -1.6660    0.4845 C.ar      1 <0>        -0.0360
     29 C23        -3.9084   -2.7313    1.1102 C.ar      1 <0>        -0.0288
     30 C24        -3.1873   -3.6421    1.8754 C.ar      1 <0>        -0.1255
     31 C25        -4.1221   -4.6480    2.4030 C.2       1 <0>         0.5632
     32 O2         -3.8062   -5.5851    3.1110 O.2       1 <0>        -0.5106
     33 N3         -5.3744   -4.3851    1.9926 N.am      1 <0>        -0.7162
     34 C26        -5.3495   -3.1771    1.1601 C.3       1 <0>         0.1358
     35 N4         -0.3067   -2.7008   -1.0216 N.4       1 <0>        -0.5252
     36 C27         0.0145   -4.1336   -0.9773 C.3       1 <0>        -0.0497
     37 O3         -0.3340   -0.2979   -2.5607 O.3       1 <0>        -0.3614
     38 C28         0.3101   -0.0933   -3.8198 C.3       1 <0>         0.0162
     39 H4          0.8261    2.0094    0.0240 H         1 <0>         0.0984
     40 H5         -0.3202    1.8814   -1.3317 H         1 <0>         0.1036
     41 H6         -0.9255    1.9818    0.3392 H         1 <0>         0.0921
     42 H7          2.1370   -3.1081    0.0458 H         1 <0>         0.1233
     43 H8          2.7835   -1.4869   -0.3048 H         1 <0>         0.1455
     44 H9          2.6036   -3.5149    2.8368 H         1 <0>         0.1365
     45 H10         2.5026   -5.5304    4.2610 H         1 <0>         0.1359
     46 H11         0.4045   -6.6780    4.6980 H         1 <0>         0.1352
     47 H12        -1.7278   -5.8736    3.7323 H         1 <0>         0.1600
     48 H13        -1.7792    1.9122   -1.7624 H         1 <0>         0.1440
     49 H14        -4.0153    2.5500   -2.5970 H         1 <0>         0.1336
     50 H15        -5.9967    1.2527   -2.0488 H         1 <0>         0.1332
     51 H16        -5.8575   -0.7687   -0.6249 H         1 <0>         0.1415
     52 H17        -6.1628   -4.9065    2.2103 H         1 <0>         0.4348
     53 H18        -5.9671   -2.3994    1.6094 H         1 <0>         0.1115
     54 H19        -5.7060   -3.4063    0.1559 H         1 <0>         0.1103
     55 H20        -0.6958   -2.4158   -0.1353 H         1 <0>         0.4186
     56 H21         0.4349   -4.4415   -1.9347 H         1 <0>         0.1256
     57 H22         0.7403   -4.3189   -0.1854 H         1 <0>         0.1191
     58 H23        -0.8932   -4.7035   -0.7789 H         1 <0>         0.1256
     59 H24         0.9168    0.8112   -3.7748 H         1 <0>         0.0633
     60 H25         0.9482   -0.9479   -4.0446 H         1 <0>         0.0514
     61 H26        -0.4433    0.0130   -4.6003 H         1 <0>         0.1100
     62 H27        -0.9785   -2.5293   -1.7546 H         1 <0>         0.4274
@<TRIPOS>BOND
     1    1    2 1
     2    1   39 1
     3    1   40 1
     4    1   41 1
     5    2   10 1
     6    2   21 1
     7    2    3 1
     8    3    4 1
     9    3    5 1
    10    3   37 1
    11    5    6 1
    12    5    7 1
    13    5   35 1
    14    7    8 1
    15    7   42 1
    16    7   43 1
    17    8    9 1
    18    8   10 1
    19    8   11 1
    20   11   19 1
    21   11   12 1
    22   12   17 ar
    23   12   13 ar
    24   13   14 ar
    25   13   44 1
    26   14   15 ar
    27   14   45 1
    28   15   16 ar
    29   15   46 1
    30   16   17 ar
    31   16   47 1
    32   17   18 1
    33   18   30 ar
    34   18   19 ar
    35   19   20 ar
    36   20   28 ar
    37   20   21 1
    38   21   22 1
    39   22   27 ar
    40   22   23 ar
    41   23   24 ar
    42   23   48 1
    43   24   25 ar
    44   24   49 1
    45   25   26 ar
    46   25   50 1
    47   26   27 ar
    48   26   51 1
    49   27   28 1
    50   28   29 ar
    51   29   34 1
    52   29   30 ar
    53   30   31 1
    54   31   32 2
    55   31   33 am
    56   33   34 1
    57   33   52 1
    58   34   53 1
    59   34   54 1
    60   35   36 1
    61   35   55 1
    62   35   62 1
    63   36   56 1
    64   36   57 1
    65   36   58 1
    66   37   38 1
    67   38   59 1
    68   38   60 1
    69   38   61 1
@<TRIPOS>MOLECULE
ZINC06718813
   46    49     0     0     0
SMALL
USER_CHARGES
3-[4-(3-amino-1H-indazol-4-yl)phenyl]-1-(2-fluoro-5-methyl-phenyl)urea
@<TRIPOS>ATOM
      1 C1          6.9492   -0.6708   -4.4566 C.3       1 <0>        -0.1151
      2 C2          7.3188   -0.0066   -3.1554 C.ar      1 <0>        -0.0747
      3 C3          8.6152   -0.0905   -2.6815 C.ar      1 <0>        -0.1060
      4 C4          8.9590    0.5169   -1.4879 C.ar      1 <0>        -0.1295
      5 C5          8.0061    1.2101   -0.7639 C.ar      1 <0>         0.0645
      6 C6          6.7020    1.2957   -1.2387 C.ar      1 <0>         0.1336
      7 C7          6.3607    0.6802   -2.4351 C.ar      1 <0>        -0.0953
      8 N1          5.7336    1.9963   -0.5085 N.am      1 <0>        -0.6783
      9 C8          4.4547    1.5712   -0.5040 C.2       1 <0>         0.7069
     10 O1          4.1265    0.6239   -1.1921 O.2       1 <0>        -0.5500
     11 N2          3.5395    2.1961    0.2631 N.am      1 <0>        -0.6801
     12 C9          2.2409    1.6865    0.3572 C.ar      1 <0>         0.1677
     13 C10         1.1632    2.5541    0.4899 C.ar      1 <0>        -0.1430
     14 C11        -0.1180    2.0545    0.5834 C.ar      1 <0>        -0.0892
     15 C12        -0.3326    0.6766    0.5442 C.ar      1 <0>        -0.0682
     16 C13         0.7509   -0.1919    0.4104 C.ar      1 <0>        -0.0779
     17 C14         2.0300    0.3132    0.3174 C.ar      1 <0>        -0.1142
     18 C15        -1.7083    0.1367    0.6449 C.ar      1 <0>         0.0376
     19 C16        -2.0347   -0.7648    1.6483 C.ar      1 <0>        -0.1557
     20 C17        -3.3230   -1.2675    1.7456 C.ar      1 <0>        -0.0592
     21 C18        -4.2968   -0.8911    0.8473 C.ar      1 <0>        -0.1529
     22 C19        -3.9969    0.0086   -0.1734 C.ar      1 <0>         0.1547
     23 C20        -2.6946    0.5292   -0.2801 C.ar      1 <0>        -0.1858
     24 C21        -2.7034    1.4283   -1.4324 C.2       1 <0>         0.3642
     25 N3         -3.9099    1.4169   -1.9352 N.2       1 <0>        -0.3205
     26 N4         -4.7292    0.5606   -1.1926 N.pl3     1 <0>        -0.5119
     27 H1         -5.6955    0.3797   -1.3759 H         1 <0>         0.4473
     28 N5         -1.6172    2.1667   -1.9108 N.pl3     1 <0>        -0.8360
     29 F1          8.3418    1.8036    0.4023 F         1 <0>        -0.1384
     30 H2          6.6188   -1.6912   -4.2627 H         1 <0>         0.0755
     31 H3          6.1436   -0.1125   -4.9335 H         1 <0>         0.0695
     32 H4          7.8178   -0.6890   -5.1149 H         1 <0>         0.0704
     33 H5          9.3607   -0.6319   -3.2448 H         1 <0>         0.1352
     34 H6          9.9724    0.4496   -1.1204 H         1 <0>         0.1410
     35 H7          5.3477    0.7413   -2.8045 H         1 <0>         0.1523
     36 H8          5.9835    2.7876   -0.0061 H         1 <0>         0.4118
     37 H9          3.7818    2.9993    0.7499 H         1 <0>         0.4106
     38 H10         1.3298    3.6208    0.5203 H         1 <0>         0.1310
     39 H11        -0.9554    2.7293    0.6824 H         1 <0>         0.1315
     40 H12         0.5876   -1.2590    0.3794 H         1 <0>         0.1314
     41 H13         2.8692   -0.3587    0.2138 H         1 <0>         0.1391
     42 H14        -1.2822   -1.0738    2.3586 H         1 <0>         0.1292
     43 H15        -3.5651   -1.9655    2.5334 H         1 <0>         0.1325
     44 H16        -5.2951   -1.2940    0.9345 H         1 <0>         0.1278
     45 H17        -0.7342    2.0309   -1.5329 H         1 <0>         0.4118
     46 H18        -1.7465    2.8151   -2.6206 H         1 <0>         0.4050
@<TRIPOS>BOND
     1    1    2 1
     2    1   30 1
     3    1   31 1
     4    1   32 1
     5    2    7 ar
     6    2    3 ar
     7    3    4 ar
     8    3   33 1
     9    4    5 ar
    10    4   34 1
    11    5    6 ar
    12    5   29 1
    13    6    7 ar
    14    6    8 1
    15    7   35 1
    16    8    9 am
    17    8   36 1
    18    9   10 2
    19    9   11 am
    20   11   12 1
    21   11   37 1
    22   12   17 ar
    23   12   13 ar
    24   13   14 ar
    25   13   38 1
    26   14   15 ar
    27   14   39 1
    28   15   16 ar
    29   15   18 1
    30   16   17 ar
    31   16   40 1
    32   17   41 1
    33   18   23 ar
    34   18   19 ar
    35   19   20 ar
    36   19   42 1
    37   20   21 ar
    38   20   43 1
    39   21   22 ar
    40   21   44 1
    41   22   26 1
    42   22   23 ar
    43   23   24 1
    44   24   25 2
    45   24   28 1
    46   25   26 1
    47   26   27 1
    48   28   45 1
    49   28   46 1
@<TRIPOS>MOLECULE
ZINC03834198
   55    58     0     0     0
SMALL
USER_CHARGES

@<TRIPOS>ATOM
      1 C1          2.2102    1.3214   -1.5438 C.3       1 <0>        -0.0473
      2 N1          2.0302   -0.1310   -1.4177 N.4       1 <0>        -0.3861
      3 C2          2.8485   -0.8135   -2.4272 C.3       1 <0>        -0.0039
      4 C3          2.6029   -2.3220   -2.3537 C.3       1 <0>        -0.1426
      5 C4          2.9828   -2.8281   -0.9591 C.3       1 <0>        -0.0980
      6 C5          2.1768   -2.0570    0.0901 C.3       1 <0>        -0.1436
      7 C6          2.4382   -0.5583   -0.0740 C.3       1 <0>        -0.0065
      8 C7          2.6653   -4.3210   -0.8526 C.3       1 <0>         0.0553
      9 O1          3.1265   -4.8175    0.4056 O.3       1 <0>        -0.2959
     10 C8          2.9210   -6.1358    0.6612 C.ar      1 <0>         0.1621
     11 C9          2.2972   -6.9233   -0.2811 C.ar      1 <0>        -0.1791
     12 C10         2.0867   -8.2816   -0.0149 C.ar      1 <0>         0.2018
     13 C11         2.5192   -8.8246    1.2204 C.ar      1 <0>        -0.1784
     14 C12         3.1508   -8.0026    2.1612 C.ar      1 <0>        -0.1424
     15 C13         3.3512   -6.6812    1.8787 C.ar      1 <0>         0.1099
     16 O2          3.9702   -5.8850    2.7909 O.3       1 <0>        -0.3030
     17 C14         4.3854   -6.4992    4.0125 C.3       1 <0>         0.0198
     18 C15         2.2930  -10.2009    1.4605 C.ar      1 <0>         0.4667
     19 N2          1.6881  -10.9114    0.5174 N.ar      1 <0>        -0.5768
     20 C16         1.3012  -10.3606   -0.6222 C.ar      1 <0>         0.3478
     21 N3          1.4842   -9.0917   -0.8996 N.ar      1 <0>        -0.5414
     22 N4          2.6915  -10.7885    2.6441 N.pl3     1 <0>        -0.6296
     23 C17         2.5831  -12.1741    2.8088 C.ar      1 <0>         0.1376
     24 C18         2.4560  -12.9987    1.6992 C.ar      1 <0>        -0.1039
     25 C19         2.3491  -14.3660    1.8644 C.ar      1 <0>        -0.0732
     26 C20         2.3685  -14.9152    3.1341 C.ar      1 <0>        -0.0857
     27 C21         2.4949  -14.0974    4.2430 C.ar      1 <0>        -0.1007
     28 C22         2.6081  -12.7284    4.0841 C.ar      1 <0>         0.0686
     29 F1          2.7372  -11.9301    5.1664 F         1 <0>        -0.1332
     30 Br1         2.2212  -16.7875    3.3546 Br        1 <0>        -0.0295
     31 H1          3.2589    1.5727   -1.3848 H         1 <0>         0.1219
     32 H2          1.9075    1.6398   -2.5414 H         1 <0>         0.1242
     33 H3          1.5979    1.8295   -0.7989 H         1 <0>         0.1242
     34 H4          2.5792   -0.4499   -3.4189 H         1 <0>         0.1343
     35 H5          3.9024   -0.6078   -2.2397 H         1 <0>         0.1306
     36 H6          1.5493   -2.5288   -2.5414 H         1 <0>         0.0934
     37 H7          3.2127   -2.8271   -3.1028 H         1 <0>         0.1176
     38 H8          4.0478   -2.6678   -0.7908 H         1 <0>         0.1030
     39 H9          1.1143   -2.2583   -0.0469 H         1 <0>         0.0893
     40 H10         2.4820   -2.3726    1.0878 H         1 <0>         0.1210
     41 H11         3.5008   -0.3580    0.0634 H         1 <0>         0.1299
     42 H12         1.8660   -0.0063    0.6716 H         1 <0>         0.1325
     43 H13         1.5883   -4.4698   -0.9292 H         1 <0>         0.0742
     44 H14         3.1645   -4.8571   -1.6597 H         1 <0>         0.0787
     45 H15         1.9724   -6.4960   -1.2182 H         1 <0>         0.1540
     46 H16         3.4818   -8.4122    3.1042 H         1 <0>         0.1414
     47 H17         4.8638   -5.7549    4.6491 H         1 <0>         0.1093
     48 H18         3.5165   -6.9116    4.5254 H         1 <0>         0.0597
     49 H19         5.0925   -7.2996    3.7947 H         1 <0>         0.0600
     50 H20         0.8133  -10.9840   -1.3569 H         1 <0>         0.2036
     51 H21         3.0467  -10.2411    3.3618 H         1 <0>         0.4241
     52 H22         2.4404  -12.5714    0.7074 H         1 <0>         0.1818
     53 H23         2.2499  -15.0072    1.0010 H         1 <0>         0.1463
     54 H24         2.5094  -14.5289    5.2329 H         1 <0>         0.1515
     55 H25         1.0589   -0.3624   -1.5626 H         1 <0>         0.4246
@<TRIPOS>BOND
     1    1    2 1
     2    1   31 1
     3    1   32 1
     4    1   33 1
     5    2    7 1
     6    2    3 1
     7    2   55 1
     8    3    4 1
     9    3   34 1
    10    3   35 1
    11    4    5 1
    12    4   36 1
    13    4   37 1
    14    5    6 1
    15    5    8 1
    16    5   38 1
    17    6    7 1
    18    6   39 1
    19    6   40 1
    20    7   41 1
    21    7   42 1
    22    8    9 1
    23    8   43 1
    24    8   44 1
    25    9   10 1
    26   10   15 ar
    27   10   11 ar
    28   11   12 ar
    29   11   45 1
    30   12   21 ar
    31   12   13 ar
    32   13   14 ar
    33   13   18 ar
    34   14   15 ar
    35   14   46 1
    36   15   16 1
    37   16   17 1
    38   17   47 1
    39   17   48 1
    40   17   49 1
    41   18   19 ar
    42   18   22 1
    43   19   20 ar
    44   20   21 ar
    45   20   50 1
    46   22   23 1
    47   22   51 1
    48   23   28 ar
    49   23   24 ar
    50   24   25 ar
    51   24   52 1
    52   25   26 ar
    53   25   53 1
    54   26   27 ar
    55   26   30 1
    56   27   28 ar
    57   27   54 1
    58   28   29 1
@<TRIPOS>MOLECULE
ZINC06716957
   61    65     0     0     0
SMALL
USER_CHARGES
4-methyl-N-[3-(4-methylimidazol-1-yl)-5-(trifluoromethyl)phenyl]-3-[4-(3-pyridyl)pyrimidin-2-yl]amino-benzamide
@<TRIPOS>ATOM
      1 C1          4.8797   -3.9669    0.1547 C.3       1 <0>        -0.1225
      2 C2          3.5754   -4.7217    0.1669 C.ar      1 <0>        -0.0869
      3 C3          3.5795   -6.1039    0.1964 C.ar      1 <0>        -0.1014
      4 C4          2.3894   -6.8021    0.2020 C.ar      1 <0>        -0.1034
      5 C5          1.1753   -6.1126    0.1832 C.ar      1 <0>        -0.1270
      6 C6          1.1710   -4.7182    0.1589 C.ar      1 <0>        -0.0590
      7 C7          2.3724   -4.0259    0.1535 C.ar      1 <0>         0.1619
      8 N1          2.3736   -2.6277    0.1286 N.pl3     1 <0>        -0.6325
      9 C8          1.2893   -1.9432   -0.3959 C.ar      1 <0>         0.5614
     10 N2          0.3200   -2.6260   -0.9883 N.ar      1 <0>        -0.5534
     11 C9         -0.7320   -2.0090   -1.5021 C.ar      1 <0>         0.1977
     12 C10        -0.8164   -0.6303   -1.4172 C.ar      1 <0>        -0.2657
     13 C11         0.2206    0.0624   -0.7871 C.ar      1 <0>         0.2658
     14 N3          1.2507   -0.6239   -0.2975 N.ar      1 <0>        -0.5571
     15 C12         0.1772    1.5403   -0.6710 C.ar      1 <0>        -0.1169
     16 C13         1.2145    2.2342   -0.0406 C.ar      1 <0>        -0.0276
     17 C14         1.1266    3.6129    0.0420 C.ar      1 <0>        -0.1784
     18 C15         0.0258    4.2543   -0.4966 C.ar      1 <0>         0.1175
     19 N4         -0.9376    3.5726   -1.0856 N.ar      1 <0>        -0.4841
     20 C16        -0.8952    2.2604   -1.1934 C.ar      1 <0>         0.1340
     21 C17        -0.1012   -6.8583    0.1887 C.2       1 <0>         0.5673
     22 O1         -1.1570   -6.2560    0.1719 O.2       1 <0>        -0.5061
     23 N5         -0.0944   -8.2058    0.2122 N.am      1 <0>        -0.6669
     24 C18        -1.2963   -8.9130    0.1072 C.ar      1 <0>         0.1849
     25 C19        -1.4127  -10.1752    0.6766 C.ar      1 <0>        -0.1112
     26 C20        -2.6011  -10.8720    0.5773 C.ar      1 <0>        -0.1296
     27 C21        -3.6741  -10.3211   -0.0973 C.ar      1 <0>        -0.1084
     28 C22        -3.5624   -9.0626   -0.6729 C.ar      1 <0>         0.1652
     29 C23        -2.3721   -8.3576   -0.5706 C.ar      1 <0>        -0.1152
     30 N6         -4.6520   -8.5044   -1.3568 N.pl3     1 <0>        -0.4135
     31 C24        -4.6878   -7.2792   -1.9710 C.2       1 <0>        -0.0484
     32 C25        -5.9185   -7.1442   -2.5004 C.2       1 <0>         0.0096
     33 N7         -6.6190   -8.2532   -2.2203 N.2       1 <0>        -0.4758
     34 C26        -5.8695   -9.0779   -1.5408 C.2       1 <0>         0.1944
     35 C27        -6.4219   -5.9529   -3.2741 C.3       1 <0>        -0.0703
     36 C28        -2.7260  -12.2385    1.2004 C.3       1 <0>         0.5133
     37 F1         -2.3418  -13.2115    0.2714 F         1 <0>        -0.1709
     38 F2         -1.8981  -12.3154    2.3255 F         1 <0>        -0.1721
     39 F3         -4.0538  -12.4572    1.5826 F         1 <0>        -0.1717
     40 H1          5.1932   -3.7667    1.1793 H         1 <0>         0.0780
     41 H2          5.6404   -4.5642   -0.3479 H         1 <0>         0.0781
     42 H3          4.7488   -3.0240   -0.3761 H         1 <0>         0.0665
     43 H4          4.5175   -6.6391    0.2106 H         1 <0>         0.1366
     44 H5          2.3969   -7.8819    0.2212 H         1 <0>         0.1267
     45 H6          0.2351   -4.1794    0.1439 H         1 <0>         0.1656
     46 H7          3.1337   -2.1370    0.4786 H         1 <0>         0.4259
     47 H8         -1.5163   -2.5753   -1.9823 H         1 <0>         0.1768
     48 H9         -1.6642   -0.1022   -1.8280 H         1 <0>         0.1524
     49 H10         2.0625    1.7077    0.3717 H         1 <0>         0.1463
     50 H11         1.9093    4.1820    0.5216 H         1 <0>         0.1425
     51 H12        -0.0458    5.3301   -0.4343 H         1 <0>         0.1622
     52 H13        -1.7012    1.7376   -1.6869 H         1 <0>         0.1630
     53 H14         0.7441   -8.6851    0.3020 H         1 <0>         0.4178
     54 H15        -0.5744  -10.6101    1.2006 H         1 <0>         0.1488
     55 H16        -4.6008  -10.8701   -0.1765 H         1 <0>         0.1477
     56 H17        -2.2829   -7.3787   -1.0179 H         1 <0>         0.1618
     57 H18        -3.8832   -6.5605   -2.0210 H         1 <0>         0.1795
     58 H19        -6.1682  -10.0519   -1.1825 H         1 <0>         0.2113
     59 H20        -6.2142   -6.0943   -4.3347 H         1 <0>         0.0711
     60 H21        -7.4967   -5.8505   -3.1248 H         1 <0>         0.0731
     61 H22        -5.9187   -5.0522   -2.9223 H         1 <0>         0.0710
@<TRIPOS>BOND
     1    1    2 1
     2    1   40 1
     3    1   41 1
     4    1   42 1
     5    2    7 ar
     6    2    3 ar
     7    3    4 ar
     8    3   43 1
     9    4    5 ar
    10    4   44 1
    11    5    6 ar
    12    5   21 1
    13    6    7 ar
    14    6   45 1
    15    7    8 1
    16    8    9 1
    17    8   46 1
    18    9   14 ar
    19    9   10 ar
    20   10   11 ar
    21   11   12 ar
    22   11   47 1
    23   12   13 ar
    24   12   48 1
    25   13   14 ar
    26   13   15 1
    27   15   20 ar
    28   15   16 ar
    29   16   17 ar
    30   16   49 1
    31   17   18 ar
    32   17   50 1
    33   18   19 ar
    34   18   51 1
    35   19   20 ar
    36   20   52 1
    37   21   22 2
    38   21   23 am
    39   23   24 1
    40   23   53 1
    41   24   29 ar
    42   24   25 ar
    43   25   26 ar
    44   25   54 1
    45   26   27 ar
    46   26   36 1
    47   27   28 ar
    48   27   55 1
    49   28   29 ar
    50   28   30 1
    51   29   56 1
    52   30   34 1
    53   30   31 1
    54   31   32 2
    55   31   57 1
    56   32   33 1
    57   32   35 1
    58   33   34 2
    59   34   58 1
    60   35   59 1
    61   35   60 1
    62   35   61 1
    63   36   37 1
    64   36   38 1
    65   36   39 1
@<TRIPOS>MOLECULE
ZINC14951176
   39    42     0     0     0
SMALL
USER_CHARGES

@<TRIPOS>ATOM
      1 C1          0.2405    1.0255    0.8302 C.ar      1 <0>        -0.0645
      2 C2          1.4224    1.7334    0.7710 C.ar      1 <0>        -0.1488
      3 C3          2.3671    1.4303   -0.1967 C.ar      1 <0>         0.1270
      4 C4          2.1300    0.4154   -1.1103 C.ar      1 <0>        -0.1484
      5 C5          0.9516   -0.2992   -1.0607 C.ar      1 <0>        -0.0503
      6 C6         -0.0037    0.0016   -0.0874 C.ar      1 <0>        -0.0633
      7 C7         -1.2678   -0.7602   -0.0291 C.2       1 <0>         0.1046
      8 C8         -1.3961   -2.1162   -0.0863 C.2       1 <0>         0.0796
      9 N1         -2.7456   -2.4073    0.0017 N.pl3     1 <0>        -0.5519
     10 C9         -3.4195   -1.2472    0.1100 C.2       1 <0>         0.4661
     11 C10        -4.8730   -1.1131    0.2269 C.2       1 <0>        -0.2712
     12 C11        -5.4545    0.1603    0.3285 C.2       1 <0>        -0.0131
     13 C12        -6.8063    0.2847    0.4372 C.2       1 <0>        -0.2432
     14 C13        -7.6177   -0.8599    0.4477 C.2       1 <0>         0.3274
     15 O1         -8.9418   -0.7377    0.5542 O.2       1 <0>        -0.6199
     16 C14        -7.0368   -2.1329    0.3456 C.2       1 <0>        -0.2432
     17 C15        -5.6854   -2.2577    0.2315 C.2       1 <0>        -0.0132
     18 N2         -2.5363   -0.2302    0.0993 N.pl3     1 <0>        -0.5537
     19 C16        -0.2980   -3.0933   -0.2185 C.ar      1 <0>         0.0029
     20 C17         0.8460   -3.0046    0.5859 C.ar      1 <0>        -0.1375
     21 C18         1.8471   -3.9391    0.4288 C.ar      1 <0>         0.1110
     22 N3          1.7384   -4.9058   -0.4634 N.ar      1 <0>        -0.4697
     23 C19         0.6787   -5.0262   -1.2411 C.ar      1 <0>         0.1111
     24 C20        -0.3725   -4.1394   -1.1479 C.ar      1 <0>        -0.1541
     25 F1          3.5233    2.1271   -0.2501 F         1 <0>        -0.1285
     26 H1         -0.4930    1.2596    1.5875 H         1 <0>         0.1388
     27 H2          1.6122    2.5258    1.4800 H         1 <0>         0.1474
     28 H3          2.8693    0.1839   -1.8628 H         1 <0>         0.1469
     29 H4          0.7677   -1.0896   -1.7733 H         1 <0>         0.1375
     30 H5         -3.1383   -3.2941   -0.0126 H         1 <0>         0.4530
     31 H6         -4.8300    1.0414    0.3209 H         1 <0>         0.1049
     32 H7         -7.2538    1.2645    0.5158 H         1 <0>         0.1221
     33 H8         -7.6616   -3.0138    0.3533 H         1 <0>         0.1221
     34 H9         -5.2386   -3.2374    0.1489 H         1 <0>         0.1046
     35 H10        -2.7542    0.7126    0.1673 H         1 <0>         0.4532
     36 H11         0.9421   -2.2159    1.3174 H         1 <0>         0.1420
     37 H12         2.7328   -3.8793    1.0439 H         1 <0>         0.1658
     38 H13         0.6328   -5.8333   -1.9573 H         1 <0>         0.1659
     39 H14        -1.2383   -4.2467   -1.7845 H         1 <0>         0.1405
@<TRIPOS>BOND
     1    1    6 ar
     2    1    2 ar
     3    1   26 1
     4    2    3 ar
     5    2   27 1
     6    3    4 ar
     7    3   25 1
     8    4    5 ar
     9    4   28 1
    10    5    6 ar
    11    5   29 1
    12    6    7 1
    13    7   18 1
    14    7    8 2
    15    8    9 1
    16    8   19 1
    17    9   10 1
    18    9   30 1
    19   10   11 2
    20   10   18 1
    21   11   17 1
    22   11   12 1
    23   12   13 2
    24   12   31 1
    25   13   14 1
    26   13   32 1
    27   14   15 2
    28   14   16 1
    29   16   17 2
    30   16   33 1
    31   17   34 1
    32   18   35 1
    33   19   24 ar
    34   19   20 ar
    35   20   21 ar
    36   20   36 1
    37   21   22 ar
    38   21   37 1
    39   22   23 ar
    40   23   24 ar
    41   23   38 1
    42   24   39 1
@<TRIPOS>MOLECULE
ZINC14951176
   40    43     0     0     0
SMALL
USER_CHARGES

@<TRIPOS>ATOM
      1 C1          0.2405    1.0255    0.8302 C.ar      1 <0>        -0.0528
      2 C2          1.4224    1.7334    0.7710 C.ar      1 <0>        -0.1439
      3 C3          2.3671    1.4303   -0.1967 C.ar      1 <0>         0.1411
      4 C4          2.1300    0.4154   -1.1103 C.ar      1 <0>        -0.1508
      5 C5          0.9516   -0.2992   -1.0607 C.ar      1 <0>        -0.0597
      6 C6         -0.0037    0.0016   -0.0874 C.ar      1 <0>        -0.0905
      7 C7         -1.2678   -0.7602   -0.0291 C.2       1 <0>         0.1717
      8 C8         -1.3961   -2.1162   -0.0863 C.2       1 <0>         0.0049
      9 N1         -2.7456   -2.4073    0.0017 N.pl3     1 <0>        -0.5619
     10 C9         -3.4195   -1.2472    0.1100 C.2       1 <0>         0.4672
     11 C10        -4.8730   -1.1131    0.2269 C.2       1 <0>        -0.2599
     12 C11        -5.6849   -2.2580    0.2378 C.2       1 <0>        -0.0193
     13 C12        -7.0367   -2.1330    0.3465 C.2       1 <0>        -0.2271
     14 C13        -7.6177   -0.8599    0.4475 C.2       1 <0>         0.3291
     15 O1         -8.9418   -0.7377    0.5539 O.2       1 <0>        -0.5899
     16 C14        -6.8064    0.2847    0.4370 C.2       1 <0>        -0.2265
     17 C15        -5.4541    0.1600    0.3338 C.2       1 <0>        -0.0193
     18 N2         -2.5363   -0.2302    0.0993 N.pl3     1 <0>        -0.5609
     19 C16        -0.2980   -3.0933   -0.2185 C.ar      1 <0>         0.1131
     20 C17         0.8460   -3.0046    0.5859 C.ar      1 <0>        -0.1113
     21 C18         1.8471   -3.9391    0.4288 C.ar      1 <0>         0.1475
     22 N3          1.7384   -4.9058   -0.4634 N.ar      1 <0>        -0.4453
     23 C19         0.6789   -5.0260   -1.2413 C.ar      1 <0>         0.1502
     24 C20        -0.3725   -4.1394   -1.1479 C.ar      1 <0>        -0.1247
     25 F1          3.5233    2.1271   -0.2501 F         1 <0>        -0.1206
     26 H1         -0.4930    1.2596    1.5875 H         1 <0>         0.1448
     27 H2          1.6122    2.5258    1.4800 H         1 <0>         0.1545
     28 H3          2.8693    0.1839   -1.8628 H         1 <0>         0.1503
     29 H4          0.7677   -1.0896   -1.7733 H         1 <0>         0.1343
     30 H5         -3.1383   -3.2941   -0.0126 H         1 <0>         0.4541
     31 H6         -5.2377   -3.2379    0.1597 H         1 <0>         0.1066
     32 H7         -7.6615   -3.0138    0.3545 H         1 <0>         0.1278
     33 H8         -7.2539    1.2645    0.5152 H         1 <0>         0.1286
     34 H9         -4.8293    1.0409    0.3299 H         1 <0>         0.1087
     35 H10        -2.7542    0.7126    0.1673 H         1 <0>         0.4588
     36 H11         0.9421   -2.2159    1.3174 H         1 <0>         0.1893
     37 H12         2.7328   -3.8793    1.0439 H         1 <0>         0.2181
     38 H13         0.6331   -5.8328   -1.9578 H         1 <0>         0.2182
     39 H14        -1.2383   -4.2467   -1.7845 H         1 <0>         0.1884
     40 H15         2.4602   -5.5480   -0.5503 H         1 <0>         0.4572
@<TRIPOS>BOND
     1    1    6 ar
     2    1    2 ar
     3    1   26 1
     4    2    3 ar
     5    2   27 1
     6    3    4 ar
     7    3   25 1
     8    4    5 ar
     9    4   28 1
    10    5    6 ar
    11    5   29 1
    12    6    7 1
    13    7   18 1
    14    7    8 2
    15    8    9 1
    16    8   19 1
    17    9   10 1
    18    9   30 1
    19   10   11 2
    20   10   18 1
    21   11   17 1
    22   11   12 1
    23   12   13 2
    24   12   31 1
    25   13   14 1
    26   13   32 1
    27   14   15 2
    28   14   16 1
    29   16   17 2
    30   16   33 1
    31   17   34 1
    32   18   35 1
    33   19   24 ar
    34   19   20 ar
    35   20   21 ar
    36   20   36 1
    37   21   22 ar
    38   21   37 1
    39   22   23 ar
    40   22   40 1
    41   23   24 ar
    42   23   38 1
    43   24   39 1
@<TRIPOS>MOLECULE
ZINC14951176
   39    42     0     0     0
SMALL
USER_CHARGES

@<TRIPOS>ATOM
      1 C1         -0.0169    1.3921    0.0097 C.ar      1 <0>        -0.0566
      2 C2          1.1683    2.0955    0.0022 C.ar      1 <0>        -0.1420
      3 C3          2.3804    1.4175   -0.0135 C.ar      1 <0>         0.1205
      4 C4          2.4035    0.0288   -0.0217 C.ar      1 <0>        -0.1413
      5 C5          1.2227   -0.6820   -0.0137 C.ar      1 <0>        -0.0915
      6 C6          0.0021   -0.0041    0.0020 C.ar      1 <0>        -0.0305
      7 C7         -1.2663   -0.7622    0.0101 C.2       1 <0>         0.2668
      8 N1         -2.4688   -0.2344    0.0239 N.2       1 <0>        -0.4516
      9 H1         -0.6429   -2.7598   -0.0166 H         1 <0>         0.4248
     10 C8         -3.3891   -1.2133    0.0276 C.2       1 <0>         0.0607
     11 C9         -2.7170   -2.4244    0.0153 C.2       1 <0>         0.0509
     12 N2         -1.3752   -2.1239   -0.0017 N.pl3     1 <0>        -0.5528
     13 C10        -3.3214   -3.7709    0.0147 C.ar      1 <0>        -0.0389
     14 C11        -4.3834   -4.0632    0.8738 C.ar      1 <0>        -0.0572
     15 C12        -4.9440   -5.3230    0.8688 C.ar      1 <0>        -0.1473
     16 C13        -4.4555   -6.2985    0.0139 C.ar      1 <0>         0.1118
     17 C14        -3.4017   -6.0145   -0.8405 C.ar      1 <0>        -0.1493
     18 C15        -2.8374   -4.7564   -0.8492 C.ar      1 <0>        -0.0780
     19 F1         -5.0084   -7.5311    0.0136 F         1 <0>        -0.1337
     20 C16        -4.8582   -1.0303    0.0430 C.ar      1 <0>         0.0400
     21 C17        -5.7004   -1.9173   -0.6371 C.ar      1 <0>        -0.1586
     22 C18        -7.0629   -1.7095   -0.5964 C.ar      1 <0>         0.1014
     23 N3         -7.5737   -0.6921    0.0713 N.ar      1 <0>        -0.4840
     24 C19        -6.8154    0.1672    0.7258 C.ar      1 <0>         0.1006
     25 C20        -5.4433    0.0310    0.7427 C.ar      1 <0>        -0.1465
     26 O1          3.5463    2.1144   -0.0214 O.3       1 <0>        -0.4977
     27 H2         -0.9589    1.9200    0.0260 H         1 <0>         0.1437
     28 H3          1.1545    3.1754    0.0081 H         1 <0>         0.1381
     29 H4          3.3480   -0.4948   -0.0346 H         1 <0>         0.1359
     30 H5          1.2415   -1.7618   -0.0204 H         1 <0>         0.1230
     31 H6         -4.7644   -3.3041    1.5409 H         1 <0>         0.1365
     32 H7         -5.7651   -5.5501    1.5325 H         1 <0>         0.1435
     33 H8         -3.0248   -6.7788   -1.5040 H         1 <0>         0.1419
     34 H9         -2.0195   -4.5348   -1.5187 H         1 <0>         0.1326
     35 H10        -5.2894   -2.7518   -1.1857 H         1 <0>         0.1340
     36 H11        -7.7211   -2.3883   -1.1184 H         1 <0>         0.1574
     37 H12        -7.2760    0.9856    1.2591 H         1 <0>         0.1586
     38 H13        -4.8292    0.7351    1.2845 H         1 <0>         0.1395
     39 H14         3.8927    2.3115    0.8597 H         1 <0>         0.3954
@<TRIPOS>BOND
     1    1    6 ar
     2    1    2 ar
     3    1   27 1
     4    2    3 ar
     5    2   28 1
     6    3    4 ar
     7    3   26 1
     8    4    5 ar
     9    4   29 1
    10    5    6 ar
    11    5   30 1
    12    6    7 1
    13    7    8 2
    14    7   12 1
    15    8   10 1
    16    9   12 1
    17   10   20 1
    18   10   11 2
    19   11   13 1
    20   11   12 1
    21   13   18 ar
    22   13   14 ar
    23   14   15 ar
    24   14   31 1
    25   15   16 ar
    26   15   32 1
    27   16   17 ar
    28   16   19 1
    29   17   18 ar
    30   17   33 1
    31   18   34 1
    32   20   25 ar
    33   20   21 ar
    34   21   22 ar
    35   21   35 1
    36   22   23 ar
    37   22   36 1
    38   23   24 ar
    39   24   25 ar
    40   24   37 1
    41   25   38 1
    42   26   39 1
@<TRIPOS>MOLECULE
ZINC14951176
   40    43     0     0     0
SMALL
USER_CHARGES

@<TRIPOS>ATOM
      1 C1         -0.0079    1.3560    0.4128 C.ar      1 <0>        -0.0502
      2 C2          1.1789    2.0446    0.5411 C.ar      1 <0>        -0.1379
      3 C3          2.3872    1.3600    0.5181 C.ar      1 <0>         0.1743
      4 C4          2.4048   -0.0205    0.3656 C.ar      1 <0>        -0.1372
      5 C5          1.2223   -0.7164    0.2363 C.ar      1 <0>        -0.0529
      6 C6          0.0054   -0.0319    0.2597 C.ar      1 <0>        -0.1114
      7 C7         -1.2648   -0.7743    0.1224 C.cat     1 <0>         0.3974
      8 N1         -2.5103   -0.2175    0.1240 N.pl3     1 <0>        -0.5055
      9 H1         -2.7195    0.7253    0.2141 H         1 <0>         0.4639
     10 C8         -3.4150   -1.2456   -0.0267 C.2       1 <0>         0.1188
     11 C9         -2.6710   -2.4104   -0.1160 C.2       1 <0>         0.1124
     12 N2         -1.3744   -2.0755   -0.0265 N.pl3     1 <0>        -0.4709
     13 C10        -3.2098   -3.7802   -0.2862 C.ar      1 <0>        -0.0876
     14 C11        -4.1834   -4.0340   -1.2519 C.ar      1 <0>        -0.0424
     15 C12        -4.6816   -5.3110   -1.4069 C.ar      1 <0>        -0.1470
     16 C13        -4.2164   -6.3406   -0.6047 C.ar      1 <0>         0.1433
     17 C14        -3.2491   -6.0935    0.3562 C.ar      1 <0>        -0.1478
     18 C15        -2.7406   -4.8209    0.5148 C.ar      1 <0>        -0.0599
     19 F1         -4.7080   -7.5895   -0.7596 F         1 <0>        -0.1208
     20 C16        -4.8840   -1.1288   -0.0821 C.ar      1 <0>        -0.0205
     21 C17        -5.7034   -1.9735    0.6798 C.ar      1 <0>        -0.1289
     22 C18        -7.0715   -1.8287    0.5974 C.ar      1 <0>         0.1171
     23 N3         -7.6107   -0.9116   -0.1841 N.ar      1 <0>        -0.4578
     24 C19        -6.8767   -0.0959   -0.9180 C.ar      1 <0>         0.1165
     25 C20        -5.5005   -0.1662   -0.8936 C.ar      1 <0>        -0.1481
     26 O1          3.5548    2.0423    0.6448 O.3       1 <0>        -0.4899
     27 H2         -0.9472    1.8885    0.4352 H         1 <0>         0.1371
     28 H3          1.1694    3.1181    0.6592 H         1 <0>         0.1540
     29 H4          3.3464   -0.5492    0.3479 H         1 <0>         0.1543
     30 H5          1.2369   -1.7897    0.1170 H         1 <0>         0.1372
     31 H6         -4.5471   -3.2320   -1.8771 H         1 <0>         0.1402
     32 H7         -5.4356   -5.5085   -2.1544 H         1 <0>         0.1527
     33 H8         -2.8897   -6.8992    0.9791 H         1 <0>         0.1527
     34 H9         -1.9838   -4.6301    1.2612 H         1 <0>         0.1391
     35 H10        -5.2693   -2.7263    1.3211 H         1 <0>         0.1460
     36 H11        -7.7114   -2.4748    1.1801 H         1 <0>         0.1719
     37 H12        -7.3614    0.6395   -1.5430 H         1 <0>         0.1713
     38 H13        -4.9063    0.5074   -1.4932 H         1 <0>         0.1422
     39 H14         3.8545    2.1428    1.5587 H         1 <0>         0.4115
     40 H15        -0.6320   -2.6987   -0.0633 H         1 <0>         0.4629
@<TRIPOS>BOND
     1    1    6 ar
     2    1    2 ar
     3    1   27 1
     4    2    3 ar
     5    2   28 1
     6    3    4 ar
     7    3   26 1
     8    4    5 ar
     9    4   29 1
    10    5    6 ar
    11    5   30 1
    12    6    7 1
    13    7   12 2
    14    7    8 1
    15    8    9 1
    16    8   10 1
    17   10   11 2
    18   10   20 1
    19   11   12 1
    20   11   13 1
    21   12   40 1
    22   13   18 ar
    23   13   14 ar
    24   14   15 ar
    25   14   31 1
    26   15   16 ar
    27   15   32 1
    28   16   17 ar
    29   16   19 1
    30   17   18 ar
    31   17   33 1
    32   18   34 1
    33   20   25 ar
    34   20   21 ar
    35   21   22 ar
    36   21   35 1
    37   22   23 ar
    38   22   36 1
    39   23   24 ar
    40   24   25 ar
    41   24   37 1
    42   25   38 1
    43   26   39 1
@<TRIPOS>MOLECULE
ZINC14951176
   40    43     0     0     0
SMALL
USER_CHARGES

@<TRIPOS>ATOM
      1 C1         -0.0268    1.3873   -0.2487 C.ar      1 <0>        -0.0533
      2 C2          1.1507    2.0881   -0.3954 C.ar      1 <0>        -0.1372
      3 C3          2.3508    1.4075   -0.5560 C.ar      1 <0>         0.1741
      4 C4          2.3694    0.0187   -0.5693 C.ar      1 <0>        -0.1379
      5 C5          1.1963   -0.6894   -0.4227 C.ar      1 <0>        -0.0501
      6 C6         -0.0123   -0.0089   -0.2611 C.ar      1 <0>        -0.1113
      7 C7         -1.2726   -0.7643   -0.1040 C.cat     1 <0>         0.3964
      8 N1         -1.3739   -2.1224    0.0021 N.pl3     1 <0>        -0.5087
      9 H1         -0.6406   -2.7573   -0.0113 H         1 <0>         0.4641
     10 C8         -2.7098   -2.4213    0.1324 C.2       1 <0>         0.1445
     11 C9         -3.3862   -1.2129    0.1003 C.2       1 <0>         0.0865
     12 N2         -2.4734   -0.2367   -0.0386 N.pl3     1 <0>        -0.4668
     13 C10        -4.8514   -1.0295    0.2063 C.ar      1 <0>        -0.0181
     14 C11        -5.5878   -1.6830    1.2008 C.ar      1 <0>        -0.1314
     15 C12        -6.9507   -1.4834    1.2636 C.ar      1 <0>         0.1177
     16 N3         -7.5598   -0.6900    0.4025 N.ar      1 <0>        -0.4587
     17 C13        -6.9031   -0.0552   -0.5501 C.ar      1 <0>         0.1173
     18 C14        -5.5375   -0.1932   -0.6817 C.ar      1 <0>        -0.1516
     19 C15        -3.3053   -3.7640    0.2776 C.ar      1 <0>        -0.0905
     20 C16        -4.4063   -4.1307   -0.5000 C.ar      1 <0>        -0.0398
     21 C17        -4.9583   -5.3865   -0.3599 C.ar      1 <0>        -0.1481
     22 C18        -4.4232   -6.2840    0.5507 C.ar      1 <0>         0.1454
     23 C19        -3.3311   -5.9257    1.3253 C.ar      1 <0>        -0.1491
     24 C20        -2.7664   -4.6752    1.1893 C.ar      1 <0>        -0.0562
     25 F1         -4.9685   -7.5129    0.6840 F         1 <0>        -0.1204
     26 O1          3.5092    2.1019   -0.7007 O.3       1 <0>        -0.4899
     27 H2         -0.9590    1.9172   -0.1198 H         1 <0>         0.1369
     28 H3          1.1404    3.1680   -0.3860 H         1 <0>         0.1542
     29 H4          3.3045   -0.5068   -0.6950 H         1 <0>         0.1540
     30 H5          1.2115   -1.7693   -0.4335 H         1 <0>         0.1375
     31 H6         -5.0961   -2.3342    1.9084 H         1 <0>         0.1454
     32 H7         -7.5277   -1.9833    2.0275 H         1 <0>         0.1715
     33 H8         -7.4422    0.5842   -1.2336 H         1 <0>         0.1711
     34 H9         -5.0059    0.3326   -1.4610 H         1 <0>         0.1417
     35 H10        -4.8245   -3.4319   -1.2094 H         1 <0>         0.1408
     36 H11        -5.8095   -5.6711   -0.9606 H         1 <0>         0.1531
     37 H12        -2.9189   -6.6290    2.0337 H         1 <0>         0.1530
     38 H13        -1.9125   -4.3987    1.7900 H         1 <0>         0.1398
     39 H14         3.9581    2.2964    0.1334 H         1 <0>         0.4114
     40 H15        -2.6712    0.7118   -0.0857 H         1 <0>         0.4627
@<TRIPOS>BOND
     1    1    6 ar
     2    1    2 ar
     3    1   27 1
     4    2    3 ar
     5    2   28 1
     6    3    4 ar
     7    3   26 1
     8    4    5 ar
     9    4   29 1
    10    5    6 ar
    11    5   30 1
    12    6    7 1
    13    7   12 2
    14    7    8 1
    15    8    9 1
    16    8   10 1
    17   10   11 2
    18   10   19 1
    19   11   12 1
    20   11   13 1
    21   12   40 1
    22   13   18 ar
    23   13   14 ar
    24   14   15 ar
    25   14   31 1
    26   15   16 ar
    27   15   32 1
    28   16   17 ar
    29   17   18 ar
    30   17   33 1
    31   18   34 1
    32   19   24 ar
    33   19   20 ar
    34   20   21 ar
    35   20   35 1
    36   21   22 ar
    37   21   36 1
    38   22   23 ar
    39   22   25 1
    40   23   24 ar
    41   23   37 1
    42   24   38 1
    43   26   39 1
@<TRIPOS>MOLECULE
ZINC11617039
   55    58     0     0     0
SMALL
USER_CHARGES

@<TRIPOS>ATOM
      1 H1          0.2120    6.2074    3.3921 H         1 <0>         0.1353
      2 C1         -0.6814    5.6062    3.3098 C.ar      1 <0>         0.0196
      3 C2         -1.0741    5.1311    2.1031 C.ar      1 <0>        -0.1998
      4 C3         -2.2288    4.3474    1.9606 C.ar      1 <0>         0.2426
      5 C4         -3.0111    4.0257    3.0293 C.ar      1 <0>        -0.1858
      6 C5         -2.6578    4.4884    4.3143 C.ar      1 <0>         0.1374
      7 C6         -1.4433    5.3059    4.4600 C.ar      1 <0>        -0.2352
      8 C7         -1.3367    5.6110    5.8041 C.2       1 <0>         0.1330
      9 N1         -2.3705    5.0424    6.4391 N.pl3     1 <0>        -0.3190
     10 N2         -3.1795    4.3626    5.5213 N.2       1 <0>        -0.3200
     11 C8         -2.6225    5.1281    7.8797 C.3       1 <0>         0.0831
     12 H2         -3.2434    5.9992    8.0888 H         1 <0>         0.0888
     13 H3         -3.1369    4.2268    8.2129 H         1 <0>         0.0992
     14 H4         -1.6744    5.2222    8.4094 H         1 <0>         0.0983
     15 C9         -0.2495    6.4365    6.4425 C.3       1 <0>        -0.1025
     16 H5         -0.5455    7.4855    6.4477 H         1 <0>         0.0927
     17 H6         -0.0907    6.0987    7.4666 H         1 <0>         0.0807
     18 H7          0.6740    6.3223    5.8749 H         1 <0>         0.0943
     19 H8         -3.8955    3.4210    2.8932 H         1 <0>         0.1075
     20 N3         -2.5862    3.8853    0.6908 N.pl3     1 <0>        -0.5925
     21 C10        -3.6562    3.0160    0.5454 C.ar      1 <0>         0.5430
     22 C11        -3.4766    1.6392    0.6984 C.ar      1 <0>        -0.2193
     23 C12        -4.5711    0.8111    0.5450 C.ar      1 <0>         0.2156
     24 N4         -5.7510    1.3422    0.2594 N.ar      1 <0>        -0.5411
     25 C13        -5.8925    2.6520    0.1199 C.ar      1 <0>         0.6254
     26 N5         -4.8692    3.4808    0.2639 N.ar      1 <0>        -0.5160
     27 N6         -7.1427    3.1682   -0.1788 N.pl3     1 <0>        -0.6061
     28 C14        -7.2911    4.5338   -0.4396 C.ar      1 <0>         0.0902
     29 C15        -6.2697    5.2382   -1.0645 C.ar      1 <0>        -0.0370
     30 C16        -6.4197    6.5867   -1.3210 C.ar      1 <0>        -0.1186
     31 C17        -7.5850    7.2362   -0.9562 C.ar      1 <0>         0.0334
     32 C18        -8.6034    6.5381   -0.3338 C.ar      1 <0>        -0.6606
     33 C19        -8.4623    5.1877   -0.0798 C.ar      1 <0>        -0.0140
     34 S1        -10.0857    7.3705    0.1294 S.o2      1 <0>         2.7024
     35 O1        -10.5091    8.1093   -1.0082 O.2       1 <0>        -0.9461
     36 O2        -10.9137    6.4040    0.7615 O.2       1 <0>        -0.9598
     37 N7         -9.6818    8.4799    1.2907 N.pl3     1 <0>        -1.2481
     38 C20        -7.7450    8.7080   -1.2374 C.3       1 <0>        -0.1567
     39 H9         -8.1929    8.8433   -2.2218 H         1 <0>         0.1090
     40 H10        -8.3897    9.1545   -0.4804 H         1 <0>         0.0769
     41 H11        -6.7680    9.1908   -1.2132 H         1 <0>         0.0924
     42 H12        -4.4665   -0.2581    0.6563 H         1 <0>         0.2280
     43 H13        -2.5039    1.2316    0.9310 H         1 <0>         0.1988
     44 C21        -1.8301    4.3196   -0.4864 C.3       1 <0>         0.0917
     45 H14        -1.0078    3.6271   -0.6659 H         1 <0>         0.0746
     46 H15        -2.4881    4.3354   -1.3553 H         1 <0>         0.0729
     47 H16        -1.4320    5.3196   -0.3140 H         1 <0>         0.0953
     48 H17        -0.4834    5.3620    1.2289 H         1 <0>         0.1346
     49 H18        -7.9152    2.5823   -0.2071 H         1 <0>         0.4391
     50 H19        -5.3592    4.7318   -1.3490 H         1 <0>         0.1427
     51 H20        -5.6260    7.1349   -1.8068 H         1 <0>         0.1482
     52 H21        -9.2599    4.6421    0.4024 H         1 <0>         0.1564
     53 H22        -8.7604    8.5635    1.5820 H         1 <0>         0.4174
     54 H23       -10.3667    9.0460    1.6797 H         1 <0>         0.4270
     55 H24        -6.5221    0.7638    0.1506 H         1 <0>         0.4504
@<TRIPOS>BOND
     1    1    2 1
     2    2    7 ar
     3    2    3 ar
     4    3    4 ar
     5    3   48 1
     6    4    5 ar
     7    4   20 1
     8    5    6 ar
     9    5   19 1
    10    6   10 2
    11    6    7 ar
    12    7    8 2
    13    8    9 1
    14    8   15 1
    15    9   10 1
    16    9   11 1
    17   11   12 1
    18   11   13 1
    19   11   14 1
    20   15   16 1
    21   15   17 1
    22   15   18 1
    23   20   21 1
    24   20   44 1
    25   21   26 ar
    26   21   22 ar
    27   22   23 ar
    28   22   43 1
    29   23   24 ar
    30   23   42 1
    31   24   25 ar
    32   24   55 1
    33   25   26 ar
    34   25   27 1
    35   27   28 1
    36   27   49 1
    37   28   33 ar
    38   28   29 ar
    39   29   30 ar
    40   29   50 1
    41   30   31 ar
    42   30   51 1
    43   31   32 ar
    44   31   38 1
    45   32   33 ar
    46   32   34 1
    47   33   52 1
    48   34   35 2
    49   34   36 2
    50   34   37 1
    51   37   53 1
    52   37   54 1
    53   38   39 1
    54   38   40 1
    55   38   41 1
    56   44   45 1
    57   44   46 1
    58   44   47 1
@<TRIPOS>MOLECULE
ZINC40393428
   43    46     0     0     0
SMALL
USER_CHARGES

@<TRIPOS>ATOM
      1 C1          1.0860   -0.4602    0.7525 C.ar      1 <0>        -0.0841
      2 C2          2.2745    0.2438    0.7392 C.ar      1 <0>        -0.1151
      3 C3          2.3811    1.4103   -0.0065 C.ar      1 <0>         0.1760
      4 C4          1.2918    1.8661   -0.7371 C.ar      1 <0>        -0.1379
      5 C5          0.1052    1.1577   -0.7200 C.ar      1 <0>        -0.0148
      6 C6          0.0027   -0.0047    0.0245 C.ar      1 <0>        -0.1235
      7 Cl1        -1.2579    1.7264   -1.6324 Cl        1 <0>        -0.0629
      8 N1          3.5838    2.1253   -0.0212 N.am      1 <0>        -0.6779
      9 C7          4.7585    1.4702    0.0657 C.2       1 <0>         0.7004
     10 O1          4.7784    0.2546    0.0596 O.2       1 <0>        -0.5033
     11 N2          5.9109    2.1627    0.1596 N.am      1 <0>        -0.6266
     12 C8          7.1223    1.4870    0.2493 C.2       1 <0>         0.2860
     13 N3          7.3361    0.1891    0.2518 N.2       1 <0>        -0.5158
     14 C9          8.5589   -0.3008    0.3445 C.2       1 <0>         0.0768
     15 C10         9.5748    0.5917    0.4362 C.2       1 <0>        -0.2162
     16 S1          8.6723    2.1310    0.3736 S.3       1 <0>         0.1280
     17 C11        11.0579    0.3512    0.5526 C.3       1 <0>        -0.0363
     18 C12        11.6753    0.2860   -0.8457 C.3       1 <0>         0.1313
     19 N4         13.1171    0.0522   -0.7326 N.pl3     1 <0>        -0.7061
     20 C13        13.8949   -0.0448   -1.8749 C.ar      1 <0>         0.4986
     21 C14        15.2577   -0.2712   -1.7887 C.ar      1 <0>        -0.2996
     22 C15        16.0555   -0.3716   -2.9487 C.ar      1 <0>         0.1938
     23 C16        17.4235   -0.6022   -2.7204 C.2       1 <0>        -0.1561
     24 C17        17.8907   -0.7126   -1.4622 C.2       1 <0>        -0.1043
     25 S2         16.4217   -0.4971   -0.4711 S.3       1 <0>         0.0744
     26 N5         15.3968   -0.2319   -4.1261 N.ar      1 <0>        -0.5372
     27 C18        14.1074   -0.0188   -4.1645 C.ar      1 <0>         0.3437
     28 N6         13.3491    0.0719   -3.0857 N.ar      1 <0>        -0.5638
     29 H1          1.0044   -1.3699    1.3289 H         1 <0>         0.1384
     30 H2          3.1201   -0.1128    1.3086 H         1 <0>         0.1426
     31 H3          1.3716    2.7733   -1.3178 H         1 <0>         0.1376
     32 H4         -0.9253   -0.5572    0.0363 H         1 <0>         0.1366
     33 H5          3.5722    3.0925   -0.0941 H         1 <0>         0.4112
     34 H6          5.8950    3.1325    0.1645 H         1 <0>         0.4247
     35 H7          8.7413   -1.3653    0.3475 H         1 <0>         0.1767
     36 H8         11.5152    1.1660    1.1141 H         1 <0>         0.0881
     37 H9         11.2335   -0.5911    1.0716 H         1 <0>         0.0988
     38 H10        11.2181   -0.5287   -1.4072 H         1 <0>         0.0778
     39 H11        11.4997    1.2283   -1.3647 H         1 <0>         0.0747
     40 H12        13.5272   -0.0346    0.1422 H         1 <0>         0.4118
     41 H13        18.1015   -0.6915   -3.5564 H         1 <0>         0.1518
     42 H14        18.9044   -0.8881   -1.1337 H         1 <0>         0.2028
     43 H15        13.6355    0.0848   -5.1304 H         1 <0>         0.1990
@<TRIPOS>BOND
     1    1    6 ar
     2    1    2 ar
     3    1   29 1
     4    2    3 ar
     5    2   30 1
     6    3    4 ar
     7    3    8 1
     8    4    5 ar
     9    4   31 1
    10    5    6 ar
    11    5    7 1
    12    6   32 1
    13    8    9 am
    14    8   33 1
    15    9   10 2
    16    9   11 am
    17   11   12 1
    18   11   34 1
    19   12   16 1
    20   12   13 2
    21   13   14 1
    22   14   15 2
    23   14   35 1
    24   15   16 1
    25   15   17 1
    26   17   18 1
    27   17   36 1
    28   17   37 1
    29   18   19 1
    30   18   38 1
    31   18   39 1
    32   19   20 1
    33   19   40 1
    34   20   28 ar
    35   20   21 ar
    36   21   25 1
    37   21   22 ar
    38   22   23 1
    39   22   26 ar
    40   23   24 2
    41   23   41 1
    42   24   25 1
    43   24   42 1
    44   26   27 ar
    45   27   28 ar
    46   27   43 1
@<TRIPOS>MOLECULE
ZINC18710085
   53    57     0     0     0
SMALL
USER_CHARGES

@<TRIPOS>ATOM
      1 C1          0.0890    1.3306    0.4873 C.3       1 <0>         0.0749
      2 N1          0.4081   -0.0534    0.1284 N.pl3     1 <0>        -0.5085
      3 C2          0.3528   -0.6077   -1.1416 C.ar      1 <0>         0.0507
      4 C3          0.0137   -0.1123   -2.3916 C.ar      1 <0>        -0.0838
      5 C4          0.0591   -0.9388   -3.4947 C.ar      1 <0>        -0.1077
      6 C5          0.4436   -2.2696   -3.3617 C.ar      1 <0>         0.0751
      7 C6          0.7843   -2.7778   -2.1231 C.ar      1 <0>        -0.0835
      8 C7          0.7420   -1.9496   -0.9988 C.ar      1 <0>         0.0911
      9 N2          1.0108   -2.1503    0.3180 N.2       1 <0>        -0.5208
     10 C8          0.8212   -1.0367    0.9810 C.2       1 <0>         0.5369
     11 N3          1.0073   -0.8814    2.3399 N.pl3     1 <0>        -0.6412
     12 C9          1.5328   -1.9319    3.0980 C.ar      1 <0>         0.2053
     13 C10         2.3998   -2.8463    2.5135 C.ar      1 <0>        -0.1275
     14 C11         2.9176   -3.8826    3.2654 C.ar      1 <0>        -0.0424
     15 C12         2.5735   -4.0107    4.5987 C.ar      1 <0>        -0.2053
     16 C13         1.7106   -3.1021    5.1837 C.ar      1 <0>        -0.0432
     17 C14         1.1938   -2.0602    4.4389 C.ar      1 <0>        -0.1549
     18 C15         3.1396   -5.1433    5.4158 C.3       1 <0>         0.5100
     19 F1          4.3412   -4.7372    6.0062 F         1 <0>        -0.1771
     20 F2          2.2267   -5.5000    6.4140 F         1 <0>        -0.1778
     21 F3          3.3767   -6.2442    4.5857 F         1 <0>        -0.1766
     22 O1          0.4838   -3.0743   -4.4569 O.3       1 <0>        -0.2390
     23 C16        -0.5198   -3.9726   -4.6248 C.ar      1 <0>         0.1693
     24 C17        -1.5519   -4.0724   -3.6928 C.ar      1 <0>        -0.2330
     25 C18        -2.5577   -4.9965   -3.8940 C.ar      1 <0>         0.1462
     26 N4         -2.5549   -5.7828   -4.9518 N.ar      1 <0>        -0.5008
     27 C19        -1.5918   -5.7224   -5.8653 C.ar      1 <0>         0.2185
     28 C20        -0.5464   -4.8114   -5.7333 C.ar      1 <0>        -0.1453
     29 C21        -1.6332   -6.6264   -7.0353 C.2       1 <0>         0.2951
     30 N5         -2.5993   -7.5546   -7.2938 N.pl3     1 <0>        -0.5196
     31 H1         -3.3797   -7.7419   -6.7491 H         1 <0>         0.4364
     32 C22        -2.2593   -8.1700   -8.4662 C.2       1 <0>        -0.1211
     33 C23        -1.1072   -7.6076   -8.8883 C.2       1 <0>         0.0664
     34 N6         -0.7487   -6.6689   -8.0066 N.2       1 <0>        -0.4582
     35 C24        -3.0256   -9.2688   -9.1565 C.3       1 <0>         0.5516
     36 F4         -3.9502   -8.7065  -10.0431 F         1 <0>        -0.1675
     37 F5         -2.1361  -10.0835   -9.8651 F         1 <0>        -0.1592
     38 F6         -3.7018  -10.0363   -8.2021 F         1 <0>        -0.1759
     39 H2          0.9883    1.9420    0.4122 H         1 <0>         0.0804
     40 H3         -0.6705    1.7164   -0.1926 H         1 <0>         0.0932
     41 H4         -0.2881    1.3632    1.5095 H         1 <0>         0.0841
     42 H5         -0.2858    0.9195   -2.5011 H         1 <0>         0.1337
     43 H6         -0.2058   -0.5511   -4.4673 H         1 <0>         0.1432
     44 H7          1.0819   -3.8113   -2.0243 H         1 <0>         0.1405
     45 H8          0.7733   -0.0434    2.7688 H         1 <0>         0.4223
     46 H9          2.6684   -2.7473    1.4722 H         1 <0>         0.1551
     47 H10         3.5917   -4.5939    2.8116 H         1 <0>         0.1402
     48 H11         1.4439   -3.2049    6.2251 H         1 <0>         0.1410
     49 H12         0.5234   -1.3483    4.8975 H         1 <0>         0.1374
     50 H13        -1.5643   -3.4335   -2.8221 H         1 <0>         0.1469
     51 H14        -3.3584   -5.0766   -3.1737 H         1 <0>         0.1687
     52 H15         0.2337   -4.7602   -6.4784 H         1 <0>         0.1618
     53 H16        -0.5687   -7.8687   -9.7873 H         1 <0>         0.1936
@<TRIPOS>BOND
     1    1    2 1
     2    1   39 1
     3    1   40 1
     4    1   41 1
     5    2   10 1
     6    2    3 1
     7    3    8 ar
     8    3    4 ar
     9    4    5 ar
    10    4   42 1
    11    5    6 ar
    12    5   43 1
    13    6    7 ar
    14    6   22 1
    15    7    8 ar
    16    7   44 1
    17    8    9 1
    18    9   10 2
    19   10   11 1
    20   11   12 1
    21   11   45 1
    22   12   17 ar
    23   12   13 ar
    24   13   14 ar
    25   13   46 1
    26   14   15 ar
    27   14   47 1
    28   15   16 ar
    29   15   18 1
    30   16   17 ar
    31   16   48 1
    32   17   49 1
    33   18   19 1
    34   18   20 1
    35   18   21 1
    36   22   23 1
    37   23   28 ar
    38   23   24 ar
    39   24   25 ar
    40   24   50 1
    41   25   26 ar
    42   25   51 1
    43   26   27 ar
    44   27   28 ar
    45   27   29 1
    46   28   52 1
    47   29   34 2
    48   29   30 1
    49   30   31 1
    50   30   32 1
    51   32   33 2
    52   32   35 1
    53   33   34 1
    54   33   53 1
    55   35   36 1
    56   35   37 1
    57   35   38 1
@<TRIPOS>MOLECULE
ZINC03820040
   62    66     0     0     0
SMALL
USER_CHARGES
N-[4-[4-(4-methylpiperazin-1-yl)-6-[(5-methyl-2H-pyrazol-3-yl)amino]pyrimidin-2-yl]sulfanylphenyl]cyclopropanecarboxamide
@<TRIPOS>ATOM
      1 C1          1.8035   -7.6837    0.5070 C.3       1 <0>        -0.0779
      2 C2          2.3685   -6.3674    0.0389 C.2       1 <0>         0.0949
      3 C3          1.9325   -5.1020    0.4407 C.2       1 <0>        -0.2905
      4 C4          2.6904   -4.1743   -0.2066 C.2       1 <0>         0.3252
      5 N1          3.5799   -4.8447   -0.9836 N.pl3     1 <0>        -0.4853
      6 H1          4.2729   -4.4328   -1.5753 H         1 <0>         0.4473
      7 N2          3.3537   -6.2159   -0.8085 N.2       1 <0>        -0.2711
      8 N3          2.5778   -2.7905   -0.0888 N.pl3     1 <0>        -0.6296
      9 C5          1.3376   -2.2123    0.1391 C.ar      1 <0>         0.4706
     10 C6          0.1755   -2.9717    0.0343 C.ar      1 <0>        -0.2983
     11 C7         -1.0466   -2.3490    0.2714 C.ar      1 <0>         0.3791
     12 N4         -1.0643   -1.0564    0.5886 N.ar      1 <0>        -0.5664
     13 C8          0.0620   -0.3646    0.6795 C.ar      1 <0>         0.3511
     14 N5          1.2425   -0.9231    0.4557 N.ar      1 <0>        -0.5606
     15 S1         -0.0125    1.3444    1.1018 S.3       1 <0>         0.1303
     16 C9          1.7078    1.7032    1.2298 C.ar      1 <0>        -0.1638
     17 C10         2.3806    1.4637    2.4214 C.ar      1 <0>        -0.0284
     18 C11         3.7293    1.7409    2.5200 C.ar      1 <0>        -0.1315
     19 C12         4.4114    2.2681    1.4313 C.ar      1 <0>         0.1902
     20 C13         3.7379    2.5125    0.2417 C.ar      1 <0>        -0.1573
     21 C14         2.3903    2.2311    0.1410 C.ar      1 <0>        -0.0288
     22 N6          5.7793    2.5539    1.5333 N.am      1 <0>        -0.6744
     23 C15         6.5739    1.7808    2.2997 C.2       1 <0>         0.5466
     24 O1          6.1269    0.7811    2.8213 O.2       1 <0>        -0.5140
     25 C16         8.0178    2.1584    2.5086 C.3       1 <0>        -0.2022
     26 C17         9.0818    1.2604    1.8742 C.3       1 <0>        -0.1494
     27 C18         8.8679    1.2402    3.3890 C.3       1 <0>        -0.1425
     28 N7         -2.2296   -3.0657    0.1789 N.pl3     1 <0>        -0.4710
     29 C19        -2.3617   -3.6957   -1.1422 C.3       1 <0>         0.0277
     30 C20        -3.6379   -4.5399   -1.1765 C.3       1 <0>         0.0040
     31 C21        -4.6643   -3.0537    0.4349 C.3       1 <0>        -0.0004
     32 C22        -3.3881   -2.2095    0.4692 C.3       1 <0>         0.0347
     33 C23        -6.0501   -4.4431   -0.9842 C.3       1 <0>        -0.0407
     34 H2          2.3381   -8.0122    1.3982 H         1 <0>         0.0831
     35 H3          0.7460   -7.5623    0.7417 H         1 <0>         0.0784
     36 H4          1.9177   -8.4287   -0.2805 H         1 <0>         0.0774
     37 H5          1.1347   -4.8964    1.1389 H         1 <0>         0.1550
     38 H6          3.3667   -2.2314   -0.1662 H         1 <0>         0.4241
     39 H7          0.2211   -4.0192   -0.2246 H         1 <0>         0.1631
     40 H8          1.8494    1.0573    3.2693 H         1 <0>         0.1319
     41 H9          4.2533    1.5509    3.4451 H         1 <0>         0.1405
     42 H10         4.2686    2.9225   -0.6049 H         1 <0>         0.1339
     43 H11         1.8666    2.4209   -0.7843 H         1 <0>         0.1341
     44 H12         6.1543    3.3081    1.0523 H         1 <0>         0.4168
     45 H13         8.2224    3.2282    2.5520 H         1 <0>         0.1306
     46 H14         8.7374    0.3965    1.3057 H         1 <0>         0.0995
     47 H15         9.9866    1.7393    1.5000 H         1 <0>         0.1100
     48 H16         9.6320    1.7059    4.0114 H         1 <0>         0.1092
     49 H17         8.3827    0.3633    3.8175 H         1 <0>         0.1093
     50 H18        -2.4158   -2.9234   -1.9095 H         1 <0>         0.0737
     51 H19        -1.4982   -4.3342   -1.3286 H         1 <0>         0.1318
     52 H20        -3.5722   -5.3290   -0.4274 H         1 <0>         0.1439
     53 H21        -3.7533   -4.9852   -2.1646 H         1 <0>         0.1412
     54 H22        -4.6102   -3.8259    1.2022 H         1 <0>         0.1407
     55 H23        -5.5278   -2.4152    0.6217 H         1 <0>         0.1407
     56 H24        -3.2729   -1.7645    1.4575 H         1 <0>         0.1357
     57 H25        -3.4537   -1.4201   -0.2796 H         1 <0>         0.0793
     58 H26        -6.8948   -3.7714   -0.8313 H         1 <0>         0.1238
     59 H27        -6.1225   -4.8989   -1.9717 H         1 <0>         0.1230
     60 H28        -6.0632   -5.2226   -0.2224 H         1 <0>         0.1251
     61 N8         -4.7966   -3.6630   -0.9051 N.4       1 <0>        -0.4014
     62 H29        -4.8229   -2.9169   -1.6099 H         1 <0>         0.4281
@<TRIPOS>BOND
     1    1    2 1
     2    1   34 1
     3    1   35 1
     4    1   36 1
     5    2    7 2
     6    2    3 1
     7    3    4 2
     8    3   37 1
     9    4    5 1
    10    4    8 1
    11    5    6 1
    12    5    7 1
    13    8    9 1
    14    8   38 1
    15    9   14 ar
    16    9   10 ar
    17   10   11 ar
    18   10   39 1
    19   11   12 ar
    20   11   28 1
    21   12   13 ar
    22   13   14 ar
    23   13   15 1
    24   15   16 1
    25   16   21 ar
    26   16   17 ar
    27   17   18 ar
    28   17   40 1
    29   18   19 ar
    30   18   41 1
    31   19   20 ar
    32   19   22 1
    33   20   21 ar
    34   20   42 1
    35   21   43 1
    36   22   23 am
    37   22   44 1
    38   23   24 2
    39   23   25 1
    40   25   27 1
    41   25   26 1
    42   25   45 1
    43   26   27 1
    44   26   46 1
    45   26   47 1
    46   27   48 1
    47   27   49 1
    48   28   32 1
    49   28   29 1
    50   29   30 1
    51   29   50 1
    52   29   51 1
    53   30   52 1
    54   30   53 1
    55   30   61 1
    56   31   32 1
    57   31   54 1
    58   31   55 1
    59   31   61 1
    60   32   56 1
    61   32   57 1
    62   33   58 1
    63   33   59 1
    64   33   60 1
    65   33   61 1
    66   61   62 1
@<TRIPOS>MOLECULE
ZINC23247639
   69    72     0     0     0
SMALL
USER_CHARGES
1-[4-[(4-ethylpiperazin-1-yl)methyl]-3-(trifluoromethyl)phenyl]-3-[4-(6-methylaminopyrimidin-4-yl)oxyphenyl]urea
@<TRIPOS>ATOM
      1 C1          8.9417    3.3719    8.2172 C.3       1 <0>        -0.1901
      2 C2         10.1498    2.9102    7.3997 C.3       1 <0>        -0.0070
      3 N1          9.9972    3.3533    6.0075 N.4       1 <0>        -0.4011
      4 C3         11.2367    3.1387    5.2477 C.3       1 <0>         0.0016
      5 C4         11.0629    3.6845    3.8284 C.3       1 <0>         0.0271
      6 N2          9.9288    3.0094    3.1822 N.3       1 <0>        -0.5300
      7 C5          8.6893    3.2240    3.9420 C.3       1 <0>         0.0232
      8 C6          8.8631    2.6781    5.3612 C.3       1 <0>        -0.0016
      9 C7          9.7762    3.4524    1.7899 C.3       1 <0>         0.0786
     10 C8          8.7879    2.5601    1.0842 C.ar      1 <0>        -0.0666
     11 C9          7.5022    3.0092    0.8434 C.ar      1 <0>        -0.0932
     12 C10         6.5958    2.1959    0.1923 C.ar      1 <0>        -0.0888
     13 C11         6.9731    0.9214   -0.2106 C.ar      1 <0>         0.1880
     14 C12         8.2646    0.4735    0.0326 C.ar      1 <0>        -0.1043
     15 C13         9.1683    1.2940    0.6793 C.ar      1 <0>        -0.1369
     16 C14        10.5702    0.8086    0.9441 C.3       1 <0>         0.5111
     17 F1         10.7250   -0.4786    0.4184 F         1 <0>        -0.1776
     18 F2         11.4860    1.6739    0.3362 F         1 <0>        -0.1774
     19 F3         10.8008    0.7797    2.3237 F         1 <0>        -0.1628
     20 N3          6.0552    0.0926   -0.8655 N.am      1 <0>        -0.6979
     21 C15         4.7513    0.1311   -0.5266 C.2       1 <0>         0.7117
     22 O1          4.3858    0.8194    0.4067 O.2       1 <0>        -0.5623
     23 N4          3.8526   -0.5934   -1.2222 N.am      1 <0>        -0.6900
     24 C16         2.4863   -0.4790   -0.9335 C.ar      1 <0>         0.1635
     25 C17         1.5516   -0.5518   -1.9576 C.ar      1 <0>        -0.1265
     26 C18         0.2052   -0.4394   -1.6724 C.ar      1 <0>        -0.0923
     27 C19        -0.2137   -0.2543   -0.3628 C.ar      1 <0>         0.0841
     28 C20         0.7198   -0.1815    0.6609 C.ar      1 <0>        -0.0957
     29 C21         2.0665   -0.2932    0.3769 C.ar      1 <0>        -0.1058
     30 O2         -1.5393   -0.1385   -0.0833 O.3       1 <0>        -0.2424
     31 C22        -2.3129   -1.2454   -0.1983 C.ar      1 <0>         0.3836
     32 C23        -3.6894   -1.1637   -0.0277 C.ar      1 <0>        -0.3134
     33 C24        -4.4409   -2.3284   -0.1601 C.ar      1 <0>         0.4631
     34 N5         -3.8165   -3.4721   -0.4341 N.ar      1 <0>        -0.5936
     35 C25        -2.5082   -3.5081   -0.5840 C.ar      1 <0>         0.3760
     36 N6         -1.7644   -2.4263   -0.4707 N.ar      1 <0>        -0.6039
     37 N7         -5.8178   -2.2988   -0.0034 N.pl3     1 <0>        -0.7218
     38 C26        -6.4937   -1.0344    0.2979 C.3       1 <0>         0.0891
     39 H1          9.0560    3.0401    9.2597 H         1 <0>         0.1066
     40 H2          8.0243    2.9380    7.7928 H         1 <0>         0.0798
     41 H3          8.8763    4.4695    8.1868 H         1 <0>         0.0803
     42 H4         11.0672    3.3441    7.8241 H         1 <0>         0.1306
     43 H5         10.2153    1.8126    7.4301 H         1 <0>         0.1269
     44 H6         12.0665    3.6630    5.7442 H         1 <0>         0.1361
     45 H7         11.4577    2.0621    5.2031 H         1 <0>         0.1357
     46 H8         10.8699    4.7665    3.8728 H         1 <0>         0.0625
     47 H9         11.9796    3.4990    3.2494 H         1 <0>         0.1239
     48 H10         8.4684    4.3007    3.9867 H         1 <0>         0.0621
     49 H11         7.8594    2.6998    3.4455 H         1 <0>         0.1239
     50 H12         9.0569    1.5962    5.3178 H         1 <0>         0.1351
     51 H13         7.9470    2.8635    5.9412 H         1 <0>         0.1359
     52 H14         9.4106    4.4897    1.7732 H         1 <0>         0.0663
     53 H15        10.7489    3.3982    1.2791 H         1 <0>         0.1073
     54 H16         7.2082    3.9988    1.1607 H         1 <0>         0.1358
     55 H17         5.5933    2.5489    0.0003 H         1 <0>         0.1466
     56 H18         8.5625   -0.5152   -0.2838 H         1 <0>         0.1447
     57 H19         6.3979   -0.5903   -1.6569 H         1 <0>         0.4387
     58 H20         4.1917   -1.2745   -2.0166 H         1 <0>         0.4355
     59 H21         1.8775   -0.6959   -2.9771 H         1 <0>         0.1334
     60 H22        -0.5220   -0.4960   -2.4689 H         1 <0>         0.1303
     61 H23         0.3932   -0.0371    1.6801 H         1 <0>         0.1327
     62 H24         2.7931   -0.2369    1.1740 H         1 <0>         0.1442
     63 H25        -4.1646   -0.2205    0.1982 H         1 <0>         0.1466
     64 H26        -2.0315   -4.4515   -0.8058 H         1 <0>         0.2000
     65 H27        -6.4030   -3.2246   -0.1053 H         1 <0>         0.4376
     66 H28        -7.5762   -1.2091    0.3856 H         1 <0>         0.0864
     67 H29        -6.3028   -0.3146   -0.5117 H         1 <0>         0.0603
     68 H30        -6.1096   -0.6302    1.2461 H         1 <0>         0.0599
     69 H31         9.7882    4.4332    6.0188 H         1 <0>         0.4364
@<TRIPOS>BOND
     1    1    2 1
     2    1   39 1
     3    1   40 1
     4    1   41 1
     5    2    3 1
     6    2   42 1
     7    2   43 1
     8    3    8 1
     9    3    4 1
    10    3   69 1
    11    4    5 1
    12    4   44 1
    13    4   45 1
    14    5    6 1
    15    5   46 1
    16    5   47 1
    17    6    7 1
    18    6    9 1
    19    7    8 1
    20    7   48 1
    21    7   49 1
    22    8   50 1
    23    8   51 1
    24    9   10 1
    25    9   52 1
    26    9   53 1
    27   10   15 ar
    28   10   11 ar
    29   11   12 ar
    30   11   54 1
    31   12   13 ar
    32   12   55 1
    33   13   14 ar
    34   13   20 1
    35   14   15 ar
    36   14   56 1
    37   15   16 1
    38   16   17 1
    39   16   18 1
    40   16   19 1
    41   20   21 am
    42   20   57 1
    43   21   22 2
    44   21   23 am
    45   23   24 1
    46   23   58 1
    47   24   29 ar
    48   24   25 ar
    49   25   26 ar
    50   25   59 1
    51   26   27 ar
    52   26   60 1
    53   27   28 ar
    54   27   30 1
    55   28   29 ar
    56   28   61 1
    57   29   62 1
    58   30   31 1
    59   31   36 ar
    60   31   32 ar
    61   32   33 ar
    62   32   63 1
    63   33   34 ar
    64   33   37 1
    65   34   35 ar
    66   35   36 ar
    67   35   64 1
    68   37   38 1
    69   37   65 1
    70   38   66 1
    71   38   67 1
    72   38   68 1
@<TRIPOS>MOLECULE
ZINC23247639
   69    72     0     0     0
SMALL
USER_CHARGES
1-[4-[(4-ethylpiperazin-1-yl)methyl]-3-(trifluoromethyl)phenyl]-3-[4-(6-methylaminopyrimidin-4-yl)oxyphenyl]urea
@<TRIPOS>ATOM
      1 C1          8.9417    3.3719    8.2172 C.3       1 <0>        -0.1569
      2 C2         10.1498    2.9102    7.3997 C.3       1 <0>         0.0486
      3 N1          9.9972    3.3533    6.0075 N.3       1 <0>        -0.5379
      4 C3         11.2367    3.1387    5.2477 C.3       1 <0>         0.0250
      5 C4         11.0629    3.6845    3.8284 C.3       1 <0>         0.0004
      6 N2          9.9288    3.0094    3.1822 N.4       1 <0>        -0.4202
      7 C5          8.6893    3.2240    3.9420 C.3       1 <0>        -0.0009
      8 C6          8.8631    2.6781    5.3612 C.3       1 <0>         0.0222
      9 C7          9.7762    3.4524    1.7899 C.3       1 <0>         0.0266
     10 C8          8.7879    2.5601    1.0842 C.ar      1 <0>        -0.1272
     11 C9          7.5022    3.0092    0.8434 C.ar      1 <0>        -0.0630
     12 C10         6.5958    2.1959    0.1923 C.ar      1 <0>        -0.0846
     13 C11         6.9731    0.9214   -0.2106 C.ar      1 <0>         0.2154
     14 C12         8.2646    0.4735    0.0326 C.ar      1 <0>        -0.0955
     15 C13         9.1683    1.2940    0.6793 C.ar      1 <0>        -0.1507
     16 C14        10.5702    0.8086    0.9441 C.3       1 <0>         0.5109
     17 F1         10.7250   -0.4786    0.4184 F         1 <0>        -0.1491
     18 F2         11.4860    1.6739    0.3362 F         1 <0>        -0.1584
     19 F3         10.8008    0.7797    2.3237 F         1 <0>        -0.1724
     20 N3          6.0552    0.0926   -0.8655 N.am      1 <0>        -0.6988
     21 C15         4.7513    0.1311   -0.5266 C.2       1 <0>         0.7114
     22 O1          4.3858    0.8194    0.4067 O.2       1 <0>        -0.5584
     23 N4          3.8526   -0.5934   -1.2222 N.am      1 <0>        -0.6858
     24 C16         2.4863   -0.4790   -0.9335 C.ar      1 <0>         0.1577
     25 C17         1.5516   -0.5518   -1.9576 C.ar      1 <0>        -0.1240
     26 C18         0.2052   -0.4394   -1.6724 C.ar      1 <0>        -0.0926
     27 C19        -0.2137   -0.2543   -0.3628 C.ar      1 <0>         0.0883
     28 C20         0.7198   -0.1815    0.6609 C.ar      1 <0>        -0.0957
     29 C21         2.0665   -0.2932    0.3769 C.ar      1 <0>        -0.1046
     30 O2         -1.5393   -0.1385   -0.0833 O.3       1 <0>        -0.2426
     31 C22        -2.3129   -1.2454   -0.1983 C.ar      1 <0>         0.3832
     32 C23        -3.6894   -1.1637   -0.0277 C.ar      1 <0>        -0.3126
     33 C24        -4.4409   -2.3284   -0.1601 C.ar      1 <0>         0.4635
     34 N5         -3.8165   -3.4721   -0.4341 N.ar      1 <0>        -0.5931
     35 C25        -2.5082   -3.5081   -0.5840 C.ar      1 <0>         0.3762
     36 N6         -1.7644   -2.4263   -0.4707 N.ar      1 <0>        -0.6049
     37 N7         -5.8178   -2.2988   -0.0034 N.pl3     1 <0>        -0.7212
     38 C26        -6.4937   -1.0344    0.2979 C.3       1 <0>         0.0887
     39 H1          9.0560    3.0401    9.2597 H         1 <0>         0.0714
     40 H2          8.0243    2.9380    7.7928 H         1 <0>         0.0562
     41 H3          8.8763    4.4695    8.1868 H         1 <0>         0.0696
     42 H4         11.0672    3.3441    7.8241 H         1 <0>         0.0895
     43 H5         10.2153    1.8126    7.4301 H         1 <0>         0.0455
     44 H6         12.0665    3.6630    5.7442 H         1 <0>         0.1253
     45 H7         11.4577    2.0621    5.2031 H         1 <0>         0.0582
     46 H8         10.8699    4.7665    3.8728 H         1 <0>         0.1369
     47 H9         11.9796    3.4990    3.2494 H         1 <0>         0.1329
     48 H10         8.4684    4.3007    3.9867 H         1 <0>         0.1355
     49 H11         7.8594    2.6998    3.4455 H         1 <0>         0.1312
     50 H12         9.0569    1.5962    5.3178 H         1 <0>         0.0572
     51 H13         7.9470    2.8635    5.9412 H         1 <0>         0.1266
     52 H14         9.4106    4.4897    1.7732 H         1 <0>         0.1472
     53 H15        10.7489    3.3982    1.2791 H         1 <0>         0.1420
     54 H16         7.2082    3.9988    1.1607 H         1 <0>         0.1512
     55 H17         5.5933    2.5489    0.0003 H         1 <0>         0.1583
     56 H18         8.5625   -0.5152   -0.2838 H         1 <0>         0.1556
     57 H19         6.3979   -0.5903   -1.6569 H         1 <0>         0.4440
     58 H20         4.1917   -1.2745   -2.0166 H         1 <0>         0.4371
     59 H21         1.8775   -0.6959   -2.9771 H         1 <0>         0.1338
     60 H22        -0.5220   -0.4960   -2.4689 H         1 <0>         0.1313
     61 H23         0.3932   -0.0371    1.6801 H         1 <0>         0.1341
     62 H24         2.7931   -0.2369    1.1740 H         1 <0>         0.1440
     63 H25        -4.1646   -0.2205    0.1982 H         1 <0>         0.1470
     64 H26        -2.0315   -4.4515   -0.8058 H         1 <0>         0.2001
     65 H27        -6.4030   -3.2246   -0.1053 H         1 <0>         0.4380
     66 H28        -7.5762   -1.2091    0.3856 H         1 <0>         0.0868
     67 H29        -6.3028   -0.3146   -0.5117 H         1 <0>         0.0604
     68 H30        -6.1096   -0.6302    1.2461 H         1 <0>         0.0603
     69 H31        10.1379    1.9295    3.1711 H         1 <0>         0.4253
@<TRIPOS>BOND
     1    1    2 1
     2    1   39 1
     3    1   40 1
     4    1   41 1
     5    2    3 1
     6    2   42 1
     7    2   43 1
     8    3    8 1
     9    3    4 1
    10    4    5 1
    11    4   44 1
    12    4   45 1
    13    5    6 1
    14    5   46 1
    15    5   47 1
    16    6    7 1
    17    6    9 1
    18    6   69 1
    19    7    8 1
    20    7   48 1
    21    7   49 1
    22    8   50 1
    23    8   51 1
    24    9   10 1
    25    9   52 1
    26    9   53 1
    27   10   15 ar
    28   10   11 ar
    29   11   12 ar
    30   11   54 1
    31   12   13 ar
    32   12   55 1
    33   13   14 ar
    34   13   20 1
    35   14   15 ar
    36   14   56 1
    37   15   16 1
    38   16   17 1
    39   16   18 1
    40   16   19 1
    41   20   21 am
    42   20   57 1
    43   21   22 2
    44   21   23 am
    45   23   24 1
    46   23   58 1
    47   24   29 ar
    48   24   25 ar
    49   25   26 ar
    50   25   59 1
    51   26   27 ar
    52   26   60 1
    53   27   28 ar
    54   27   30 1
    55   28   29 ar
    56   28   61 1
    57   29   62 1
    58   30   31 1
    59   31   36 ar
    60   31   32 ar
    61   32   33 ar
    62   32   63 1
    63   33   34 ar
    64   33   37 1
    65   34   35 ar
    66   35   36 ar
    67   35   64 1
    68   37   38 1
    69   37   65 1
    70   38   66 1
    71   38   67 1
    72   38   68 1
@<TRIPOS>MOLECULE
ZINC23247639
   68    71     0     0     0
SMALL
USER_CHARGES
1-[4-[(4-ethylpiperazin-1-yl)methyl]-3-(trifluoromethyl)phenyl]-3-[4-(6-methylaminopyrimidin-4-yl)oxyphenyl]urea
@<TRIPOS>ATOM
      1 C1          8.9417    3.3719    8.2172 C.3       1 <0>        -0.1510
      2 C2         10.1498    2.9102    7.3997 C.3       1 <0>         0.0499
      3 N1          9.9972    3.3533    6.0075 N.3       1 <0>        -0.5402
      4 C3         11.2367    3.1387    5.2477 C.3       1 <0>         0.0569
      5 C4         11.0629    3.6845    3.8284 C.3       1 <0>         0.0590
      6 N2          9.9288    3.0094    3.1822 N.3       1 <0>        -0.5268
      7 C5          8.6893    3.2240    3.9420 C.3       1 <0>         0.0561
      8 C6          8.8631    2.6781    5.3612 C.3       1 <0>         0.0550
      9 C7          9.7762    3.4524    1.7899 C.3       1 <0>         0.0729
     10 C8          8.7879    2.5601    1.0842 C.ar      1 <0>        -0.0447
     11 C9          7.5022    3.0092    0.8434 C.ar      1 <0>        -0.0942
     12 C10         6.5958    2.1959    0.1923 C.ar      1 <0>        -0.0884
     13 C11         6.9731    0.9214   -0.2106 C.ar      1 <0>         0.1720
     14 C12         8.2646    0.4735    0.0326 C.ar      1 <0>        -0.1038
     15 C13         9.1683    1.2940    0.6793 C.ar      1 <0>        -0.1404
     16 C14        10.5702    0.8086    0.9441 C.3       1 <0>         0.5095
     17 F1         10.7250   -0.4786    0.4184 F         1 <0>        -0.1841
     18 F2         11.4860    1.6739    0.3362 F         1 <0>        -0.1795
     19 F3         10.8008    0.7797    2.3237 F         1 <0>        -0.1519
     20 N3          6.0552    0.0926   -0.8655 N.am      1 <0>        -0.6948
     21 C15         4.7513    0.1311   -0.5266 C.2       1 <0>         0.7096
     22 O1          4.3858    0.8194    0.4067 O.2       1 <0>        -0.5587
     23 N4          3.8526   -0.5934   -1.2222 N.am      1 <0>        -0.6930
     24 C16         2.4863   -0.4790   -0.9335 C.ar      1 <0>         0.1697
     25 C17         1.5516   -0.5518   -1.9576 C.ar      1 <0>        -0.1297
     26 C18         0.2052   -0.4394   -1.6724 C.ar      1 <0>        -0.0930
     27 C19        -0.2137   -0.2543   -0.3628 C.ar      1 <0>         0.0783
     28 C20         0.7198   -0.1815    0.6609 C.ar      1 <0>        -0.0936
     29 C21         2.0665   -0.2932    0.3769 C.ar      1 <0>        -0.1059
     30 O2         -1.5393   -0.1385   -0.0833 O.3       1 <0>        -0.2412
     31 C22        -2.3129   -1.2454   -0.1983 C.ar      1 <0>         0.3851
     32 C23        -3.6894   -1.1637   -0.0277 C.ar      1 <0>        -0.3141
     33 C24        -4.4409   -2.3284   -0.1601 C.ar      1 <0>         0.4620
     34 N5         -3.8165   -3.4721   -0.4341 N.ar      1 <0>        -0.5954
     35 C25        -2.5082   -3.5081   -0.5840 C.ar      1 <0>         0.3753
     36 N6         -1.7644   -2.4263   -0.4707 N.ar      1 <0>        -0.6017
     37 N7         -5.8178   -2.2988   -0.0034 N.pl3     1 <0>        -0.7231
     38 C26        -6.4937   -1.0344    0.2979 C.3       1 <0>         0.0898
     39 H1          9.0560    3.0401    9.2597 H         1 <0>         0.0595
     40 H2          8.0243    2.9380    7.7928 H         1 <0>         0.0547
     41 H3          8.8763    4.4695    8.1868 H         1 <0>         0.0631
     42 H4         11.0672    3.3441    7.8241 H         1 <0>         0.0746
     43 H5         10.2153    1.8126    7.4301 H         1 <0>         0.0335
     44 H6         12.0665    3.6630    5.7442 H         1 <0>         0.0800
     45 H7         11.4577    2.0621    5.2031 H         1 <0>         0.0441
     46 H8         10.8699    4.7665    3.8728 H         1 <0>         0.0445
     47 H9         11.9796    3.4990    3.2494 H         1 <0>         0.0809
     48 H10         8.4684    4.3007    3.9867 H         1 <0>         0.0435
     49 H11         7.8594    2.6998    3.4455 H         1 <0>         0.0808
     50 H12         9.0569    1.5962    5.3178 H         1 <0>         0.0425
     51 H13         7.9470    2.8635    5.9412 H         1 <0>         0.0819
     52 H14         9.4106    4.4897    1.7732 H         1 <0>         0.0550
     53 H15        10.7489    3.3982    1.2791 H         1 <0>         0.0962
     54 H16         7.2082    3.9988    1.1607 H         1 <0>         0.1355
     55 H17         5.5933    2.5489    0.0003 H         1 <0>         0.1427
     56 H18         8.5625   -0.5152   -0.2838 H         1 <0>         0.1409
     57 H19         6.3979   -0.5903   -1.6569 H         1 <0>         0.4343
     58 H20         4.1917   -1.2745   -2.0166 H         1 <0>         0.4332
     59 H21         1.8775   -0.6959   -2.9771 H         1 <0>         0.1323
     60 H22        -0.5220   -0.4960   -2.4689 H         1 <0>         0.1282
     61 H23         0.3932   -0.0371    1.6801 H         1 <0>         0.1328
     62 H24         2.7931   -0.2369    1.1740 H         1 <0>         0.1466
     63 H25        -4.1646   -0.2205    0.1982 H         1 <0>         0.1463
     64 H26        -2.0315   -4.4515   -0.8058 H         1 <0>         0.1996
     65 H27        -6.4030   -3.2246   -0.1053 H         1 <0>         0.4362
     66 H28        -7.5762   -1.2091    0.3856 H         1 <0>         0.0851
     67 H29        -6.3028   -0.3146   -0.5117 H         1 <0>         0.0598
     68 H30        -6.1096   -0.6302    1.2461 H         1 <0>         0.0599
@<TRIPOS>BOND
     1    1    2 1
     2    1   39 1
     3    1   40 1
     4    1   41 1
     5    2    3 1
     6    2   42 1
     7    2   43 1
     8    3    8 1
     9    3    4 1
    10    4    5 1
    11    4   44 1
    12    4   45 1
    13    5    6 1
    14    5   46 1
    15    5   47 1
    16    6    7 1
    17    6    9 1
    18    7    8 1
    19    7   48 1
    20    7   49 1
    21    8   50 1
    22    8   51 1
    23    9   10 1
    24    9   52 1
    25    9   53 1
    26   10   15 ar
    27   10   11 ar
    28   11   12 ar
    29   11   54 1
    30   12   13 ar
    31   12   55 1
    32   13   14 ar
    33   13   20 1
    34   14   15 ar
    35   14   56 1
    36   15   16 1
    37   16   17 1
    38   16   18 1
    39   16   19 1
    40   20   21 am
    41   20   57 1
    42   21   22 2
    43   21   23 am
    44   23   24 1
    45   23   58 1
    46   24   29 ar
    47   24   25 ar
    48   25   26 ar
    49   25   59 1
    50   26   27 ar
    51   26   60 1
    52   27   28 ar
    53   27   30 1
    54   28   29 ar
    55   28   61 1
    56   29   62 1
    57   30   31 1
    58   31   36 ar
    59   31   32 ar
    60   32   33 ar
    61   32   63 1
    62   33   34 ar
    63   33   37 1
    64   34   35 ar
    65   35   36 ar
    66   35   64 1
    67   37   38 1
    68   37   65 1
    69   38   66 1
    70   38   67 1
    71   38   68 1
@<TRIPOS>MOLECULE
ZINC19632618
   69    73     0     0     0
SMALL
USER_CHARGES

@<TRIPOS>ATOM
      1 C1         -0.1643    1.5374    0.2772 C.3       1 <0>        -0.1166
      2 C2          0.0708    0.1281   -0.2021 C.ar      1 <0>        -0.1228
      3 C3         -0.6192   -0.3521   -1.2987 C.ar      1 <0>        -0.0806
      4 C4         -0.4070   -1.6434   -1.7410 C.ar      1 <0>        -0.1294
      5 C5          0.5017   -2.4641   -1.0837 C.ar      1 <0>         0.1504
      6 C6          1.1965   -1.9850    0.0175 C.ar      1 <0>        -0.1394
      7 C7          0.9852   -0.6852    0.4558 C.ar      1 <0>         0.1826
      8 N1          1.6874   -0.1967    1.5617 N.pl3     1 <0>        -0.6314
      9 C8          2.1285   -1.0695    2.5429 C.ar      1 <0>         0.5659
     10 N2          1.7764   -2.3456    2.4776 N.ar      1 <0>        -0.5577
     11 C9          2.1776   -3.2107    3.3953 C.ar      1 <0>         0.1910
     12 C10         2.9764   -2.7714    4.4364 C.ar      1 <0>        -0.2706
     13 C11         3.3313   -1.4207    4.4789 C.ar      1 <0>         0.2697
     14 N3          2.8950   -0.6087    3.5185 N.ar      1 <0>        -0.5576
     15 C12         4.1856   -0.9008    5.5740 C.ar      1 <0>        -0.1200
     16 C13         4.4510    0.4679    5.6793 C.ar      1 <0>        -0.0267
     17 C14         5.2541    0.9026    6.7193 C.ar      1 <0>        -0.1772
     18 C15         5.7636   -0.0222    7.6129 C.ar      1 <0>         0.1192
     19 N4          5.4957   -1.3077    7.4879 N.ar      1 <0>        -0.4844
     20 C16         4.7320   -1.7677    6.5181 C.ar      1 <0>         0.1336
     21 N5          0.7153   -3.7716   -1.5315 N.am      1 <0>        -0.6649
     22 C17         0.7404   -4.0356   -2.8529 C.2       1 <0>         0.5545
     23 O1          0.4912   -3.1555   -3.6535 O.2       1 <0>        -0.5086
     24 C18         1.0709   -5.3955   -3.3287 C.ar      1 <0>        -0.1216
     25 C19         1.3519   -6.4100   -2.4119 C.ar      1 <0>        -0.0841
     26 C20         1.6592   -7.6771   -2.8626 C.ar      1 <0>        -0.1244
     27 C21         1.6892   -7.9435   -4.2200 C.ar      1 <0>        -0.0692
     28 C22         1.4117   -6.9425   -5.1341 C.ar      1 <0>        -0.0994
     29 C23         1.0978   -5.6724   -4.6966 C.ar      1 <0>        -0.0536
     30 C24         2.0262   -9.3299   -4.7050 C.3       1 <0>         0.0939
     31 N6          0.7933  -10.1196   -4.8258 N.3       1 <0>        -0.5345
     32 C25         0.1866  -10.3538   -3.5078 C.3       1 <0>         0.0185
     33 C26        -1.1228  -11.1262   -3.6823 C.3       1 <0>        -0.0025
     34 N7         -0.8513  -12.4061   -4.3498 N.4       1 <0>        -0.3884
     35 C27        -0.2685  -12.1554   -5.6746 C.3       1 <0>        -0.0024
     36 C28         1.0481  -11.3916   -5.5166 C.3       1 <0>         0.0250
     37 C29        -2.1059  -13.1551   -4.5009 C.3       1 <0>        -0.0460
     38 H1          0.5251    2.2130   -0.2290 H         1 <0>         0.0728
     39 H2         -1.1901    1.8307    0.0540 H         1 <0>         0.0743
     40 H3          0.0021    1.5877    1.3533 H         1 <0>         0.0627
     41 H4         -1.3262    0.2836   -1.8111 H         1 <0>         0.1320
     42 H5         -0.9481   -2.0158   -2.5982 H         1 <0>         0.1349
     43 H6          1.9030   -2.6209    0.5302 H         1 <0>         0.1479
     44 H7          1.8658    0.7534    1.6418 H         1 <0>         0.4260
     45 H8          1.8844   -4.2483    3.3325 H         1 <0>         0.1734
     46 H9          3.3172   -3.4566    5.1985 H         1 <0>         0.1507
     47 H10         4.0401    1.1680    4.9670 H         1 <0>         0.1466
     48 H11         5.4807    1.9525    6.8318 H         1 <0>         0.1437
     49 H12         6.3909    0.3135    8.4254 H         1 <0>         0.1633
     50 H13         4.5316   -2.8268    6.4514 H         1 <0>         0.1617
     51 H14         0.8453   -4.4884   -0.8911 H         1 <0>         0.4084
     52 H15         1.3291   -6.2032   -1.3521 H         1 <0>         0.1294
     53 H16         1.8771   -8.4627   -2.1544 H         1 <0>         0.1265
     54 H17         1.4372   -7.1570   -6.1922 H         1 <0>         0.1340
     55 H18         0.8770   -4.8931   -5.4110 H         1 <0>         0.1424
     56 H19         2.5135   -9.2661   -5.6779 H         1 <0>         0.1008
     57 H20         2.6973   -9.8107   -3.9933 H         1 <0>         0.0595
     58 H21         0.8718  -10.9344   -2.8900 H         1 <0>         0.0618
     59 H22        -0.0167   -9.3975   -3.0259 H         1 <0>         0.1265
     60 H23        -1.5673  -11.3133   -2.7048 H         1 <0>         0.1359
     61 H24        -1.8127  -10.5393   -4.2887 H         1 <0>         0.1379
     62 H25        -0.0795  -13.1056   -6.1741 H         1 <0>         0.1367
     63 H26        -0.9627  -11.5633   -6.2708 H         1 <0>         0.1381
     64 H27         1.4733  -11.1924   -6.5003 H         1 <0>         0.1253
     65 H28         1.7474  -11.9892   -4.9320 H         1 <0>         0.0621
     66 H29        -2.8061  -12.5737   -5.1008 H         1 <0>         0.1233
     67 H30        -1.9046  -14.1049   -4.9963 H         1 <0>         0.1246
     68 H31        -2.5379  -13.3423   -3.5179 H         1 <0>         0.1243
     69 H32        -0.2036  -12.9443   -3.7940 H         1 <0>         0.4222
@<TRIPOS>BOND
     1    1    2 1
     2    1   38 1
     3    1   39 1
     4    1   40 1
     5    2    7 ar
     6    2    3 ar
     7    3    4 ar
     8    3   41 1
     9    4    5 ar
    10    4   42 1
    11    5    6 ar
    12    5   21 1
    13    6    7 ar
    14    6   43 1
    15    7    8 1
    16    8    9 1
    17    8   44 1
    18    9   14 ar
    19    9   10 ar
    20   10   11 ar
    21   11   12 ar
    22   11   45 1
    23   12   13 ar
    24   12   46 1
    25   13   14 ar
    26   13   15 1
    27   15   20 ar
    28   15   16 ar
    29   16   17 ar
    30   16   47 1
    31   17   18 ar
    32   17   48 1
    33   18   19 ar
    34   18   49 1
    35   19   20 ar
    36   20   50 1
    37   21   22 am
    38   21   51 1
    39   22   23 2
    40   22   24 1
    41   24   29 ar
    42   24   25 ar
    43   25   26 ar
    44   25   52 1
    45   26   27 ar
    46   26   53 1
    47   27   28 ar
    48   27   30 1
    49   28   29 ar
    50   28   54 1
    51   29   55 1
    52   30   31 1
    53   30   56 1
    54   30   57 1
    55   31   36 1
    56   31   32 1
    57   32   33 1
    58   32   58 1
    59   32   59 1
    60   33   34 1
    61   33   60 1
    62   33   61 1
    63   34   35 1
    64   34   37 1
    65   34   69 1
    66   35   36 1
    67   35   62 1
    68   35   63 1
    69   36   64 1
    70   36   65 1
    71   37   66 1
    72   37   67 1
    73   37   68 1
@<TRIPOS>MOLECULE
ZINC19632618
   69    73     0     0     0
SMALL
USER_CHARGES

@<TRIPOS>ATOM
      1 C1         -0.1643    1.5374    0.2772 C.3       1 <0>        -0.1179
      2 C2          0.0708    0.1281   -0.2021 C.ar      1 <0>        -0.1195
      3 C3         -0.6192   -0.3521   -1.2987 C.ar      1 <0>        -0.0803
      4 C4         -0.4070   -1.6434   -1.7410 C.ar      1 <0>        -0.1287
      5 C5          0.5017   -2.4641   -1.0837 C.ar      1 <0>         0.1452
      6 C6          1.1965   -1.9850    0.0175 C.ar      1 <0>        -0.1374
      7 C7          0.9852   -0.6852    0.4558 C.ar      1 <0>         0.1839
      8 N1          1.6874   -0.1967    1.5617 N.pl3     1 <0>        -0.6318
      9 C8          2.1285   -1.0695    2.5429 C.ar      1 <0>         0.5654
     10 N2          1.7764   -2.3456    2.4776 N.ar      1 <0>        -0.5590
     11 C9          2.1776   -3.2107    3.3953 C.ar      1 <0>         0.1907
     12 C10         2.9764   -2.7714    4.4364 C.ar      1 <0>        -0.2695
     13 C11         3.3313   -1.4207    4.4789 C.ar      1 <0>         0.2707
     14 N3          2.8950   -0.6087    3.5185 N.ar      1 <0>        -0.5571
     15 C12         4.1856   -0.9008    5.5740 C.ar      1 <0>        -0.1213
     16 C13         4.4510    0.4679    5.6793 C.ar      1 <0>        -0.0264
     17 C14         5.2541    0.9026    6.7193 C.ar      1 <0>        -0.1772
     18 C15         5.7636   -0.0222    7.6129 C.ar      1 <0>         0.1201
     19 N4          5.4957   -1.3077    7.4879 N.ar      1 <0>        -0.4842
     20 C16         4.7320   -1.7677    6.5181 C.ar      1 <0>         0.1342
     21 N5          0.7153   -3.7716   -1.5315 N.am      1 <0>        -0.6603
     22 C17         0.7404   -4.0356   -2.8529 C.2       1 <0>         0.5491
     23 O1          0.4912   -3.1555   -3.6535 O.2       1 <0>        -0.5015
     24 C18         1.0709   -5.3955   -3.3287 C.ar      1 <0>        -0.0938
     25 C19         1.3519   -6.4100   -2.4119 C.ar      1 <0>        -0.0834
     26 C20         1.6592   -7.6771   -2.8626 C.ar      1 <0>        -0.1009
     27 C21         1.6892   -7.9435   -4.2200 C.ar      1 <0>        -0.1382
     28 C22         1.4117   -6.9425   -5.1341 C.ar      1 <0>        -0.0966
     29 C23         1.0978   -5.6724   -4.6966 C.ar      1 <0>        -0.0538
     30 C24         2.0262   -9.3299   -4.7050 C.3       1 <0>         0.0425
     31 N6          0.7933  -10.1196   -4.8258 N.4       1 <0>        -0.3856
     32 C25         0.1989  -10.3052   -3.4955 C.3       1 <0>        -0.0078
     33 C26        -1.0954  -11.1117   -3.6230 C.3       1 <0>         0.0256
     34 N7         -0.7986  -12.4159   -4.2323 N.3       1 <0>        -0.5431
     35 C27        -0.1799  -12.2456   -5.5546 C.3       1 <0>         0.0239
     36 C28         1.1068  -11.4297   -5.4112 C.3       1 <0>        -0.0024
     37 C29        -2.0090  -13.2436   -4.3201 C.3       1 <0>         0.0192
     38 H1          0.5251    2.2130   -0.2290 H         1 <0>         0.0738
     39 H2         -1.1901    1.8307    0.0540 H         1 <0>         0.0752
     40 H3          0.0021    1.5877    1.3533 H         1 <0>         0.0636
     41 H4         -1.3262    0.2836   -1.8111 H         1 <0>         0.1330
     42 H5         -0.9481   -2.0158   -2.5982 H         1 <0>         0.1345
     43 H6          1.9030   -2.6209    0.5302 H         1 <0>         0.1487
     44 H7          1.8658    0.7534    1.6418 H         1 <0>         0.4265
     45 H8          1.8844   -4.2483    3.3325 H         1 <0>         0.1737
     46 H9          3.3172   -3.4566    5.1985 H         1 <0>         0.1513
     47 H10         4.0401    1.1680    4.9670 H         1 <0>         0.1465
     48 H11         5.4807    1.9525    6.8318 H         1 <0>         0.1439
     49 H12         6.3909    0.3135    8.4254 H         1 <0>         0.1636
     50 H13         4.5316   -2.8268    6.4514 H         1 <0>         0.1618
     51 H14         0.8453   -4.4884   -0.8911 H         1 <0>         0.4091
     52 H15         1.3291   -6.2032   -1.3521 H         1 <0>         0.1399
     53 H16         1.8771   -8.4627   -2.1544 H         1 <0>         0.1405
     54 H17         1.4372   -7.1570   -6.1922 H         1 <0>         0.1409
     55 H18         0.8770   -4.8931   -5.4110 H         1 <0>         0.1513
     56 H19         2.5135   -9.2661   -5.6779 H         1 <0>         0.1411
     57 H20         2.6973   -9.8107   -3.9933 H         1 <0>         0.1402
     58 H21         0.8998  -10.8418   -2.8560 H         1 <0>         0.1385
     59 H22        -0.0212   -9.3320   -3.0568 H         1 <0>         0.1352
     60 H23        -1.5289  -11.2624   -2.6343 H         1 <0>         0.1235
     61 H24        -1.8016  -10.5690   -4.2513 H         1 <0>         0.0601
     62 H25         0.0544  -13.2235   -5.9751 H         1 <0>         0.1247
     63 H26        -0.8711  -11.7216   -6.2147 H         1 <0>         0.0606
     64 H27         1.5598  -11.2902   -6.3927 H         1 <0>         0.1372
     65 H28         1.8030  -11.9606   -4.7619 H         1 <0>         0.1392
     66 H29        -2.7542  -12.7340   -4.9308 H         1 <0>         0.0396
     67 H30        -1.7610  -14.2028   -4.7745 H         1 <0>         0.0842
     68 H31        -2.4099  -13.4082   -3.3199 H         1 <0>         0.0844
     69 H32         0.1396   -9.6332   -5.4209 H         1 <0>         0.4206
@<TRIPOS>BOND
     1    1    2 1
     2    1   38 1
     3    1   39 1
     4    1   40 1
     5    2    7 ar
     6    2    3 ar
     7    3    4 ar
     8    3   41 1
     9    4    5 ar
    10    4   42 1
    11    5    6 ar
    12    5   21 1
    13    6    7 ar
    14    6   43 1
    15    7    8 1
    16    8    9 1
    17    8   44 1
    18    9   14 ar
    19    9   10 ar
    20   10   11 ar
    21   11   12 ar
    22   11   45 1
    23   12   13 ar
    24   12   46 1
    25   13   14 ar
    26   13   15 1
    27   15   20 ar
    28   15   16 ar
    29   16   17 ar
    30   16   47 1
    31   17   18 ar
    32   17   48 1
    33   18   19 ar
    34   18   49 1
    35   19   20 ar
    36   20   50 1
    37   21   22 am
    38   21   51 1
    39   22   23 2
    40   22   24 1
    41   24   29 ar
    42   24   25 ar
    43   25   26 ar
    44   25   52 1
    45   26   27 ar
    46   26   53 1
    47   27   28 ar
    48   27   30 1
    49   28   29 ar
    50   28   54 1
    51   29   55 1
    52   30   31 1
    53   30   56 1
    54   30   57 1
    55   31   36 1
    56   31   32 1
    57   31   69 1
    58   32   33 1
    59   32   58 1
    60   32   59 1
    61   33   34 1
    62   33   60 1
    63   33   61 1
    64   34   35 1
    65   34   37 1
    66   35   36 1
    67   35   62 1
    68   35   63 1
    69   36   64 1
    70   36   65 1
    71   37   66 1
    72   37   67 1
    73   37   68 1
@<TRIPOS>MOLECULE
ZINC19632618
   68    72     0     0     0
SMALL
USER_CHARGES

@<TRIPOS>ATOM
      1 C1         -0.1643    1.5374    0.2772 C.3       1 <0>        -0.1139
      2 C2          0.0708    0.1281   -0.2021 C.ar      1 <0>        -0.1276
      3 C3         -0.6192   -0.3521   -1.2987 C.ar      1 <0>        -0.0809
      4 C4         -0.4070   -1.6434   -1.7410 C.ar      1 <0>        -0.1296
      5 C5          0.5017   -2.4641   -1.0837 C.ar      1 <0>         0.1575
      6 C6          1.1965   -1.9850    0.0175 C.ar      1 <0>        -0.1408
      7 C7          0.9852   -0.6852    0.4558 C.ar      1 <0>         0.1805
      8 N1          1.6874   -0.1967    1.5617 N.pl3     1 <0>        -0.6310
      9 C8          2.1285   -1.0695    2.5429 C.ar      1 <0>         0.5658
     10 N2          1.7764   -2.3456    2.4776 N.ar      1 <0>        -0.5548
     11 C9          2.1776   -3.2107    3.3953 C.ar      1 <0>         0.1930
     12 C10         2.9764   -2.7714    4.4364 C.ar      1 <0>        -0.2707
     13 C11         3.3313   -1.4207    4.4789 C.ar      1 <0>         0.2660
     14 N3          2.8950   -0.6087    3.5185 N.ar      1 <0>        -0.5591
     15 C12         4.1856   -0.9008    5.5740 C.ar      1 <0>        -0.1161
     16 C13         4.4510    0.4679    5.6793 C.ar      1 <0>        -0.0277
     17 C14         5.2541    0.9026    6.7193 C.ar      1 <0>        -0.1780
     18 C15         5.7636   -0.0222    7.6129 C.ar      1 <0>         0.1167
     19 N4          5.4957   -1.3077    7.4879 N.ar      1 <0>        -0.4846
     20 C16         4.7320   -1.7677    6.5181 C.ar      1 <0>         0.1331
     21 N5          0.7153   -3.7716   -1.5315 N.am      1 <0>        -0.6684
     22 C17         0.7404   -4.0356   -2.8529 C.2       1 <0>         0.5607
     23 O1          0.4912   -3.1555   -3.6535 O.2       1 <0>        -0.5149
     24 C18         1.0709   -5.3955   -3.3287 C.ar      1 <0>        -0.1367
     25 C19         1.3519   -6.4100   -2.4119 C.ar      1 <0>        -0.0845
     26 C20         1.6592   -7.6771   -2.8626 C.ar      1 <0>        -0.1214
     27 C21         1.6892   -7.9435   -4.2200 C.ar      1 <0>        -0.0481
     28 C22         1.4117   -6.9425   -5.1341 C.ar      1 <0>        -0.1045
     29 C23         1.0978   -5.6724   -4.6966 C.ar      1 <0>        -0.0549
     30 C24         2.0262   -9.3299   -4.7050 C.3       1 <0>         0.0887
     31 N6          0.7933  -10.1196   -4.8258 N.3       1 <0>        -0.5346
     32 C25         0.1854  -10.3517   -3.5082 C.3       1 <0>         0.0528
     33 C26        -1.1341  -11.1069   -3.6840 C.3       1 <0>         0.0560
     34 N7         -0.8794  -12.3787   -4.3748 N.3       1 <0>        -0.5467
     35 C27        -0.2715  -12.1466   -5.6924 C.3       1 <0>         0.0557
     36 C28         1.0481  -11.3914   -5.5165 C.3       1 <0>         0.0569
     37 C29        -2.1122  -13.1683   -4.4955 C.3       1 <0>         0.0243
     38 H1          0.5251    2.2130   -0.2290 H         1 <0>         0.0707
     39 H2         -1.1901    1.8307    0.0540 H         1 <0>         0.0727
     40 H3          0.0021    1.5877    1.3533 H         1 <0>         0.0612
     41 H4         -1.3262    0.2836   -1.8111 H         1 <0>         0.1306
     42 H5         -0.9481   -2.0158   -2.5982 H         1 <0>         0.1361
     43 H6          1.9030   -2.6209    0.5302 H         1 <0>         0.1478
     44 H7          1.8658    0.7534    1.6418 H         1 <0>         0.4247
     45 H8          1.8844   -4.2483    3.3325 H         1 <0>         0.1749
     46 H9          3.3172   -3.4566    5.1985 H         1 <0>         0.1504
     47 H10         4.0401    1.1680    4.9670 H         1 <0>         0.1465
     48 H11         5.4807    1.9525    6.8318 H         1 <0>         0.1424
     49 H12         6.3909    0.3135    8.4254 H         1 <0>         0.1620
     50 H13         4.5316   -2.8268    6.4514 H         1 <0>         0.1624
     51 H14         0.8453   -4.4884   -0.8911 H         1 <0>         0.4098
     52 H15         1.3291   -6.2032   -1.3521 H         1 <0>         0.1256
     53 H16         1.8771   -8.4627   -2.1544 H         1 <0>         0.1277
     54 H17         1.4372   -7.1570   -6.1922 H         1 <0>         0.1323
     55 H18         0.8770   -4.8931   -5.4110 H         1 <0>         0.1380
     56 H19         2.5135   -9.2661   -5.6779 H         1 <0>         0.0885
     57 H20         2.6973   -9.8107   -3.9933 H         1 <0>         0.0490
     58 H21         0.8640  -10.9435   -2.8938 H         1 <0>         0.0436
     59 H22        -0.0051   -9.3950   -3.0219 H         1 <0>         0.0840
     60 H23        -1.5725  -11.3056   -2.7060 H         1 <0>         0.0799
     61 H24        -1.8225  -10.5033   -4.2756 H         1 <0>         0.0432
     62 H25        -0.0810  -13.1033   -6.1787 H         1 <0>         0.0811
     63 H26        -0.9501  -11.5548   -6.3068 H         1 <0>         0.0437
     64 H27         1.4864  -11.1926   -6.4945 H         1 <0>         0.0821
     65 H28         1.7364  -11.9950   -4.9250 H         1 <0>         0.0450
     66 H29        -2.8511  -12.6037   -5.0641 H         1 <0>         0.0271
     67 H30        -1.8953  -14.1043   -5.0104 H         1 <0>         0.0693
     68 H31        -2.5051  -13.3830   -3.5017 H         1 <0>         0.0693
@<TRIPOS>BOND
     1    1    2 1
     2    1   38 1
     3    1   39 1
     4    1   40 1
     5    2    7 ar
     6    2    3 ar
     7    3    4 ar
     8    3   41 1
     9    4    5 ar
    10    4   42 1
    11    5    6 ar
    12    5   21 1
    13    6    7 ar
    14    6   43 1
    15    7    8 1
    16    8    9 1
    17    8   44 1
    18    9   14 ar
    19    9   10 ar
    20   10   11 ar
    21   11   12 ar
    22   11   45 1
    23   12   13 ar
    24   12   46 1
    25   13   14 ar
    26   13   15 1
    27   15   20 ar
    28   15   16 ar
    29   16   17 ar
    30   16   47 1
    31   17   18 ar
    32   17   48 1
    33   18   19 ar
    34   18   49 1
    35   19   20 ar
    36   20   50 1
    37   21   22 am
    38   21   51 1
    39   22   23 2
    40   22   24 1
    41   24   29 ar
    42   24   25 ar
    43   25   26 ar
    44   25   52 1
    45   26   27 ar
    46   26   53 1
    47   27   28 ar
    48   27   30 1
    49   28   29 ar
    50   28   54 1
    51   29   55 1
    52   30   31 1
    53   30   56 1
    54   30   57 1
    55   31   36 1
    56   31   32 1
    57   32   33 1
    58   32   58 1
    59   32   59 1
    60   33   34 1
    61   33   60 1
    62   33   61 1
    63   34   35 1
    64   34   37 1
    65   35   36 1
    66   35   62 1
    67   35   63 1
    68   36   64 1
    69   36   65 1
    70   37   66 1
    71   37   67 1
    72   37   68 1
