@<TRIPOS>MOLECULE
ZINC01239495
   42    44     0     0     0
SMALL
USER_CHARGES
3-[5-[(3-bromophenyl)methylene]-4-oxo-2-thioxo-thiazolidin-3-yl]-N-(2-hydroxyphenyl)-propanamide
@<TRIPOS>ATOM
      1 C1          5.2901    1.4959    0.1770 C.ar      1 <0>        -0.1071
      2 C2          4.2627    2.3950   -0.0427 C.ar      1 <0>        -0.1195
      3 C3          2.9657    1.9432   -0.2003 C.ar      1 <0>        -0.1248
      4 C4          2.6921    0.5864   -0.1382 C.ar      1 <0>         0.0738
      5 C5          3.7265   -0.3198    0.0832 C.ar      1 <0>         0.1201
      6 C6          5.0255    0.1410    0.2403 C.ar      1 <0>        -0.1190
      7 N1          3.4558   -1.6932    0.1465 N.am      1 <0>        -0.6631
      8 C7          4.4098   -2.5842   -0.1888 C.2       1 <0>         0.5266
      9 O1          5.5321   -2.2030   -0.4464 O.2       1 <0>        -0.5128
     10 C8          4.0821   -4.0542   -0.2437 C.3       1 <0>        -0.1544
     11 C9          5.3313   -4.8405   -0.6463 C.3       1 <0>         0.0989
     12 N2          5.0128   -6.2694   -0.6997 N.am      1 <0>        -0.5217
     13 C10         4.5811   -6.7931   -1.8347 C.2       1 <0>         0.5456
     14 O2          4.4406   -6.1187   -2.8378 O.2       1 <0>        -0.4513
     15 C11         4.2773   -8.2401   -1.8221 C.2       1 <0>        -0.2436
     16 C12         3.8253   -9.0373   -2.8216 C.2       1 <0>         0.0937
     17 C13         3.7490  -10.4920   -2.6240 C.ar      1 <0>        -0.0947
     18 C14         4.4172  -11.0921   -1.5507 C.ar      1 <0>        -0.0754
     19 C15         4.3369  -12.4563   -1.3691 C.ar      1 <0>        -0.1067
     20 C16         3.6065  -13.2341   -2.2510 C.ar      1 <0>        -0.0611
     21 C17         2.9466  -12.6492   -3.3188 C.ar      1 <0>        -0.0961
     22 C18         3.0127  -11.2845   -3.5112 C.ar      1 <0>        -0.0480
     23 Br1         1.9529  -13.7235   -4.5163 Br        1 <0>        -0.0325
     24 S1          4.6691   -8.6493   -0.1266 S.3       1 <0>         0.0810
     25 C19         5.1717   -7.0216    0.4082 C.2       1 <0>         0.2580
     26 S2          5.7206   -6.5332    1.9545 S.2       1 <0>        -0.3219
     27 O3          1.4168    0.1405   -0.2925 O.3       1 <0>        -0.4957
     28 H1          6.3018    1.8535    0.2995 H         1 <0>         0.1303
     29 H2          4.4741    3.4529   -0.0914 H         1 <0>         0.1291
     30 H3          2.1662    2.6477   -0.3763 H         1 <0>         0.1332
     31 H4          5.8298   -0.5589    0.4124 H         1 <0>         0.1567
     32 H5          2.5819   -2.0026    0.4316 H         1 <0>         0.4170
     33 H6          3.7433   -4.3877    0.7371 H         1 <0>         0.1099
     34 H7          3.2940   -4.2236   -0.9774 H         1 <0>         0.1050
     35 H8          5.6702   -4.5069   -1.6271 H         1 <0>         0.1159
     36 H9          6.1194   -4.6711    0.0873 H         1 <0>         0.1249
     37 H10         3.5215   -8.6036   -3.7629 H         1 <0>         0.1679
     38 H11         4.9912  -10.4875   -0.8641 H         1 <0>         0.1383
     39 H12         4.8488  -12.9200   -0.5389 H         1 <0>         0.1454
     40 H13         3.5514  -14.3029   -2.1057 H         1 <0>         0.1432
     41 H14         2.4974  -10.8294   -4.3440 H         1 <0>         0.1460
     42 H15         1.1763   -0.0542   -1.2087 H         1 <0>         0.3886
@<TRIPOS>BOND
     1    1    6 ar
     2    1    2 ar
     3    1   28 1
     4    2    3 ar
     5    2   29 1
     6    3    4 ar
     7    3   30 1
     8    4    5 ar
     9    4   27 1
    10    5    6 ar
    11    5    7 1
    12    6   31 1
    13    7    8 am
    14    7   32 1
    15    8    9 2
    16    8   10 1
    17   10   11 1
    18   10   33 1
    19   10   34 1
    20   11   12 1
    21   11   35 1
    22   11   36 1
    23   12   25 1
    24   12   13 am
    25   13   14 2
    26   13   15 1
    27   15   16 2
    28   15   24 1
    29   16   17 1
    30   16   37 1
    31   17   22 ar
    32   17   18 ar
    33   18   19 ar
    34   18   38 1
    35   19   20 ar
    36   19   39 1
    37   20   21 ar
    38   20   40 1
    39   21   22 ar
    40   21   23 1
    41   22   41 1
    42   24   25 1
    43   25   26 2
    44   27   42 1
