@<TRIPOS>MOLECULE
ZINC01455730
   28    28     0     0     0
SMALL
USER_CHARGES

@<TRIPOS>ATOM
      1 C1         -0.0173    1.4248    0.0099 C.3       1 <0>         0.0232
      2 O1          0.0021   -0.0041    0.0020 O.3       1 <0>        -0.3012
      3 C2          0.6063   -0.6076   -1.0566 C.ar      1 <0>         0.1075
      4 C3          1.1728    0.1591   -2.0621 C.ar      1 <0>        -0.1477
      5 C4          1.7866   -0.4554   -3.1376 C.ar      1 <0>        -0.0619
      6 C5          1.8365   -1.8360   -3.2131 C.ar      1 <0>        -0.0107
      7 C6          1.2723   -2.6068   -2.2125 C.ar      1 <0>        -0.1648
      8 C7          0.6617   -1.9961   -1.1289 C.ar      1 <0>         0.1190
      9 O2          0.1122   -2.7522   -0.1411 O.3       1 <0>        -0.2997
     10 C8          0.2065   -4.1712   -0.2817 C.3       1 <0>         0.0222
     11 Cl1         2.6081   -2.6024   -4.5663 Cl        1 <0>        -0.0602
     12 C9          2.4021    0.3802   -4.2303 C.3       1 <0>        -0.0880
     13 C10         3.8926    0.4602   -4.0223 C.2       1 <0>         0.5257
     14 O3          4.4046   -0.1057   -3.0797 O.2       1 <0>        -0.5029
     15 N1          4.6566    1.1605   -4.8839 N.am      1 <0>        -0.5992
     16 O4          6.0571    1.2356   -4.6885 O.3       1 <0>        -0.3170
     17 H1          1.0053    1.8021    0.0021 H         1 <0>         0.0572
     18 H2         -0.5445    1.7859   -0.8732 H         1 <0>         0.0570
     19 H3         -0.5275    1.7763    0.9067 H         1 <0>         0.1041
     20 H4          1.1345    1.2369   -2.0058 H         1 <0>         0.1455
     21 H5          1.3118   -3.6844   -2.2736 H         1 <0>         0.1483
     22 H6         -0.2944   -4.4794   -1.1994 H         1 <0>         0.0578
     23 H7          1.2557   -4.4632   -0.3248 H         1 <0>         0.0583
     24 H8         -0.2701   -4.6533    0.5718 H         1 <0>         0.1049
     25 H9          2.1943   -0.0766   -5.1978 H         1 <0>         0.1145
     26 H10         1.9772    1.3836   -4.2034 H         1 <0>         0.1128
     27 H11         4.2471    1.6131   -5.6378 H         1 <0>         0.4078
     28 H12         6.5199    1.7594   -5.3567 H         1 <0>         0.3877
@<TRIPOS>BOND
     1    1    2 1
     2    1   17 1
     3    1   18 1
     4    1   19 1
     5    2    3 1
     6    3    8 ar
     7    3    4 ar
     8    4    5 ar
     9    4   20 1
    10    5    6 ar
    11    5   12 1
    12    6    7 ar
    13    6   11 1
    14    7    8 ar
    15    7   21 1
    16    8    9 1
    17    9   10 1
    18   10   22 1
    19   10   23 1
    20   10   24 1
    21   12   13 1
    22   12   25 1
    23   12   26 1
    24   13   14 2
    25   13   15 am
    26   15   16 1
    27   15   27 1
    28   16   28 1
@<TRIPOS>MOLECULE
ZINC03979014
   62    62     0     0     0
SMALL
USER_CHARGES

@<TRIPOS>ATOM
      1 C1          3.2541    2.1779    2.6729 C.3       1 <0>        -0.1533
      2 C2          3.5223    0.6722    2.6297 C.3       1 <0>        -0.1245
      3 C3          2.1925   -0.0837    2.6626 C.3       1 <0>        -0.1167
      4 C4          2.4606   -1.5894    2.6195 C.3       1 <0>        -0.1220
      5 C5          1.1309   -2.3454    2.6523 C.3       1 <0>        -0.1012
      6 C6          1.3906   -3.8423    2.4715 C.3       1 <0>        -0.0906
      7 H1          1.9759   -4.0028    1.5661 H         1 <0>         0.1121
      8 C7          0.0559   -4.5810    2.3536 C.3       1 <0>        -0.1229
      9 C8         -0.6306   -4.1768    1.0744 C.2       1 <0>         0.5261
     10 O1         -0.0560   -3.4677    0.2757 O.2       1 <0>        -0.5085
     11 N1         -1.8830   -4.6035    0.8179 N.am      1 <0>        -0.5979
     12 O2         -2.5281   -4.2238   -0.3841 O.3       1 <0>        -0.3170
     13 C9          2.1519   -4.3674    3.6614 C.2       1 <0>         0.5240
     14 O3          2.4567   -3.6181    4.5650 O.2       1 <0>        -0.5188
     15 N2          2.4941   -5.6696    3.7213 N.am      1 <0>        -0.7120
     16 C10         3.2342   -6.1801    4.8780 C.3       1 <0>         0.1368
     17 H2          3.9252   -5.4157    5.2334 H         1 <0>         0.1131
     18 C11         2.2515   -6.5381    5.9947 C.3       1 <0>        -0.1069
     19 C12         1.4658   -5.2901    6.4022 C.3       1 <0>        -0.1379
     20 C13         1.2815   -7.6111    5.4959 C.3       1 <0>        -0.1463
     21 C14         4.0080   -7.4094    4.4766 C.2       1 <0>         0.5325
     22 O4          3.9473   -7.8188    3.3366 O.2       1 <0>        -0.5380
     23 N3          4.7676   -8.0538    5.3845 N.am      1 <0>        -0.6013
     24 C15         4.9262   -7.6706    6.7992 C.3       1 <0>         0.0968
     25 C16         6.2883   -8.2744    7.2233 C.3       1 <0>        -0.1335
     26 C17         6.2883   -9.6182    6.4476 C.3       1 <0>        -0.1268
     27 C18         5.5701   -9.2590    5.1296 C.3       1 <0>         0.1392
     28 H3          6.3063   -9.0564    4.3518 H         1 <0>         0.0890
     29 C19         4.6583  -10.4101    4.7002 C.3       1 <0>         0.0623
     30 O5          3.7918  -10.7602    5.7813 O.3       1 <0>        -0.5666
     31 H4          2.7180    2.4254    3.5891 H         1 <0>         0.0527
     32 H5          4.2015    2.7165    2.6495 H         1 <0>         0.0520
     33 H6          2.6518    2.4646    1.8108 H         1 <0>         0.0528
     34 H7          4.0583    0.4248    1.7135 H         1 <0>         0.0590
     35 H8          4.1246    0.3856    3.4918 H         1 <0>         0.0600
     36 H9          1.6564    0.1637    3.5789 H         1 <0>         0.0596
     37 H10         1.5902    0.2029    1.8006 H         1 <0>         0.0585
     38 H11         2.9967   -1.8369    1.7032 H         1 <0>         0.0556
     39 H12         3.0630   -1.8761    3.4815 H         1 <0>         0.0786
     40 H13         0.6396   -2.1750    3.6103 H         1 <0>         0.0680
     41 H14         0.4897   -1.9880    1.8466 H         1 <0>         0.0795
     42 H15         0.2351   -5.6561    2.3458 H         1 <0>         0.1035
     43 H16        -0.5776   -4.3244    3.2027 H         1 <0>         0.1055
     44 H17        -2.3426   -5.1707    1.4566 H         1 <0>         0.4082
     45 H18        -3.4228   -4.5780   -0.4792 H         1 <0>         0.3886
     46 H19         2.2503   -6.2689    2.9986 H         1 <0>         0.4080
     47 H20         2.8021   -6.9179    6.8553 H         1 <0>         0.0882
     48 H21         0.7657   -5.5451    7.1978 H         1 <0>         0.0518
     49 H22         2.1568   -4.5257    6.7576 H         1 <0>         0.0658
     50 H23         0.9152   -4.9103    5.5416 H         1 <0>         0.0555
     51 H24         1.8412   -8.5002    5.2056 H         1 <0>         0.0560
     52 H25         0.5814   -7.8661    6.2915 H         1 <0>         0.0598
     53 H26         0.7308   -7.2313    4.6353 H         1 <0>         0.0542
     54 H27         4.9450   -6.5853    6.8985 H         1 <0>         0.0785
     55 H28         4.1205   -8.0934    7.3994 H         1 <0>         0.0793
     56 H29         7.1140   -7.6388    6.9035 H         1 <0>         0.0768
     57 H30         6.3222   -8.4445    8.2994 H         1 <0>         0.0878
     58 H31         7.3078   -9.9524    6.2553 H         1 <0>         0.0815
     59 H32         5.7286  -10.3782    6.9928 H         1 <0>         0.0913
     60 H33         4.0618  -10.1004    3.8421 H         1 <0>         0.0611
     61 H34         5.2662  -11.2729    4.4278 H         1 <0>         0.0544
     62 H35         3.1843  -11.4850    5.5795 H         1 <0>         0.3790
@<TRIPOS>BOND
     1    1    2 1
     2    1   31 1
     3    1   32 1
     4    1   33 1
     5    2    3 1
     6    2   34 1
     7    2   35 1
     8    3    4 1
     9    3   36 1
    10    3   37 1
    11    4    5 1
    12    4   38 1
    13    4   39 1
    14    5    6 1
    15    5   40 1
    16    5   41 1
    17    6    7 1
    18    6    8 1
    19    6   13 1
    20    8    9 1
    21    8   42 1
    22    8   43 1
    23    9   10 2
    24    9   11 am
    25   11   12 1
    26   11   44 1
    27   12   45 1
    28   13   14 2
    29   13   15 am
    30   15   16 1
    31   15   46 1
    32   16   17 1
    33   16   18 1
    34   16   21 1
    35   18   19 1
    36   18   20 1
    37   18   47 1
    38   19   48 1
    39   19   49 1
    40   19   50 1
    41   20   51 1
    42   20   52 1
    43   20   53 1
    44   21   22 2
    45   21   23 am
    46   23   27 1
    47   23   24 1
    48   24   25 1
    49   24   54 1
    50   24   55 1
    51   25   26 1
    52   25   56 1
    53   25   57 1
    54   26   27 1
    55   26   58 1
    56   26   59 1
    57   27   28 1
    58   27   29 1
    59   29   30 1
    60   29   60 1
    61   29   61 1
    62   30   62 1
@<TRIPOS>MOLECULE
ZINC01393715
   27    28     0     0     0
SMALL
USER_CHARGES
2-[(2R)-3-oxo-4H-1,4-benzothiazin-2-yl]acetohydrazide
@<TRIPOS>ATOM
      1 C1         -4.1140    2.9345    4.5668 C.ar      1 <0>        -0.0829
      2 C2         -3.2117    1.9712    4.9797 C.ar      1 <0>        -0.1252
      3 C3         -2.7014    1.0682    4.0652 C.ar      1 <0>        -0.0564
      4 C4         -3.0947    1.1327    2.7387 C.ar      1 <0>        -0.1439
      5 C5         -3.9990    2.1051    2.3130 C.ar      1 <0>         0.1540
      6 C6         -4.5076    3.0043    3.2453 C.ar      1 <0>        -0.1403
      7 N1         -4.3957    2.2092    0.9831 N.am      1 <0>        -0.6523
      8 C7         -3.7941    1.6640   -0.0690 C.2       1 <0>         0.5286
      9 O1         -4.3299    1.7587   -1.1531 O.2       1 <0>        -0.5066
     10 C8         -2.4789    0.9344    0.0189 C.3       1 <0>        -0.0827
     11 H1         -2.3734    0.2594   -0.8305 H         1 <0>         0.1596
     12 S1         -2.4528   -0.0216    1.5664 S.3       1 <0>        -0.0395
     13 C9         -1.3296    1.9443    0.0189 C.3       1 <0>        -0.1270
     14 C10        -0.0144    1.2086    0.0087 C.2       1 <0>         0.5209
     15 O2          0.0021   -0.0041    0.0020 O.2       1 <0>        -0.5059
     16 N2          1.1435    1.8983    0.0013 N.am      1 <0>        -0.5779
     17 N3          2.3356    1.2315   -0.0136 N.3       1 <0>        -0.6014
     18 H2         -4.5132    3.6374    5.2831 H         1 <0>         0.1337
     19 H3         -2.9059    1.9244    6.0145 H         1 <0>         0.1346
     20 H4         -1.9977    0.3138    4.3847 H         1 <0>         0.1379
     21 H5         -5.2129    3.7606    2.9336 H         1 <0>         0.1331
     22 H6         -5.1927    2.7330    0.8061 H         1 <0>         0.4148
     23 H7         -1.3916    2.5653    0.9126 H         1 <0>         0.1038
     24 H8         -1.4000    2.5749   -0.8673 H         1 <0>         0.1126
     25 H9          1.1304    2.8682    0.0067 H         1 <0>         0.4010
     26 H10         2.3869    0.6000   -0.7989 H         1 <0>         0.3482
     27 H11         3.1110    1.8771   -0.0176 H         1 <0>         0.3590
@<TRIPOS>BOND
     1    1    6 ar
     2    1    2 ar
     3    1   18 1
     4    2    3 ar
     5    2   19 1
     6    3    4 ar
     7    3   20 1
     8    4   12 1
     9    4    5 ar
    10    5    6 ar
    11    5    7 1
    12    6   21 1
    13    7    8 am
    14    7   22 1
    15    8    9 2
    16    8   10 1
    17   10   11 1
    18   10   12 1
    19   10   13 1
    20   13   14 1
    21   13   23 1
    22   13   24 1
    23   14   15 2
    24   14   16 am
    25   16   17 1
    26   16   25 1
    27   17   26 1
    28   17   27 1
@<TRIPOS>MOLECULE
ZINC01393716
   27    28     0     0     0
SMALL
USER_CHARGES
2-[(2S)-3-oxo-4H-1,4-benzothiazin-2-yl]acetohydrazide
@<TRIPOS>ATOM
      1 C1         -1.2196    1.7461    0.0173 C.ar      1 <0>        -0.0830
      2 C2         -1.2532    3.1287    0.0301 C.ar      1 <0>        -0.1248
      3 C3         -0.0713    3.8462    0.0173 C.ar      1 <0>        -0.0569
      4 C4          1.1420    3.1785   -0.0030 C.ar      1 <0>        -0.1438
      5 C5          1.1844    1.7837    0.0003 C.ar      1 <0>         0.1535
      6 C6         -0.0126    1.0758    0.0080 C.ar      1 <0>        -0.1399
      7 N1          2.3890    1.0874   -0.0217 N.am      1 <0>        -0.6522
      8 C7          3.5923    1.5724    0.2661 C.2       1 <0>         0.5287
      9 O1          4.5583    0.8587    0.0968 O.2       1 <0>        -0.5065
     10 C8          3.8139    2.9667    0.7927 C.3       1 <0>        -0.0830
     11 H1          4.8385    3.2776    0.5885 H         1 <0>         0.1595
     12 S1          2.6543    4.0890   -0.0468 S.3       1 <0>        -0.0387
     13 C9          3.5579    2.9953    2.3009 C.3       1 <0>        -0.1268
     14 C10         3.8749    4.3671    2.8383 C.2       1 <0>         0.5208
     15 O2          4.2669    5.2363    2.0888 O.2       1 <0>        -0.5059
     16 N2          3.7226    4.6280    4.1517 N.am      1 <0>        -0.5778
     17 N3          4.0100    5.8715    4.6388 N.3       1 <0>        -0.6014
     18 H2         -2.1437    1.1870    0.0189 H         1 <0>         0.1338
     19 H3         -2.2006    3.6468    0.0458 H         1 <0>         0.1346
     20 H4         -0.0942    4.9260    0.0236 H         1 <0>         0.1377
     21 H5          0.0021   -0.0041    0.0020 H         1 <0>         0.1329
     22 H6          2.3459    0.1514   -0.2728 H         1 <0>         0.4147
     23 H7          2.5114    2.7615    2.4963 H         1 <0>         0.1038
     24 H8          4.1928    2.2574    2.7913 H         1 <0>         0.1126
     25 H9          3.4091    3.9329    4.7512 H         1 <0>         0.4010
     26 H10         3.8488    5.9162    5.6339 H         1 <0>         0.3590
     27 H11         4.9566    6.1382    4.4135 H         1 <0>         0.3482
@<TRIPOS>BOND
     1    1    6 ar
     2    1    2 ar
     3    1   18 1
     4    2    3 ar
     5    2   19 1
     6    3    4 ar
     7    3   20 1
     8    4   12 1
     9    4    5 ar
    10    5    6 ar
    11    5    7 1
    12    6   21 1
    13    7    8 am
    14    7   22 1
    15    8    9 2
    16    8   10 1
    17   10   11 1
    18   10   12 1
    19   10   13 1
    20   13   14 1
    21   13   23 1
    22   13   24 1
    23   14   15 2
    24   14   16 am
    25   16   17 1
    26   16   25 1
    27   17   26 1
    28   17   27 1
@<TRIPOS>MOLECULE
ZINC00126407
   26    27     0     0     0
SMALL
USER_CHARGES
2-[(2R)-3-oxo-4H-1,4-benzothiazin-2-yl]ethanehydroxamic acid
@<TRIPOS>ATOM
      1 C1         -4.1140    2.9345    4.5668 C.ar      1 <0>        -0.0823
      2 C2         -3.2117    1.9712    4.9797 C.ar      1 <0>        -0.1251
      3 C3         -2.7014    1.0682    4.0652 C.ar      1 <0>        -0.0567
      4 C4         -3.0947    1.1327    2.7387 C.ar      1 <0>        -0.1451
      5 C5         -3.9990    2.1051    2.3130 C.ar      1 <0>         0.1544
      6 C6         -4.5076    3.0043    3.2453 C.ar      1 <0>        -0.1398
      7 N1         -4.3957    2.2092    0.9831 N.am      1 <0>        -0.6522
      8 C7         -3.7941    1.6640   -0.0690 C.2       1 <0>         0.5294
      9 O1         -4.3299    1.7587   -1.1531 O.2       1 <0>        -0.5039
     10 C8         -2.4789    0.9344    0.0189 C.3       1 <0>        -0.0843
     11 H1         -2.3734    0.2594   -0.8305 H         1 <0>         0.1623
     12 S1         -2.4528   -0.0216    1.5664 S.3       1 <0>        -0.0403
     13 C9         -1.3296    1.9443    0.0189 C.3       1 <0>        -0.1199
     14 C10        -0.0144    1.2086    0.0087 C.2       1 <0>         0.5309
     15 O2          0.0021   -0.0041    0.0020 O.2       1 <0>        -0.4974
     16 N2          1.1435    1.8983    0.0013 N.am      1 <0>        -0.5961
     17 O3          2.3793    1.2071   -0.0142 O.3       1 <0>        -0.3132
     18 H2         -4.5132    3.6374    5.2831 H         1 <0>         0.1341
     19 H3         -2.9059    1.9244    6.0145 H         1 <0>         0.1348
     20 H4         -1.9977    0.3138    4.3847 H         1 <0>         0.1378
     21 H5         -5.2129    3.7606    2.9336 H         1 <0>         0.1337
     22 H6         -5.1927    2.7330    0.8061 H         1 <0>         0.4156
     23 H7         -1.3916    2.5653    0.9126 H         1 <0>         0.1068
     24 H8         -1.4000    2.5749   -0.8673 H         1 <0>         0.1187
     25 H9          1.1304    2.8682    0.0067 H         1 <0>         0.4084
     26 H10         3.1538    1.7861   -0.0185 H         1 <0>         0.3894
@<TRIPOS>BOND
     1    1    6 ar
     2    1    2 ar
     3    1   18 1
     4    2    3 ar
     5    2   19 1
     6    3    4 ar
     7    3   20 1
     8    4   12 1
     9    4    5 ar
    10    5    6 ar
    11    5    7 1
    12    6   21 1
    13    7    8 am
    14    7   22 1
    15    8    9 2
    16    8   10 1
    17   10   11 1
    18   10   12 1
    19   10   13 1
    20   13   14 1
    21   13   23 1
    22   13   24 1
    23   14   15 2
    24   14   16 am
    25   16   17 1
    26   16   25 1
    27   17   26 1
@<TRIPOS>MOLECULE
ZINC00126410
   26    27     0     0     0
SMALL
USER_CHARGES
2-[(2S)-3-oxo-4H-1,4-benzothiazin-2-yl]ethanehydroxamic acid
@<TRIPOS>ATOM
      1 C1         -1.2196    1.7461    0.0173 C.ar      1 <0>        -0.0824
      2 C2         -1.2532    3.1287    0.0301 C.ar      1 <0>        -0.1248
      3 C3         -0.0713    3.8462    0.0173 C.ar      1 <0>        -0.0572
      4 C4          1.1420    3.1785   -0.0030 C.ar      1 <0>        -0.1450
      5 C5          1.1844    1.7837    0.0003 C.ar      1 <0>         0.1540
      6 C6         -0.0126    1.0758    0.0080 C.ar      1 <0>        -0.1395
      7 N1          2.3890    1.0874   -0.0217 N.am      1 <0>        -0.6521
      8 C7          3.5923    1.5724    0.2661 C.2       1 <0>         0.5295
      9 O1          4.5583    0.8587    0.0968 O.2       1 <0>        -0.5038
     10 C8          3.8139    2.9667    0.7927 C.3       1 <0>        -0.0846
     11 H1          4.8385    3.2776    0.5885 H         1 <0>         0.1622
     12 S1          2.6543    4.0890   -0.0468 S.3       1 <0>        -0.0395
     13 C9          3.5579    2.9953    2.3009 C.3       1 <0>        -0.1197
     14 C10         3.8749    4.3671    2.8383 C.2       1 <0>         0.5308
     15 O2          4.2669    5.2363    2.0888 O.2       1 <0>        -0.4975
     16 N2          3.7226    4.6280    4.1517 N.am      1 <0>        -0.5961
     17 O3          4.0205    5.9170    4.6567 O.3       1 <0>        -0.3132
     18 H2         -2.1437    1.1870    0.0189 H         1 <0>         0.1342
     19 H3         -2.2006    3.6468    0.0458 H         1 <0>         0.1348
     20 H4         -0.0942    4.9260    0.0236 H         1 <0>         0.1376
     21 H5          0.0021   -0.0041    0.0020 H         1 <0>         0.1335
     22 H6          2.3459    0.1514   -0.2728 H         1 <0>         0.4154
     23 H7          2.5114    2.7615    2.4963 H         1 <0>         0.1069
     24 H8          4.1928    2.2574    2.7913 H         1 <0>         0.1187
     25 H9          3.4091    3.9329    4.7512 H         1 <0>         0.4084
     26 H10         3.8807    6.0082    5.6092 H         1 <0>         0.3894
@<TRIPOS>BOND
     1    1    6 ar
     2    1    2 ar
     3    1   18 1
     4    2    3 ar
     5    2   19 1
     6    3    4 ar
     7    3   20 1
     8    4   12 1
     9    4    5 ar
    10    5    6 ar
    11    5    7 1
    12    6   21 1
    13    7    8 am
    14    7   22 1
    15    8    9 2
    16    8   10 1
    17   10   11 1
    18   10   12 1
    19   10   13 1
    20   13   14 1
    21   13   23 1
    22   13   24 1
    23   14   15 2
    24   14   16 am
    25   16   17 1
    26   16   25 1
    27   17   26 1
@<TRIPOS>MOLECULE
ZINC29311776
   29    30     0     0     0
SMALL
USER_CHARGES
N-methoxy-2-[(2S)-3-oxo-4H-1,4-benzothiazin-2-yl]acetamide
@<TRIPOS>ATOM
      1 C1          0.3896   -4.7090    3.8776 C.3       1 <0>        -0.0021
      2 O1          0.1936   -4.1199    2.5905 O.3       1 <0>        -0.1446
      3 N1          0.2899   -2.7072    2.5830 N.am      1 <0>        -0.6096
      4 C2          0.1252   -2.0266    1.4315 C.2       1 <0>         0.5308
      5 O2         -0.1055   -2.6242    0.4016 O.2       1 <0>        -0.5036
      6 C3          0.2276   -0.5231    1.4235 C.3       1 <0>        -0.1250
      7 C4          0.0021   -0.0041    0.0020 C.3       1 <0>        -0.0913
      8 H1         -1.0335   -0.2933   -0.2300 H         1 <0>         0.1635
      9 C5         -0.0184    1.5024    0.0103 C.2       1 <0>         0.5303
     10 O3         -1.0931    2.0647    0.0183 O.2       1 <0>        -0.5097
     11 N2          1.0836    2.2452    0.0038 N.am      1 <0>        -0.6673
     12 C6          2.3918    1.7893   -0.1282 C.ar      1 <0>         0.1569
     13 C7          3.4422    2.6264    0.2359 C.ar      1 <0>        -0.1425
     14 C8          4.7481    2.1904    0.1324 C.ar      1 <0>        -0.0823
     15 C9          5.0279    0.9185   -0.3331 C.ar      1 <0>        -0.1278
     16 C10         3.9944    0.0770   -0.7019 C.ar      1 <0>        -0.0559
     17 C11         2.6827    0.5106   -0.6023 C.ar      1 <0>        -0.1484
     18 S1          1.3579   -0.5558   -1.0781 S.3       1 <0>        -0.0234
     19 H2          0.2994   -5.8024    3.7980 H         1 <0>         0.1138
     20 H3         -0.3711   -4.3281    4.5749 H         1 <0>         0.0569
     21 H4          1.3915   -4.4500    4.2507 H         1 <0>         0.0571
     22 H5          0.4991   -2.1652    3.5171 H         1 <0>         0.4274
     23 H6         -0.5353   -0.1001    2.0936 H         1 <0>         0.1167
     24 H7          1.2273   -0.2218    1.7696 H         1 <0>         0.1040
     25 H8          1.0112    3.3376    0.1103 H         1 <0>         0.4395
     26 H9          3.2350    3.6217    0.6002 H         1 <0>         0.1333
     27 H10         5.5568    2.8470    0.4173 H         1 <0>         0.1329
     28 H11         6.0518    0.5832   -0.4089 H         1 <0>         0.1338
     29 H12         4.2096   -0.9165   -1.0665 H         1 <0>         0.1368
@<TRIPOS>BOND
     1    1    2 1
     2    1   19 1
     3    1   20 1
     4    1   21 1
     5    2    3 1
     6    3    4 am
     7    3   22 1
     8    4    5 2
     9    4    6 1
    10    6    7 1
    11    6   23 1
    12    6   24 1
    13    7    8 1
    14    7   18 1
    15    7    9 1
    16    9   10 2
    17    9   11 am
    18   11   12 1
    19   11   25 1
    20   12   17 ar
    21   12   13 ar
    22   13   14 ar
    23   13   26 1
    24   14   15 ar
    25   14   27 1
    26   15   16 ar
    27   15   28 1
    28   16   17 ar
    29   16   29 1
    30   17   18 1
@<TRIPOS>MOLECULE
ZINC29311781
   29    30     0     0     0
SMALL
USER_CHARGES
N-methoxy-2-[(2R)-3-oxo-4H-1,4-benzothiazin-2-yl]acetamide
@<TRIPOS>ATOM
      1 C1         -1.3040   -0.5842    5.9404 C.3       1 <0>        -0.0021
      2 O1         -1.5666   -0.1456    4.6060 O.3       1 <0>        -0.1446
      3 N1         -0.5600   -0.4991    3.6749 N.am      1 <0>        -0.6097
      4 C2         -0.6851   -0.1455    2.3804 C.2       1 <0>         0.5307
      5 O2         -1.6598    0.4756    2.0130 O.2       1 <0>        -0.5028
      6 C3          0.3862   -0.5218    1.3896 C.3       1 <0>        -0.1252
      7 C4          0.0021   -0.0041    0.0020 C.3       1 <0>        -0.0915
      8 H1         -0.9101   -0.5633   -0.2533 H         1 <0>         0.1635
      9 C5          1.0211   -0.4604   -1.0098 C.2       1 <0>         0.5305
     10 O3          0.7699   -1.4384   -1.6818 O.2       1 <0>        -0.5098
     11 N2          2.1822    0.1574   -1.2008 N.am      1 <0>        -0.6672
     12 C6          2.5988    1.3461   -0.6093 C.ar      1 <0>         0.1561
     13 C7          3.9461    1.6892   -0.6429 C.ar      1 <0>        -0.1421
     14 C8          4.3824    2.8611   -0.0575 C.ar      1 <0>        -0.0826
     15 C9          3.4843    3.7125    0.5600 C.ar      1 <0>        -0.1274
     16 C10         2.1390    3.3939    0.5848 C.ar      1 <0>        -0.0564
     17 C11         1.6959    2.2202   -0.0022 C.ar      1 <0>        -0.1485
     18 S1         -0.0226    1.8149    0.0120 S.3       1 <0>        -0.0221
     19 H2         -2.1285   -0.2716    6.5980 H         1 <0>         0.1138
     20 H3         -0.3631   -0.1379    6.2946 H         1 <0>         0.0570
     21 H4         -1.2183   -1.6807    5.9557 H         1 <0>         0.0569
     22 H5          0.3241   -1.0624    4.0081 H         1 <0>         0.4273
     23 H6          1.3429   -0.0738    1.6962 H         1 <0>         0.1037
     24 H7          0.4876   -1.6166    1.3574 H         1 <0>         0.1169
     25 H8          2.9273   -0.2718   -1.8869 H         1 <0>         0.4393
     26 H9          4.6549    1.0353   -1.1292 H         1 <0>         0.1331
     27 H10         5.4319    3.1147   -0.0824 H         1 <0>         0.1330
     28 H11         3.8330    4.6244    1.0217 H         1 <0>         0.1338
     29 H12         1.4344    4.0594    1.0613 H         1 <0>         0.1365
@<TRIPOS>BOND
     1    1    2 1
     2    1   19 1
     3    1   20 1
     4    1   21 1
     5    2    3 1
     6    3    4 am
     7    3   22 1
     8    4    5 2
     9    4    6 1
    10    6    7 1
    11    6   23 1
    12    6   24 1
    13    7    8 1
    14    7   18 1
    15    7    9 1
    16    9   10 2
    17    9   11 am
    18   11   12 1
    19   11   25 1
    20   12   17 ar
    21   12   13 ar
    22   13   14 ar
    23   13   26 1
    24   14   15 ar
    25   14   27 1
    26   15   16 ar
    27   15   28 1
    28   16   17 ar
    29   16   29 1
    30   17   18 1
