@<TRIPOS>MOLECULE
ZINC49109990
   52    54     0     0     0
SMALL
USER_CHARGES

@<TRIPOS>ATOM
      1 C1         -0.0167    1.3786    0.0096 C.ar      1 <0>        -0.1133
      2 C2          1.1696    2.0890    0.0021 C.ar      1 <0>        -0.0948
      3 C3          2.3774    1.4191   -0.0134 C.ar      1 <0>        -0.1059
      4 C4          2.3995    0.0308   -0.0211 C.ar      1 <0>         0.1325
      5 C5          1.2066   -0.6797   -0.0130 C.ar      1 <0>        -0.1284
      6 C6          0.0021   -0.0041    0.0020 C.ar      1 <0>        -0.0928
      7 N1          3.6234   -0.6519   -0.0373 N.pl3     1 <0>        -0.2845
      8 C7          3.7783   -1.9883   -0.0514 C.2       1 <0>         0.1087
      9 C8          5.1346   -2.2460   -0.0645 C.2       1 <0>        -0.2417
     10 C9          5.7969   -0.9975   -0.0577 C.2       1 <0>         0.0451
     11 N2          4.8908   -0.0588   -0.0477 N.2       1 <0>        -0.2271
     12 C10         7.2891   -0.7872   -0.0675 C.3       1 <0>         0.5540
     13 F1          7.7405   -0.7094   -1.3894 F         1 <0>        -0.1642
     14 F2          7.5967    0.4026    0.6011 F         1 <0>        -0.1683
     15 F3          7.9155   -1.8595    0.5768 F         1 <0>        -0.1353
     16 C11         5.7726   -3.5748   -0.0819 C.2       1 <0>         0.5913
     17 O1          6.9851   -3.6671   -0.0920 O.2       1 <0>        -0.5100
     18 N3          5.0120   -4.6875   -0.0867 N.am      1 <0>        -0.7239
     19 C12         5.6460   -6.0081   -0.1040 C.3       1 <0>         0.1096
     20 C13         4.5664   -7.0922   -0.1061 C.3       1 <0>         0.1090
     21 N4          5.2004   -8.4127   -0.1234 N.am      1 <0>        -0.7243
     22 C14         4.4398   -9.5254   -0.1281 C.2       1 <0>         0.5740
     23 O2          3.2276   -9.4332   -0.1181 O.2       1 <0>        -0.5290
     24 C15         5.0787  -10.8560   -0.1455 C.ar      1 <0>        -0.2245
     25 C16         4.2971  -12.0209   -0.1565 C.ar      1 <0>         0.0224
     26 C17         4.9402  -13.2413   -0.1726 C.ar      1 <0>        -0.1848
     27 C18         6.3314  -13.2772   -0.1774 C.ar      1 <0>         0.3472
     28 N5          7.0414  -12.1596   -0.1668 N.ar      1 <0>        -0.5424
     29 C19         6.4689  -10.9740   -0.1572 C.ar      1 <0>         0.1830
     30 O3          6.9685  -14.4730   -0.1928 O.3       1 <0>        -0.2863
     31 C20         8.3972  -14.4468   -0.1971 C.3       1 <0>         0.0250
     32 C21         8.9335  -15.8796   -0.2147 C.3       1 <0>         0.4634
     33 F4          8.4756  -16.5348   -1.3629 F         1 <0>        -0.1731
     34 F5         10.3322  -15.8540   -0.2189 F         1 <0>        -0.1681
     35 F6          8.4829  -16.5602    0.9215 F         1 <0>        -0.1731
     36 H1         -0.9598    1.9047    0.0260 H         1 <0>         0.1347
     37 H2          1.1518    3.1689    0.0080 H         1 <0>         0.1383
     38 H3          3.3036    1.9745   -0.0200 H         1 <0>         0.1422
     39 H4          1.2206   -1.7596   -0.0193 H         1 <0>         0.1338
     40 H5         -0.9261   -0.5562    0.0082 H         1 <0>         0.1393
     41 H6          2.9875   -2.7238   -0.0517 H         1 <0>         0.1996
     42 H7          4.0448   -4.6139   -0.0787 H         1 <0>         0.4003
     43 H8          6.2597   -6.1048   -0.9996 H         1 <0>         0.0808
     44 H9          6.2732   -6.1216    0.7802 H         1 <0>         0.0810
     45 H10         3.9527   -6.9955    0.7895 H         1 <0>         0.0795
     46 H11         3.9392   -6.9786   -0.9903 H         1 <0>         0.0795
     47 H12         6.1676   -8.4863   -0.1314 H         1 <0>         0.4035
     48 H13         3.2186  -11.9638   -0.1520 H         1 <0>         0.1601
     49 H14         4.3703  -14.1587   -0.1810 H         1 <0>         0.1562
     50 H15         7.0812  -10.0844   -0.1538 H         1 <0>         0.1665
     51 H16         8.7483  -13.9165   -1.0823 H         1 <0>         0.1177
     52 H17         8.7539  -13.9364    0.6975 H         1 <0>         0.1176
@<TRIPOS>BOND
     1    1    6 ar
     2    1    2 ar
     3    1   36 1
     4    2    3 ar
     5    2   37 1
     6    3    4 ar
     7    3   38 1
     8    4    5 ar
     9    4    7 1
    10    5    6 ar
    11    5   39 1
    12    6   40 1
    13    7   11 1
    14    7    8 1
    15    8    9 2
    16    8   41 1
    17    9   10 1
    18    9   16 1
    19   10   11 2
    20   10   12 1
    21   12   13 1
    22   12   14 1
    23   12   15 1
    24   16   17 2
    25   16   18 am
    26   18   19 1
    27   18   42 1
    28   19   20 1
    29   19   43 1
    30   19   44 1
    31   20   21 1
    32   20   45 1
    33   20   46 1
    34   21   22 am
    35   21   47 1
    36   22   23 2
    37   22   24 1
    38   24   29 ar
    39   24   25 ar
    40   25   26 ar
    41   25   48 1
    42   26   27 ar
    43   26   49 1
    44   27   28 ar
    45   27   30 1
    46   28   29 ar
    47   29   50 1
    48   30   31 1
    49   31   32 1
    50   31   51 1
    51   31   52 1
    52   32   33 1
    53   32   34 1
    54   32   35 1
@<TRIPOS>MOLECULE
ZINC14974393
   55    58     0     0     0
SMALL
USER_CHARGES
(1R,2R)-2-[4-[4-(phenylcarbamoylamino)phenyl]benzoyl]cyclopentane-1-carboxylic acid
@<TRIPOS>ATOM
      1 C1          0.2523    3.6149   -2.3898 C.ar      1 <0>        -0.1352
      2 C2          1.0698    3.3308   -1.3113 C.ar      1 <0>        -0.1024
      3 C3          1.0135    2.0894   -0.7084 C.ar      1 <0>        -0.1462
      4 C4          0.1351    1.1261   -1.1867 C.ar      1 <0>         0.1591
      5 C5         -0.6801    1.4125   -2.2739 C.ar      1 <0>        -0.1184
      6 C6         -0.6235    2.6578   -2.8685 C.ar      1 <0>        -0.1015
      7 N1          0.0756   -0.1326   -0.5781 N.am      1 <0>        -0.6831
      8 C7         -1.1017   -0.7825   -0.4877 C.2       1 <0>         0.7035
      9 O1         -2.0958   -0.3148   -1.0086 O.2       1 <0>        -0.5520
     10 N2         -1.1770   -1.9508    0.1800 N.am      1 <0>        -0.6794
     11 C8         -2.3732   -2.6725    0.1923 C.ar      1 <0>         0.1555
     12 C9         -3.5895   -1.9995    0.2160 C.ar      1 <0>        -0.1152
     13 C10        -4.7709   -2.7089    0.2233 C.ar      1 <0>        -0.0889
     14 C11        -4.7455   -4.1039    0.2181 C.ar      1 <0>        -0.0550
     15 C12        -3.5235   -4.7768    0.1997 C.ar      1 <0>        -0.0884
     16 C13        -2.3451   -4.0625    0.1866 C.ar      1 <0>        -0.1410
     17 C14        -6.0138   -4.8691    0.2316 C.ar      1 <0>        -0.0244
     18 C15        -5.9859   -6.2650    0.2202 C.ar      1 <0>        -0.1242
     19 C16        -7.1539   -6.9726    0.2384 C.ar      1 <0>        -0.0626
     20 C17        -8.3804   -6.2970    0.2569 C.ar      1 <0>        -0.1499
     21 C18        -8.4061   -4.8968    0.2626 C.ar      1 <0>        -0.0617
     22 C19        -7.2355   -4.1933    0.2501 C.ar      1 <0>        -0.1245
     23 C20        -9.6384   -7.0560    0.2709 C.2       1 <0>         0.4094
     24 O2        -10.7002   -6.4699    0.2873 O.2       1 <0>        -0.4519
     25 C21        -9.6095   -8.5627    0.2647 C.3       1 <0>        -0.1124
     26 H1         -8.8347   -8.8835    0.8095 H         1 <0>         0.0975
     27 C22        -9.5290   -9.0953   -1.1808 C.3       1 <0>        -0.1083
     28 C23       -10.4057  -10.3588   -1.2332 C.3       1 <0>        -0.1210
     29 C24       -10.9883  -10.5499    0.1824 C.3       1 <0>        -0.0999
     30 C25       -10.9442   -9.1327    0.8058 C.3       1 <0>        -0.1213
     31 H2        -11.7875   -8.5334    0.4628 H         1 <0>         0.0865
     32 C26       -10.9202   -9.2118    2.3106 C.2       1 <0>         0.4697
     33 O3         -9.9400   -8.8524    2.9188 O.co2     1 <0>        -0.6413
     34 H3          0.2982    4.5863   -2.8596 H         1 <0>         0.1228
     35 H4          1.7527    4.0804   -0.9398 H         1 <0>         0.1258
     36 H5          1.6522    1.8681    0.1339 H         1 <0>         0.1244
     37 H6         -1.3610    0.6638   -2.6510 H         1 <0>         0.1412
     38 H7         -1.2606    2.8828   -3.7110 H         1 <0>         0.1259
     39 H8          0.8816   -0.5373   -0.2212 H         1 <0>         0.4081
     40 H9         -0.4007   -2.2905    0.6520 H         1 <0>         0.4082
     41 H10        -3.6085   -0.9197    0.2249 H         1 <0>         0.1420
     42 H11        -5.7155   -2.1855    0.2372 H         1 <0>         0.1311
     43 H12        -3.5010   -5.8566    0.1952 H         1 <0>         0.1331
     44 H13        -1.3989   -4.5830    0.1723 H         1 <0>         0.1272
     45 H14        -5.0398   -6.7856    0.2015 H         1 <0>         0.1294
     46 H15        -7.1318   -8.0524    0.2344 H         1 <0>         0.1360
     47 H16        -9.3509   -4.3737    0.2772 H         1 <0>         0.1340
     48 H17        -7.2549   -3.1135    0.2548 H         1 <0>         0.1286
     49 H18        -9.9102   -8.3473   -1.8761 H         1 <0>         0.0614
     50 H19        -8.4977   -9.3450   -1.4299 H         1 <0>         0.0663
     51 H20       -11.2123  -10.2240   -1.9539 H         1 <0>         0.0616
     52 H21        -9.8001  -11.2223   -1.5082 H         1 <0>         0.0614
     53 H22       -12.0155  -10.9104    0.1267 H         1 <0>         0.0673
     54 H23       -10.3730  -11.2415    0.7580 H         1 <0>         0.0623
     55 O4        -11.9877   -9.6814    2.9751 O.co2     1 <0>        -0.7691
@<TRIPOS>BOND
     1    1    6 ar
     2    1    2 ar
     3    1   34 1
     4    2    3 ar
     5    2   35 1
     6    3    4 ar
     7    3   36 1
     8    4    5 ar
     9    4    7 1
    10    5    6 ar
    11    5   37 1
    12    6   38 1
    13    7    8 am
    14    7   39 1
    15    8    9 2
    16    8   10 am
    17   10   11 1
    18   10   40 1
    19   11   16 ar
    20   11   12 ar
    21   12   13 ar
    22   12   41 1
    23   13   14 ar
    24   13   42 1
    25   14   15 ar
    26   14   17 1
    27   15   16 ar
    28   15   43 1
    29   16   44 1
    30   17   22 ar
    31   17   18 ar
    32   18   19 ar
    33   18   45 1
    34   19   20 ar
    35   19   46 1
    36   20   21 ar
    37   20   23 1
    38   21   22 ar
    39   21   47 1
    40   22   48 1
    41   23   24 2
    42   23   25 1
    43   25   26 1
    44   25   30 1
    45   25   27 1
    46   27   28 1
    47   27   49 1
    48   27   50 1
    49   28   29 1
    50   28   51 1
    51   28   52 1
    52   29   30 1
    53   29   53 1
    54   29   54 1
    55   30   31 1
    56   30   32 1
    57   32   33 2
    58   32   55 1
