@<TRIPOS>MOLECULE
ZINC02496760
   18    19     0     0     0
SMALL
USER_CHARGES
2,3-dioxoindoline-7-carboxylic acid
@<TRIPOS>ATOM
      1 C1          0.0991    5.1900    0.0295 C.ar      1 <0>        -0.1751
      2 C2          1.3142    5.8505    0.0210 C.ar      1 <0>        -0.0059
      3 C3          2.5032    5.1241    0.0057 C.ar      1 <0>        -0.2662
      4 C4          2.4791    3.7195   -0.0016 C.ar      1 <0>         0.2250
      5 C5          1.2383    3.0638    0.0067 C.ar      1 <0>        -0.1477
      6 C6          0.0564    3.8109    0.0162 C.ar      1 <0>        -0.0014
      7 C7          1.1812    1.5909   -0.0007 C.2       1 <0>         0.4943
      8 O1          2.2091    0.9430   -0.0140 O.co2     1 <0>        -0.6330
      9 N1          3.7748    3.2289   -0.0167 N.am      1 <0>        -0.6293
     10 C8          4.6796    4.2230   -0.0200 C.2       1 <0>         0.4890
     11 O2          5.8858    4.0953   -0.0318 O.2       1 <0>        -0.4658
     12 C9          3.9244    5.5192   -0.0057 C.2       1 <0>         0.3958
     13 O3          4.3813    6.6434   -0.0044 O.2       1 <0>        -0.3892
     14 H1         -0.8204    5.7562    0.0417 H         1 <0>         0.1340
     15 H2          1.3415    6.9301    0.0266 H         1 <0>         0.1322
     16 H3         -0.8975    3.3045    0.0181 H         1 <0>         0.1470
     17 H4          4.0007    2.2857   -0.0242 H         1 <0>         0.4383
     18 O4         -0.0110    0.9628    0.0073 O.co2     1 <0>        -0.7421
@<TRIPOS>BOND
     1    1    6 ar
     2    1    2 ar
     3    1   14 1
     4    2    3 ar
     5    2   15 1
     6    3   12 1
     7    3    4 ar
     8    4    5 ar
     9    4    9 1
    10    5    6 ar
    11    5    7 1
    12    6   16 1
    13    7    8 2
    14    7   18 1
    15    9   10 am
    16    9   17 1
    17   10   11 2
    18   10   12 1
    19   12   13 2
@<TRIPOS>MOLECULE
ZINC00109304
   15    15     0     0     0
SMALL
USER_CHARGES
5-methylsulfanylthiophene-2-carboxylic acid
@<TRIPOS>ATOM
      1 C1          4.8879    1.1806   -0.0380 C.3       1 <0>        -0.1570
      2 S1          4.0438   -0.4205   -0.0380 S.3       1 <0>        -0.0351
      3 C2          2.3662    0.1180   -0.0199 C.2       1 <0>        -0.2274
      4 C3          1.2091   -0.6423   -0.0129 C.2       1 <0>        -0.1253
      5 C4          0.0021   -0.0041    0.0020 C.2       1 <0>        -0.1396
      6 C5         -0.0168    1.3853    0.0097 C.2       1 <0>        -0.1331
      7 S2          1.7235    1.7834   -0.0048 S.3       1 <0>         0.1131
      8 C6         -1.1284    2.2591    0.0199 C.2       1 <0>         0.5158
      9 O1         -2.2584    1.8064    0.0231 O.co2     1 <0>        -0.6147
     10 H1          5.9663    1.0228   -0.0487 H         1 <0>         0.1067
     11 H2          4.5946    1.7460   -0.9225 H         1 <0>         0.0873
     12 H3          4.6110    1.7373    0.8573 H         1 <0>         0.0873
     13 H4          1.2603   -1.7210   -0.0189 H         1 <0>         0.1285
     14 H5         -0.9192   -0.5677    0.0081 H         1 <0>         0.1398
     15 O2         -0.9365    3.5954    0.0262 O.co2     1 <0>        -0.7461
@<TRIPOS>BOND
     1    1    2 1
     2    1   10 1
     3    1   11 1
     4    1   12 1
     5    2    3 1
     6    3    7 1
     7    3    4 2
     8    4    5 1
     9    4   13 1
    10    5    6 2
    11    5   14 1
    12    6    7 1
    13    6    8 1
    14    8    9 2
    15    8   15 1
@<TRIPOS>MOLECULE
ZINC39775397
   40    41     0     0     0
SMALL
USER_CHARGES

@<TRIPOS>ATOM
      1 C1          4.0883    0.8600    0.2169 C.3       1 <0>        -0.1292
      2 C2          3.5262   -0.5378    0.1821 C.ar      1 <0>        -0.0831
      3 C3          3.1170   -1.0878   -1.0197 C.ar      1 <0>        -0.0401
      4 C4          2.6008   -2.3693   -1.0545 C.ar      1 <0>        -0.1430
      5 C5          2.4933   -3.1054    0.1184 C.ar      1 <0>         0.2248
      6 C6          2.9054   -2.5508    1.3234 C.ar      1 <0>        -0.1540
      7 C7          3.4257   -1.2708    1.3513 C.ar      1 <0>        -0.0401
      8 Br1         3.9935   -0.5174    2.9902 Br        1 <0>        -0.0323
      9 N1          1.9716   -4.4006    0.0864 N.pl3     1 <0>        -0.7295
     10 C8          1.8589   -5.1757    1.3244 C.3       1 <0>         0.1070
     11 C9          1.2705   -6.5289    1.0181 C.2       1 <0>         0.5270
     12 O1          0.9743   -6.8174   -0.1224 O.2       1 <0>        -0.4857
     13 N2          1.0732   -7.4184    2.0112 N.am      1 <0>        -0.5924
     14 N3          0.5262   -8.6764    1.7264 N.2       1 <0>        -0.2023
     15 C10         0.2363   -9.4921    2.6935 C.2       1 <0>         0.1182
     16 C11         0.2382   -9.0129    4.0872 C.ar      1 <0>        -0.1333
     17 C12         0.0127   -7.6629    4.3660 C.ar      1 <0>        -0.0574
     18 C13         0.0153   -7.2211    5.6723 C.ar      1 <0>        -0.0527
     19 C14         0.2411   -8.1101    6.7094 C.ar      1 <0>        -0.0228
     20 C15         0.4655   -9.4483    6.4467 C.ar      1 <0>        -0.1347
     21 C16         0.4605   -9.9101    5.1406 C.ar      1 <0>         0.1980
     22 O2          0.6754  -11.2259    4.8818 O.3       1 <0>        -0.4810
     23 N4         -0.2237   -5.7904    5.9669 N.pl3     1 <0>         0.0315
     24 O3         -0.4207   -5.0118    5.0632 O.2       1 <0>        -0.1558
     25 O4         -0.2220   -5.4003    7.1112 O.3       1 <0>        -0.1404
     26 Br2         3.2637   -0.0848   -2.6161 Br        1 <0>        -0.0317
     27 H1          5.1678    0.8213    0.0709 H         1 <0>         0.0801
     28 H2          3.6353    1.4536   -0.5773 H         1 <0>         0.0790
     29 H3          3.8683    1.3162    1.1820 H         1 <0>         0.0791
     30 H4          2.2809   -2.7978   -1.9928 H         1 <0>         0.1398
     31 H5          2.8230   -3.1208    2.2370 H         1 <0>         0.1371
     32 H6          1.6838   -4.7868   -0.7555 H         1 <0>         0.4169
     33 H7          2.8476   -5.3010    1.7659 H         1 <0>         0.0991
     34 H8          1.2120   -4.6485    2.0256 H         1 <0>         0.1049
     35 H9          1.3101   -7.1877    2.9231 H         1 <0>         0.3916
     36 H10        -0.0063  -10.5219    2.4769 H         1 <0>         0.2030
     37 H11        -0.1631   -6.9661    3.5598 H         1 <0>         0.1632
     38 H12         0.2422   -7.7558    7.7297 H         1 <0>         0.1663
     39 H13         0.6411  -10.1356    7.2610 H         1 <0>         0.1640
     40 H14         1.5958  -11.4416    4.6786 H         1 <0>         0.4110
@<TRIPOS>BOND
     1    1    2 1
     2    1   27 1
     3    1   28 1
     4    1   29 1
     5    2    7 ar
     6    2    3 ar
     7    3    4 ar
     8    3   26 1
     9    4    5 ar
    10    4   30 1
    11    5    6 ar
    12    5    9 1
    13    6    7 ar
    14    6   31 1
    15    7    8 1
    16    9   10 1
    17    9   32 1
    18   10   11 1
    19   10   33 1
    20   10   34 1
    21   11   12 2
    22   11   13 am
    23   13   14 1
    24   13   35 1
    25   14   15 2
    26   15   16 1
    27   15   36 1
    28   16   21 ar
    29   16   17 ar
    30   17   18 ar
    31   17   37 1
    32   18   19 ar
    33   18   23 1
    34   19   20 ar
    35   19   38 1
    36   20   21 ar
    37   20   39 1
    38   21   22 1
    39   22   40 1
    40   23   24 2
    41   23   25 1
@<TRIPOS>MOLECULE
ZINC39775397
   39    40     0     0     0
SMALL
USER_CHARGES

@<TRIPOS>ATOM
      1 C1          4.0923    0.8601    0.2200 C.3       1 <0>        -0.1252
      2 C2          3.5301   -0.5376    0.1848 C.ar      1 <0>        -0.0920
      3 C3          3.1215   -1.0874   -1.0173 C.ar      1 <0>        -0.0386
      4 C4          2.6051   -2.3689   -1.0526 C.ar      1 <0>        -0.1485
      5 C5          2.4970   -3.1051    0.1203 C.ar      1 <0>         0.2316
      6 C6          2.9084   -2.5507    1.3256 C.ar      1 <0>        -0.1543
      7 C7          3.4288   -1.2707    1.3539 C.ar      1 <0>        -0.0369
      8 Br1         3.9958   -0.5176    2.9932 Br        1 <0>        -0.0359
      9 N1          1.9751   -4.4002    0.0878 N.pl3     1 <0>        -0.7237
     10 C8          1.8616   -5.1755    1.3257 C.3       1 <0>         0.1024
     11 C9          1.2732   -6.5285    1.0189 C.2       1 <0>         0.5247
     12 O1          0.9776   -6.8169   -0.1218 O.2       1 <0>        -0.5135
     13 N2          1.0753   -7.4182    2.0118 N.am      1 <0>        -0.5836
     14 N3          0.5283   -8.6761    1.7265 N.2       1 <0>        -0.2745
     15 C10         0.2378   -9.4918    2.6934 C.2       1 <0>         0.1844
     16 C11         0.2389   -9.0127    4.0872 C.ar      1 <0>        -0.2569
     17 C12         0.0134   -7.6628    4.3660 C.ar      1 <0>        -0.0088
     18 C13         0.0153   -7.2211    5.6723 C.ar      1 <0>        -0.1773
     19 C14         0.2404   -8.1103    6.7095 C.ar      1 <0>        -0.0068
     20 C15         0.4647   -9.4484    6.4468 C.ar      1 <0>        -0.2363
     21 C16         0.4605   -9.9101    5.1406 C.ar      1 <0>         0.3268
     22 O2          0.6754  -11.2259    4.8818 O.3       1 <0>        -0.6549
     23 N4         -0.2237   -5.7904    5.9669 N.pl3     1 <0>         0.0693
     24 O3         -0.4201   -5.0117    5.0631 O.2       1 <0>        -0.2189
     25 O4         -0.2226   -5.4004    7.1113 O.3       1 <0>        -0.2077
     26 Br2         3.2692   -0.0843   -2.6135 Br        1 <0>        -0.0403
     27 H1          5.1718    0.8213    0.0746 H         1 <0>         0.0769
     28 H2          3.6398    1.4538   -0.5743 H         1 <0>         0.0763
     29 H3          3.8718    1.3163    1.1851 H         1 <0>         0.0772
     30 H4          2.2857   -2.7973   -1.9911 H         1 <0>         0.1385
     31 H5          2.8254   -3.1208    2.2391 H         1 <0>         0.1401
     32 H6          1.6877   -4.7864   -0.7543 H         1 <0>         0.4160
     33 H7          2.8500   -5.3009    1.7677 H         1 <0>         0.0960
     34 H8          1.2144   -4.6483    2.0266 H         1 <0>         0.1035
     35 H9          1.3117   -7.1876    2.9238 H         1 <0>         0.3909
     36 H10        -0.0047  -10.5216    2.4766 H         1 <0>         0.1867
     37 H11        -0.1618   -6.9659    3.5597 H         1 <0>         0.1344
     38 H12         0.2409   -7.7560    7.7297 H         1 <0>         0.1307
     39 H13         0.6399  -10.1358    7.2611 H         1 <0>         0.1281
@<TRIPOS>BOND
     1    1    2 1
     2    1   27 1
     3    1   28 1
     4    1   29 1
     5    2    7 ar
     6    2    3 ar
     7    3    4 ar
     8    3   26 1
     9    4    5 ar
    10    4   30 1
    11    5    6 ar
    12    5    9 1
    13    6    7 ar
    14    6   31 1
    15    7    8 1
    16    9   10 1
    17    9   32 1
    18   10   11 1
    19   10   33 1
    20   10   34 1
    21   11   12 2
    22   11   13 am
    23   13   14 1
    24   13   35 1
    25   14   15 2
    26   15   16 1
    27   15   36 1
    28   16   21 ar
    29   16   17 ar
    30   17   18 ar
    31   17   37 1
    32   18   19 ar
    33   18   23 1
    34   19   20 ar
    35   19   38 1
    36   20   21 ar
    37   20   39 1
    38   21   22 1
    39   23   24 2
    40   23   25 1
@<TRIPOS>MOLECULE
ZINC02940598
   46    47     0     0     0
SMALL
USER_CHARGES

@<TRIPOS>ATOM
      1 C1         -0.0167    1.3781    0.0096 C.ar      1 <0>        -0.1345
      2 C2          1.1709    2.0855    0.0021 C.ar      1 <0>        -0.0149
      3 C3          2.3773    1.4107   -0.0130 C.ar      1 <0>        -0.6765
      4 C4          2.3960    0.0285   -0.0201 C.ar      1 <0>        -0.0150
      5 C5          1.2085   -0.6789   -0.0117 C.ar      1 <0>        -0.1345
      6 C6          0.0021   -0.0041    0.0020 C.ar      1 <0>        -0.0236
      7 C7         -1.2926   -0.7753    0.0107 C.3       1 <0>        -0.1019
      8 C8         -1.7450   -1.0285   -1.4288 C.3       1 <0>         0.1227
      9 N1         -3.0037   -1.7782   -1.4204 N.am      1 <0>        -0.7317
     10 C9         -3.5942   -2.1168   -2.5836 C.2       1 <0>         0.5229
     11 O1         -3.0836   -1.8008   -3.6374 O.2       1 <0>        -0.5287
     12 C10        -4.8889   -2.8880   -2.5749 C.3       1 <0>        -0.1373
     13 C11        -5.3413   -3.1412   -4.0144 C.3       1 <0>        -0.5938
     14 S1         -6.8997   -4.0695   -4.0040 S.o2      1 <0>         2.4980
     15 O2         -6.6835   -5.3834   -3.5078 O.2       1 <0>        -0.9285
     16 O3         -7.9469   -3.2620   -3.4839 O.2       1 <0>        -0.9285
     17 C12        -7.3056   -4.2921   -5.7041 C.ar      1 <0>        -0.6496
     18 C13        -8.0726   -3.3479   -6.3607 C.ar      1 <0>        -0.0159
     19 C14        -8.3908   -3.5218   -7.6945 C.ar      1 <0>        -0.1114
     20 C15        -7.9417   -4.6409   -8.3722 C.ar      1 <0>        -0.0390
     21 C16        -7.1743   -5.5855   -7.7147 C.ar      1 <0>        -0.1114
     22 C17        -6.8521   -5.4080   -6.3824 C.ar      1 <0>        -0.0159
     23 Br1        -8.3773   -4.8798  -10.1968 Br        1 <0>        -0.0303
     24 S2          3.8911    2.3124   -0.0238 S.o2      1 <0>         2.7009
     25 O4          4.8717    1.4529   -0.5884 O.2       1 <0>        -0.9619
     26 O5          3.5973    3.5927   -0.5658 O.2       1 <0>        -0.9619
     27 N2          4.3274    2.5556    1.5551 N.pl3     1 <0>        -1.2497
     28 H1         -0.9591    1.9053    0.0259 H         1 <0>         0.1362
     29 H2          1.1563    3.1654    0.0076 H         1 <0>         0.1453
     30 H3          3.3385   -0.4987   -0.0326 H         1 <0>         0.1453
     31 H4          1.2231   -1.7588   -0.0179 H         1 <0>         0.1362
     32 H5         -1.1443   -1.7285    0.5180 H         1 <0>         0.0888
     33 H6         -2.0551   -0.1993    0.5352 H         1 <0>         0.0888
     34 H7         -1.8934   -0.0752   -1.9361 H         1 <0>         0.0744
     35 H8         -0.9826   -1.6044   -1.9533 H         1 <0>         0.0744
     36 H9         -3.4120   -2.0309   -0.5776 H         1 <0>         0.4048
     37 H10        -4.7405   -3.8413   -2.0677 H         1 <0>         0.1148
     38 H11        -5.6513   -2.3121   -2.0504 H         1 <0>         0.1148
     39 H12        -5.4896   -2.1879   -4.5217 H         1 <0>         0.1457
     40 H13        -4.5788   -3.7171   -4.5389 H         1 <0>         0.1457
     41 H14        -8.4235   -2.4743   -5.8314 H         1 <0>         0.1530
     42 H15        -8.9904   -2.7843   -8.2073 H         1 <0>         0.1460
     43 H16        -6.8234   -6.4593   -8.2435 H         1 <0>         0.1460
     44 H17        -6.2495   -6.1434   -5.8701 H         1 <0>         0.1531
     45 H18         3.7682    2.2150    2.2708 H         1 <0>         0.4167
     46 H19         5.1421    3.0386    1.7642 H         1 <0>         0.4220
@<TRIPOS>BOND
     1    1    6 ar
     2    1    2 ar
     3    1   28 1
     4    2    3 ar
     5    2   29 1
     6    3    4 ar
     7    3   24 1
     8    4    5 ar
     9    4   30 1
    10    5    6 ar
    11    5   31 1
    12    6    7 1
    13    7    8 1
    14    7   32 1
    15    7   33 1
    16    8    9 1
    17    8   34 1
    18    8   35 1
    19    9   10 am
    20    9   36 1
    21   10   11 2
    22   10   12 1
    23   12   13 1
    24   12   37 1
    25   12   38 1
    26   13   14 1
    27   13   39 1
    28   13   40 1
    29   14   15 2
    30   14   16 2
    31   14   17 1
    32   17   22 ar
    33   17   18 ar
    34   18   19 ar
    35   18   41 1
    36   19   20 ar
    37   19   42 1
    38   20   21 ar
    39   20   23 1
    40   21   22 ar
    41   21   43 1
    42   22   44 1
    43   24   25 2
    44   24   26 2
    45   24   27 1
    46   27   45 1
    47   27   46 1
@<TRIPOS>MOLECULE
ZINC05060148
   33    34     0     0     0
SMALL
USER_CHARGES

@<TRIPOS>ATOM
      1 C1         -0.0184    1.5028    0.0103 C.3       1 <0>        -0.0685
      2 C2          0.0021   -0.0041    0.0020 C.2       1 <0>        -0.0196
      3 C3         -1.0883   -0.8040    0.0027 C.2       1 <0>        -0.1774
      4 C4         -0.6305   -2.1290   -0.0066 C.2       1 <0>        -0.1731
      5 C5          0.7464   -2.0683   -0.0126 C.2       1 <0>        -0.0481
      6 O1          1.1021   -0.7660   -0.0130 O.3       1 <0>        -0.1484
      7 C6          1.6585   -3.2099   -0.0231 C.2       1 <0>         0.5609
      8 O2          1.2120   -4.3506   -0.0272 O.co2     1 <0>        -0.6608
      9 O3          2.8696   -3.0263   -0.0277 O.co2     1 <0>        -0.6744
     10 C7         -2.5268   -0.3549    0.0123 C.3       1 <0>        -0.0067
     11 S1         -3.1123   -0.1649   -1.6941 S.3       1 <0>        -0.2369
     12 C8         -4.8351    0.3722   -1.5097 C.3       1 <0>         0.0002
     13 C9         -5.4484    0.5694   -2.8720 C.2       1 <0>        -0.0384
     14 C10        -6.0950   -0.3709   -3.5766 C.2       1 <0>        -0.1397
     15 C11        -6.5112    0.2781   -4.8297 C.2       1 <0>        -0.2271
     16 C12        -6.0612    1.5656   -4.7428 C.2       1 <0>         0.0137
     17 O4         -5.4392    1.7156   -3.5706 O.3       1 <0>        -0.1861
     18 C13        -6.2416    2.6355   -5.7887 C.3       1 <0>        -0.0594
     19 C14        -7.2549   -0.3305   -5.9416 C.2       1 <0>         0.5483
     20 O5         -7.5958   -1.5041   -5.8799 O.co2     1 <0>        -0.6894
     21 O6         -7.5333    0.3364   -6.9291 O.co2     1 <0>        -0.6925
     22 H1          1.0042    1.8801    0.0026 H         1 <0>         0.0712
     23 H2         -0.5455    1.8639   -0.8728 H         1 <0>         0.0844
     24 H3         -0.5286    1.8543    0.9071 H         1 <0>         0.0758
     25 H4         -1.2377   -3.0222   -0.0081 H         1 <0>         0.1479
     26 H5         -3.1364   -1.0991    0.5248 H         1 <0>         0.0857
     27 H6         -2.6059    0.5999    0.5320 H         1 <0>         0.0812
     28 H7         -5.3962   -0.3873   -0.9651 H         1 <0>         0.1027
     29 H8         -4.8657    1.3117   -0.9580 H         1 <0>         0.0890
     30 H9         -6.2733   -1.3951   -3.2842 H         1 <0>         0.1482
     31 H10        -7.1710    3.1734   -5.6016 H         1 <0>         0.0703
     32 H11        -5.4038    3.3314   -5.7449 H         1 <0>         0.0577
     33 H12        -6.2806    2.1754   -6.7761 H         1 <0>         0.1093
@<TRIPOS>BOND
     1    1    2 1
     2    1   22 1
     3    1   23 1
     4    1   24 1
     5    2    6 1
     6    2    3 2
     7    3    4 1
     8    3   10 1
     9    4    5 2
    10    4   25 1
    11    5    6 1
    12    5    7 1
    13    7    8 2
    14    7    9 1
    15   10   11 1
    16   10   26 1
    17   10   27 1
    18   11   12 1
    19   12   13 1
    20   12   28 1
    21   12   29 1
    22   13   17 1
    23   13   14 2
    24   14   15 1
    25   14   30 1
    26   15   16 2
    27   15   19 1
    28   16   17 1
    29   16   18 1
    30   18   31 1
    31   18   32 1
    32   18   33 1
    33   19   20 2
    34   19   21 1
