@<TRIPOS>MOLECULE
ZINC05613242
   41    44     0     0     0
SMALL
USER_CHARGES
3-(1-acetyl-5-phenyl-4,5-dihydropyrazol-3-yl)chromen-2-one
@<TRIPOS>ATOM
      1 C1          8.7907    2.5810   -0.0657 C.3       1 <0>        -0.1649
      2 C2          8.3652    4.0266   -0.0547 C.2       1 <0>         0.5528
      3 O1          9.2017    4.9052   -0.0581 O.2       1 <0>        -0.5149
      4 N1          7.0553    4.3434   -0.0412 N.am      1 <0>        -0.4667
      5 C3          6.5049    5.7081   -0.0294 C.3       1 <0>         0.1474
      6 H1          6.8070    6.2511   -0.9249 H         1 <0>         0.1041
      7 C4          4.9798    5.4835   -0.0220 C.3       1 <0>        -0.1206
      8 C5          4.8330    3.9786   -0.0217 C.2       1 <0>         0.1328
      9 N2          6.0012    3.4322   -0.0354 N.2       1 <0>        -0.1946
     10 C6          3.5548    3.2502   -0.0135 C.2       1 <0>        -0.1501
     11 C7          2.3547    3.9355    0.0007 C.2       1 <0>         0.0292
     12 C8          1.1453    3.1927    0.0078 C.ar      1 <0>        -0.1595
     13 C9         -0.0899    3.8568    0.0226 C.ar      1 <0>        -0.0480
     14 C10        -1.2496    3.1363    0.0299 C.ar      1 <0>        -0.1429
     15 C11        -1.2159    1.7490    0.0173 C.ar      1 <0>        -0.0524
     16 C12        -0.0126    1.0758    0.0080 C.ar      1 <0>        -0.1374
     17 C13         1.1820    1.7875    0.0004 C.ar      1 <0>         0.1550
     18 O2          2.3593    1.1256   -0.0135 O.3       1 <0>        -0.2624
     19 C14         3.5313    1.7814   -0.0207 C.2       1 <0>         0.5126
     20 O3          4.5759    1.1576   -0.0336 O.2       1 <0>        -0.4219
     21 C15         6.9431    6.4459    1.2093 C.ar      1 <0>        -0.0921
     22 C16         7.0107    5.7835    2.4208 C.ar      1 <0>        -0.1022
     23 C17         7.4173    6.4591    3.5562 C.ar      1 <0>        -0.1171
     24 C18         7.7467    7.7996    3.4821 C.ar      1 <0>        -0.1134
     25 C19         7.6737    8.4634    2.2717 C.ar      1 <0>        -0.1168
     26 C20         7.2721    7.7865    1.1353 C.ar      1 <0>        -0.0988
     27 H2          8.8839    2.2375   -1.0959 H         1 <0>         0.0975
     28 H3          9.7518    2.4813    0.4389 H         1 <0>         0.0939
     29 H4          8.0443    1.9786    0.4521 H         1 <0>         0.0937
     30 H5          4.5240    5.9119   -0.9147 H         1 <0>         0.1104
     31 H6          4.5368    5.9110    0.8774 H         1 <0>         0.1092
     32 H7          2.3375    5.0153    0.0067 H         1 <0>         0.1573
     33 H8         -0.1236    4.9363    0.0287 H         1 <0>         0.1421
     34 H9         -2.1997    3.6496    0.0417 H         1 <0>         0.1381
     35 H10        -2.1408    1.1914    0.0190 H         1 <0>         0.1429
     36 H11         0.0021   -0.0041    0.0020 H         1 <0>         0.1467
     37 H12         6.7494    4.7372    2.4795 H         1 <0>         0.1142
     38 H13         7.4740    5.9406    4.5019 H         1 <0>         0.1232
     39 H14         8.0608    8.3284    4.3698 H         1 <0>         0.1241
     40 H15         7.9307    9.5108    2.2139 H         1 <0>         0.1257
     41 H16         7.2150    8.3051    0.1897 H         1 <0>         0.1238
@<TRIPOS>BOND
     1    1    2 1
     2    1   27 1
     3    1   28 1
     4    1   29 1
     5    2    3 2
     6    2    4 am
     7    4    9 1
     8    4    5 1
     9    5    6 1
    10    5    7 1
    11    5   21 1
    12    7    8 1
    13    7   30 1
    14    7   31 1
    15    8    9 2
    16    8   10 1
    17   10   19 1
    18   10   11 2
    19   11   12 1
    20   11   32 1
    21   12   17 ar
    22   12   13 ar
    23   13   14 ar
    24   13   33 1
    25   14   15 ar
    26   14   34 1
    27   15   16 ar
    28   15   35 1
    29   16   17 ar
    30   16   36 1
    31   17   18 1
    32   18   19 1
    33   19   20 2
    34   21   26 ar
    35   21   22 ar
    36   22   23 ar
    37   22   37 1
    38   23   24 ar
    39   23   38 1
    40   24   25 ar
    41   24   39 1
    42   25   26 ar
    43   25   40 1
    44   26   41 1
@<TRIPOS>MOLECULE
ZINC05613247
   41    44     0     0     0
SMALL
USER_CHARGES
3-(1-acetyl-5-phenyl-4,5-dihydropyrazol-3-yl)chromen-2-one
@<TRIPOS>ATOM
      1 C1          3.4239   -2.8467   -0.0470 C.3       1 <0>        -0.1693
      2 C2          4.4317   -1.7263   -0.0504 C.2       1 <0>         0.5531
      3 O1          5.6184   -1.9779   -0.0630 O.2       1 <0>        -0.5157
      4 N1          4.0147   -0.4447   -0.0394 N.am      1 <0>        -0.4660
      5 C3          4.8881    0.7395   -0.0412 C.3       1 <0>         0.1473
      6 H1          5.5185    0.7524    0.8479 H         1 <0>         0.1048
      7 C4          3.8973    1.9204   -0.0309 C.3       1 <0>        -0.1204
      8 C5          2.5390    1.2563   -0.0154 C.2       1 <0>         0.1331
      9 N2          2.6861   -0.0250   -0.0241 N.2       1 <0>        -0.1951
     10 C6          1.2486    1.9628    0.0007 C.2       1 <0>        -0.1502
     11 C7          1.2029    3.3441    0.0081 C.2       1 <0>         0.0293
     12 C8         -0.0636    3.9845    0.0231 C.ar      1 <0>        -0.1595
     13 C9         -0.1460    5.3846    0.0314 C.ar      1 <0>        -0.0480
     14 C10        -1.3676    5.9941    0.0463 C.ar      1 <0>        -0.1429
     15 C11        -2.5311    5.2377    0.0534 C.ar      1 <0>        -0.0524
     16 C12        -2.4732    3.8602    0.0455 C.ar      1 <0>        -0.1374
     17 C13        -1.2408    3.2163    0.0303 C.ar      1 <0>         0.1550
     18 O2         -1.1873    1.8668    0.0178 O.3       1 <0>        -0.2623
     19 C14        -0.0144    1.2126    0.0087 C.2       1 <0>         0.5127
     20 O3          0.0021   -0.0041    0.0020 O.2       1 <0>        -0.4222
     21 C15         5.7329    0.7734   -1.2887 C.ar      1 <0>        -0.0927
     22 C16         5.1947    0.3776   -2.4989 C.ar      1 <0>        -0.1022
     23 C17         5.9681    0.4133   -3.6440 C.ar      1 <0>        -0.1173
     24 C18         7.2829    0.8349   -3.5771 C.ar      1 <0>        -0.1134
     25 C19         7.8227    1.2257   -2.3660 C.ar      1 <0>        -0.1169
     26 C20         7.0477    1.1950   -1.2218 C.ar      1 <0>        -0.0988
     27 H2          2.4169   -2.4296   -0.0353 H         1 <0>         0.0957
     28 H3          3.5545   -3.4556   -0.9416 H         1 <0>         0.0965
     29 H4          3.5713   -3.4653    0.8382 H         1 <0>         0.0971
     30 H5          4.0152    2.5287   -0.9276 H         1 <0>         0.1095
     31 H6          4.0368    2.5262    0.8644 H         1 <0>         0.1101
     32 H7          2.1134    3.9250    0.0028 H         1 <0>         0.1574
     33 H8          0.7554    5.9795    0.0263 H         1 <0>         0.1421
     34 H9         -1.4288    7.0723    0.0531 H         1 <0>         0.1381
     35 H10        -3.4909    5.7328    0.0649 H         1 <0>         0.1429
     36 H11        -3.3850    3.2813    0.0508 H         1 <0>         0.1467
     37 H12         4.1688    0.0441   -2.5503 H         1 <0>         0.1142
     38 H13         5.5465    0.1076   -4.5902 H         1 <0>         0.1232
     39 H14         7.8886    0.8586   -4.4710 H         1 <0>         0.1241
     40 H15         8.8500    1.5548   -2.3137 H         1 <0>         0.1257
     41 H16         7.4695    1.5000   -0.2755 H         1 <0>         0.1238
@<TRIPOS>BOND
     1    1    2 1
     2    1   27 1
     3    1   28 1
     4    1   29 1
     5    2    3 2
     6    2    4 am
     7    4    9 1
     8    4    5 1
     9    5    6 1
    10    5    7 1
    11    5   21 1
    12    7    8 1
    13    7   30 1
    14    7   31 1
    15    8    9 2
    16    8   10 1
    17   10   19 1
    18   10   11 2
    19   11   12 1
    20   11   32 1
    21   12   17 ar
    22   12   13 ar
    23   13   14 ar
    24   13   33 1
    25   14   15 ar
    26   14   34 1
    27   15   16 ar
    28   15   35 1
    29   16   17 ar
    30   16   36 1
    31   17   18 1
    32   18   19 1
    33   19   20 2
    34   21   26 ar
    35   21   22 ar
    36   22   23 ar
    37   22   37 1
    38   23   24 ar
    39   23   38 1
    40   24   25 ar
    41   24   39 1
    42   25   26 ar
    43   25   40 1
    44   26   41 1
@<TRIPOS>MOLECULE
ZINC03975314
   56    59     0     0     0
SMALL
USER_CHARGES

@<TRIPOS>ATOM
      1 C1         -4.0554    6.5805   -0.8144 C.3       1 <0>        -0.0494
      2 C2         -4.8208    5.2978   -2.7200 C.3       1 <0>        -0.0420
      3 C3         -2.9612    4.4989   -1.3910 C.3       1 <0>        -0.0220
      4 C4         -2.5057    4.2373    0.0460 C.3       1 <0>         0.0679
      5 N1         -1.2376    3.5038    0.0304 N.am      1 <0>        -0.5584
      6 C5         -1.2713    2.1575    0.0197 C.2       1 <0>         0.5728
      7 O1         -2.3403    1.5791    0.0219 O.2       1 <0>        -0.4644
      8 C6         -0.0167    1.3816    0.0096 C.ar      1 <0>        -0.1089
      9 C7          0.0021   -0.0041    0.0020 C.ar      1 <0>        -0.0192
     10 C8          1.2078   -0.7015   -0.0133 C.ar      1 <0>        -0.0193
     11 C9          2.4183   -0.0269   -0.0207 C.ar      1 <0>        -0.1089
     12 C10         2.4212    1.3873   -0.0132 C.ar      1 <0>        -0.0128
     13 C11         1.2077    2.0892    0.0017 C.ar      1 <0>        -0.0128
     14 C12         1.2106    3.5034    0.0070 C.ar      1 <0>        -0.1089
     15 C13         2.4211    4.1781   -0.0008 C.ar      1 <0>        -0.0194
     16 C14         3.6268    3.4806   -0.0147 C.ar      1 <0>        -0.0195
     17 C15         3.6456    2.0950   -0.0210 C.ar      1 <0>        -0.1088
     18 C16         4.9002    1.3192   -0.0362 C.2       1 <0>         0.5733
     19 O2          5.9691    1.8976   -0.0437 O.2       1 <0>        -0.4649
     20 N2          4.8666   -0.0271   -0.0423 N.am      1 <0>        -0.5584
     21 C17         3.7164   -0.7276   -0.0359 C.2       1 <0>         0.5728
     22 O3          3.7479   -1.9425   -0.0428 O.2       1 <0>        -0.4642
     23 C18         6.1347   -0.7606   -0.0569 C.3       1 <0>         0.0677
     24 C19         6.5888   -1.0228    1.3804 C.3       1 <0>        -0.0219
     25 C20         8.9386   -0.9343    0.8034 C.3       1 <0>        -0.0494
     26 C21         8.2086   -2.2344    2.7111 C.3       1 <0>        -0.0420
     27 C22        -0.0874    4.2042    0.0223 C.2       1 <0>         0.5732
     28 O4         -0.1189    5.4192    0.0279 O.2       1 <0>        -0.4650
     29 H1         -3.3383    7.1349   -1.4198 H         1 <0>         0.1271
     30 H2         -5.0119    7.1031   -0.8146 H         1 <0>         0.1295
     31 H3         -3.6843    6.5022    0.2075 H         1 <0>         0.1219
     32 H4         -5.0061    4.2870   -3.0835 H         1 <0>         0.1234
     33 H5         -5.7611    5.8476   -2.6798 H         1 <0>         0.1292
     34 H6         -4.1315    5.8057   -3.3945 H         1 <0>         0.1246
     35 H7         -2.2061    5.0896   -1.9096 H         1 <0>         0.1375
     36 H8         -3.0973    3.5489   -1.9077 H         1 <0>         0.1356
     37 H9         -3.2608    3.6466    0.5647 H         1 <0>         0.1249
     38 H10        -2.3695    5.1873    0.5627 H         1 <0>         0.1250
     39 H11        -0.9297   -0.5500    0.0076 H         1 <0>         0.1681
     40 H12         1.1991   -1.7814   -0.0190 H         1 <0>         0.1681
     41 H13         2.4298    5.2580    0.0042 H         1 <0>         0.1680
     42 H14         4.5586    4.0266   -0.0210 H         1 <0>         0.1680
     43 H15         5.9990   -1.7105   -0.5741 H         1 <0>         0.1249
     44 H16         6.8902   -0.1697   -0.5746 H         1 <0>         0.1249
     45 H17         6.7244   -0.0729    1.8976 H         1 <0>         0.1375
     46 H18         5.8332   -1.6137    1.8981 H         1 <0>         0.1355
     47 H19         9.0618   -0.0354    1.4074 H         1 <0>         0.1271
     48 H20         9.8686   -1.5029    0.8043 H         1 <0>         0.1295
     49 H21         8.6856   -0.6532   -0.2189 H         1 <0>         0.1220
     50 H22         7.4250   -2.8984    3.0757 H         1 <0>         0.1233
     51 H23         9.1541   -2.7754    2.6716 H         1 <0>         0.1292
     52 H24         8.3054   -1.3825    3.3843 H         1 <0>         0.1246
     53 N3         -4.2509    5.2201   -1.3584 N.4       1 <0>        -0.3930
     54 H25        -4.9036    4.7092   -0.7524 H         1 <0>         0.4348
     55 N4          7.8570   -1.7812    1.3489 N.4       1 <0>        -0.3930
     56 H26         7.7395   -2.6026    0.7441 H         1 <0>         0.4348
@<TRIPOS>BOND
     1    1   29 1
     2    1   30 1
     3    1   31 1
     4    1   53 1
     5    2   32 1
     6    2   33 1
     7    2   34 1
     8    2   53 1
     9    3    4 1
    10    3   35 1
    11    3   36 1
    12    3   53 1
    13    4    5 1
    14    4   37 1
    15    4   38 1
    16    5   27 am
    17    5    6 am
    18    6    7 2
    19    6    8 1
    20    8   13 ar
    21    8    9 ar
    22    9   10 ar
    23    9   39 1
    24   10   11 ar
    25   10   40 1
    26   11   21 1
    27   11   12 ar
    28   12   17 ar
    29   12   13 ar
    30   13   14 ar
    31   14   15 ar
    32   14   27 1
    33   15   16 ar
    34   15   41 1
    35   16   17 ar
    36   16   42 1
    37   17   18 1
    38   18   19 2
    39   18   20 am
    40   20   21 am
    41   20   23 1
    42   21   22 2
    43   23   24 1
    44   23   43 1
    45   23   44 1
    46   24   45 1
    47   24   46 1
    48   24   55 1
    49   25   47 1
    50   25   48 1
    51   25   49 1
    52   25   55 1
    53   26   50 1
    54   26   51 1
    55   26   52 1
    56   26   55 1
    57   27   28 2
    58   53   54 1
    59   55   56 1
