@<TRIPOS>MOLECULE
ZINC00245008
   24    25     0     0     0
SMALL
USER_CHARGES
6-(4-bromophenyl)amino-1H-pyrimidine-2,4-dione
@<TRIPOS>ATOM
      1 C1          4.7307    1.5449   -0.1466 C.ar      1 <0>        -0.1819
      2 C2          5.8956    2.2793   -0.2520 C.ar      1 <0>        -0.0422
      3 C3          7.1136    1.6337   -0.3708 C.ar      1 <0>        -0.1260
      4 C4          7.1690    0.2511   -0.3788 C.ar      1 <0>        -0.0449
      5 C5          6.0079   -0.4884   -0.2675 C.ar      1 <0>        -0.1581
      6 C6          4.7839    0.1570   -0.1481 C.ar      1 <0>         0.1947
      7 N1          3.6064   -0.5893   -0.0352 N.pl3     1 <0>        -0.6787
      8 C7          2.3905    0.0471   -0.0065 C.2       1 <0>         0.4384
      9 C8          1.4331   -0.2525   -0.9352 C.2       1 <0>        -0.3049
     10 C9          0.1986    0.4139   -0.8812 C.2       1 <0>         0.5580
     11 O1         -0.6699    0.1632   -1.6992 O.2       1 <0>        -0.5113
     12 N2         -0.0204    1.3326    0.0801 N.am      1 <0>        -0.6624
     13 H1         -0.8991    1.8083    0.1201 H         1 <0>         0.4414
     14 C10         0.9329    1.6153    0.9864 C.2       1 <0>         0.7095
     15 O2          0.7147    2.4480    1.8451 O.2       1 <0>        -0.5328
     16 N3          2.1246    0.9908    0.9564 N.am      1 <0>        -0.6530
     17 H2          2.8206    1.2147    1.6387 H         1 <0>         0.4416
     18 Br1         8.7057    2.6427   -0.5221 Br        1 <0>        -0.0445
     19 H3          3.7799    2.0493   -0.0584 H         1 <0>         0.1313
     20 H4          5.8554    3.3585   -0.2461 H         1 <0>         0.1391
     21 H5          8.1211   -0.2501   -0.4717 H         1 <0>         0.1407
     22 H6          6.0518   -1.5675   -0.2731 H         1 <0>         0.1397
     23 H7          3.6490   -1.5567    0.0227 H         1 <0>         0.4320
     24 H8          1.6238   -0.9911   -1.6997 H         1 <0>         0.1746
@<TRIPOS>BOND
     1    1    6 ar
     2    1    2 ar
     3    1   19 1
     4    2    3 ar
     5    2   20 1
     6    3    4 ar
     7    3   18 1
     8    4    5 ar
     9    4   21 1
    10    5    6 ar
    11    5   22 1
    12    6    7 1
    13    7    8 1
    14    7   23 1
    15    8   16 1
    16    8    9 2
    17    9   10 1
    18    9   24 1
    19   10   11 2
    20   10   12 am
    21   12   13 1
    22   12   14 am
    23   14   15 2
    24   14   16 am
    25   16   17 1
@<TRIPOS>MOLECULE
ZINC00169542
   30    31     0     0     0
SMALL
USER_CHARGES

@<TRIPOS>ATOM
      1 C1          0.4179    1.4344   -0.8266 C.3       1 <0>        -0.1202
      2 C2          0.3224   -0.0543   -0.6125 C.ar      1 <0>        -0.0923
      3 C3         -0.1140   -0.8724   -1.6388 C.ar      1 <0>        -0.0819
      4 C4         -0.2026   -2.2368   -1.4460 C.ar      1 <0>        -0.1687
      5 C5          0.1476   -2.7876   -0.2197 C.ar      1 <0>         0.1275
      6 C6          0.5859   -1.9634    0.8086 C.ar      1 <0>        -0.1308
      7 C7          0.6768   -0.5999    0.6075 C.ar      1 <0>        -0.0540
      8 C8          1.1577    0.2947    1.7208 C.3       1 <0>        -0.1219
      9 N1          0.0586   -4.1688   -0.0209 N.pl3     1 <0>        -0.6532
     10 C9         -1.0124   -4.8667   -0.5215 C.2       1 <0>         0.4711
     11 C10        -1.0458   -6.2308   -0.4394 C.2       1 <0>        -0.3854
     12 C11        -2.1540   -6.9183   -0.9594 C.2       1 <0>         0.5655
     13 O1         -2.2057   -8.1347   -0.8970 O.2       1 <0>        -0.5250
     14 N2         -3.1605   -6.2253   -1.5275 N.am      1 <0>        -0.6626
     15 H1         -3.9270   -6.6985   -1.8872 H         1 <0>         0.4323
     16 C12        -3.1117   -4.8827   -1.5995 C.2       1 <0>         0.7136
     17 O2         -4.0310   -4.2769   -2.1155 O.2       1 <0>        -0.5355
     18 N3         -2.0631   -4.1999   -1.1044 N.am      1 <0>        -0.6513
     19 H2         -2.0474   -3.2317   -1.1622 H         1 <0>         0.4344
     20 H3          1.4080    1.6838   -1.2080 H         1 <0>         0.0745
     21 H4         -0.3383    1.7471   -1.5466 H         1 <0>         0.0702
     22 H5          0.2530    1.9489    0.1201 H         1 <0>         0.0720
     23 H6         -0.3861   -0.4435   -2.5919 H         1 <0>         0.1340
     24 H7         -0.5442   -2.8750   -2.2475 H         1 <0>         0.1297
     25 H8          0.8589   -2.3885    1.7631 H         1 <0>         0.1331
     26 H9          0.3065    0.6198    2.3191 H         1 <0>         0.0768
     27 H10         1.8568   -0.2543    2.3518 H         1 <0>         0.0706
     28 H11         1.6577    1.1656    1.2969 H         1 <0>         0.0747
     29 H12         0.7535   -4.6339    0.4706 H         1 <0>         0.4351
     30 H13        -0.2311   -6.7721    0.0185 H         1 <0>         0.1678
@<TRIPOS>BOND
     1    1    2 1
     2    1   20 1
     3    1   21 1
     4    1   22 1
     5    2    7 ar
     6    2    3 ar
     7    3    4 ar
     8    3   23 1
     9    4    5 ar
    10    4   24 1
    11    5    6 ar
    12    5    9 1
    13    6    7 ar
    14    6   25 1
    15    7    8 1
    16    8   26 1
    17    8   27 1
    18    8   28 1
    19    9   10 1
    20    9   29 1
    21   10   18 1
    22   10   11 2
    23   11   12 1
    24   11   30 1
    25   12   13 2
    26   12   14 am
    27   14   15 1
    28   14   16 am
    29   16   17 2
    30   16   18 am
    31   18   19 1
