@<TRIPOS>MOLECULE
ZINC13529512
   33    33     0     0     0
SMALL
USER_CHARGES

@<TRIPOS>ATOM
      1 C1         -0.0187    1.5262    0.0104 C.3       1 <0>        -0.1234
      2 C2          1.4165    2.0576   -0.0004 C.3       1 <0>        -0.1381
      3 C3          2.1442    1.5770    1.2590 C.3       1 <0>         0.1092
      4 N1          2.0433    0.1131    1.3339 N.am      1 <0>        -0.6090
      5 C4          0.7138   -0.5080    1.2615 C.3       1 <0>         0.1038
      6 C5          0.0021   -0.0041    0.0020 C.3       1 <0>        -0.1396
      7 C6          3.1494   -0.6456    1.4661 C.2       1 <0>         0.5166
      8 O1          4.2413   -0.1209    1.5243 O.2       1 <0>        -0.5142
      9 C7          3.0295   -2.1459    1.5415 C.3       1 <0>         0.0834
     10 H1          2.2713   -2.4857    0.8359 H         1 <0>         0.1162
     11 C8          2.6260   -2.5546    2.9596 C.3       1 <0>        -0.1928
     12 C9          2.3829   -4.0645    3.0055 C.3       1 <0>        -0.0101
     13 N2          1.9956   -4.4569    4.3671 N.4       1 <0>        -0.6358
     14 N3          4.3216   -2.7580    1.2043 N.3       1 <0>        -0.8253
     15 H2         -0.5292    1.8775    0.9071 H         1 <0>         0.0666
     16 H3         -0.5462    1.8870   -0.8725 H         1 <0>         0.0724
     17 H4          1.9352    1.6864   -0.8843 H         1 <0>         0.0695
     18 H5          1.4008    3.1473   -0.0180 H         1 <0>         0.0819
     19 H6          3.1932    1.8688    1.2087 H         1 <0>         0.0961
     20 H7          1.6812    2.0207    2.1404 H         1 <0>         0.0720
     21 H8          0.8190   -1.5919    1.2128 H         1 <0>         0.0780
     22 H9          0.1341   -0.2343    2.1430 H         1 <0>         0.0736
     23 H10        -1.0203   -0.3817   -0.0139 H         1 <0>         0.0798
     24 H11         0.5341   -0.3558   -0.8819 H         1 <0>         0.0709
     25 H12         3.4248   -2.2940    3.6540 H         1 <0>         0.0985
     26 H13         1.7131   -2.0309    3.2429 H         1 <0>         0.1008
     27 H14         1.5842   -4.3252    2.3112 H         1 <0>         0.1408
     28 H15         3.2959   -4.5883    2.7223 H         1 <0>         0.1338
     29 H16         2.7350   -4.2156    5.0099 H         1 <0>         0.4372
     30 H17         1.1505   -3.9721    4.6293 H         1 <0>         0.4370
     31 H18         5.0416   -2.4584    1.8446 H         1 <0>         0.3611
     32 H19         4.2509   -3.7643    1.1849 H         1 <0>         0.3475
     33 H20         1.8353   -5.4527    4.3974 H         1 <0>         0.4416
@<TRIPOS>BOND
     1    1    6 1
     2    1    2 1
     3    1   15 1
     4    1   16 1
     5    2    3 1
     6    2   17 1
     7    2   18 1
     8    3    4 1
     9    3   19 1
    10    3   20 1
    11    4    5 1
    12    4    7 am
    13    5    6 1
    14    5   21 1
    15    5   22 1
    16    6   23 1
    17    6   24 1
    18    7    8 2
    19    7    9 1
    20    9   10 1
    21    9   11 1
    22    9   14 1
    23   11   12 1
    24   11   25 1
    25   11   26 1
    26   12   13 1
    27   12   27 1
    28   12   28 1
    29   13   29 1
    30   13   30 1
    31   13   33 1
    32   14   31 1
    33   14   32 1
@<TRIPOS>MOLECULE
ZINC14949353
   41    42     0     0     0
SMALL
USER_CHARGES
(2S)-2-amino-2-cyclohexyl-1-(1-piperidyl)ethanone
@<TRIPOS>ATOM
      1 C1         -2.7837    2.6114    0.1620 C.3       1 <0>        -0.1272
      2 C2         -2.3014    1.7037   -0.9713 C.3       1 <0>        -0.1214
      3 C3         -0.7883    1.8569   -1.1386 C.3       1 <0>        -0.1259
      4 C4         -0.0887    1.4623    0.1636 C.3       1 <0>        -0.1011
      5 C5         -0.5709    2.3700    1.2969 C.3       1 <0>        -0.1229
      6 C6         -2.0840    2.2168    1.4642 C.3       1 <0>        -0.1215
      7 C7          1.4244    1.6155   -0.0038 C.3       1 <0>         0.0164
      8 H1          1.6891    2.6513   -0.2629 H         1 <0>         0.1540
      9 C8          2.1140    1.2190    1.2762 C.2       1 <0>         0.5012
     10 O1          2.3159    0.0480    1.5187 O.2       1 <0>        -0.5219
     11 N1          2.5065    2.1658    2.1514 N.am      1 <0>        -0.5855
     12 C9          2.1767    3.5792    1.9231 C.3       1 <0>         0.0874
     13 C10         1.4738    4.1254    3.1752 C.3       1 <0>        -0.1408
     14 C11         2.3583    3.8765    4.3991 C.3       1 <0>        -0.1267
     15 C12         2.5671    2.3715    4.5822 C.3       1 <0>        -0.1380
     16 C13         3.2775    1.8048    3.3489 C.3       1 <0>         0.1041
     17 N2          1.8863    0.7501   -1.0972 N.4       1 <0>        -0.6749
     18 H2         -3.8715    2.5013    0.2823 H         1 <0>         0.0739
     19 H3         -2.5456    3.6578   -0.0797 H         1 <0>         0.0677
     20 H4         -2.5395    0.6573   -0.7296 H         1 <0>         0.0698
     21 H5         -2.8044    1.9873   -1.9075 H         1 <0>         0.0769
     22 H6         -0.4416    1.2044   -1.9534 H         1 <0>         0.0615
     23 H7         -0.5502    2.9033   -1.3803 H         1 <0>         0.0816
     24 H8         -0.3269    0.4160    0.4054 H         1 <0>         0.1056
     25 H9         -0.0679    2.0863    2.2331 H         1 <0>         0.0765
     26 H10        -0.3328    3.4164    1.0552 H         1 <0>         0.0785
     27 H11        -2.4307    2.8693    2.2790 H         1 <0>         0.0760
     28 H12        -2.3221    1.1704    1.7059 H         1 <0>         0.0683
     29 H13         3.1007    4.1455    1.7347 H         1 <0>         0.0866
     30 H14         1.5105    3.6642    1.0519 H         1 <0>         0.0868
     31 H15         1.3024    5.2056    3.0576 H         1 <0>         0.0869
     32 H16         0.5092    3.6133    3.3070 H         1 <0>         0.0756
     33 H17         3.3324    4.3661    4.2531 H         1 <0>         0.0705
     34 H18         1.8706    4.2900    5.2942 H         1 <0>         0.0767
     35 H19         3.1827    2.1928    5.4761 H         1 <0>         0.0870
     36 H20         1.5916    1.8781    4.7042 H         1 <0>         0.0702
     37 H21         3.3427    0.7095    3.4266 H         1 <0>         0.1006
     38 H22         4.2901    2.2280    3.2745 H         1 <0>         0.0825
     39 H23         2.9741    0.8603   -1.2175 H         1 <0>         0.4601
     40 H24         1.3829    1.0395   -2.0315 H         1 <0>         0.4609
     41 H25         1.6477   -0.2975   -0.8614 H         1 <0>         0.4638
@<TRIPOS>BOND
     1    1    6 1
     2    1    2 1
     3    1   18 1
     4    1   19 1
     5    2    3 1
     6    2   20 1
     7    2   21 1
     8    3    4 1
     9    3   22 1
    10    3   23 1
    11    4    5 1
    12    4    7 1
    13    4   24 1
    14    5    6 1
    15    5   25 1
    16    5   26 1
    17    6   27 1
    18    6   28 1
    19    7    8 1
    20    7    9 1
    21    7   17 1
    22    9   10 2
    23    9   11 am
    24   11   16 1
    25   11   12 1
    26   12   13 1
    27   12   29 1
    28   12   30 1
    29   13   14 1
    30   13   31 1
    31   13   32 1
    32   14   15 1
    33   14   33 1
    34   14   34 1
    35   15   16 1
    36   15   35 1
    37   15   36 1
    38   16   37 1
    39   16   38 1
    40   17   39 1
    41   17   40 1
    42   17   41 1
@<TRIPOS>MOLECULE
ZINC13529572
   23    23     0     0     0
SMALL
USER_CHARGES
(2S)-2-amino-1-thiazolidin-3-yl-propane-1-thione
@<TRIPOS>ATOM
      1 C1         -2.3024    1.0975   -3.7331 C.3       1 <0>        -0.1860
      2 C2         -0.9115    1.7305   -3.6587 C.3       1 <0>         0.0581
      3 H1         -1.0080    2.8151   -3.6097 H         1 <0>         0.1644
      4 C3         -0.1985    1.2335   -2.4275 C.2       1 <0>         0.2198
      5 S1          1.1174    0.3368   -2.5729 S.2       1 <0>        -0.3955
      6 N1         -0.6701    1.5448   -1.2039 N.pl3     1 <0>        -0.5061
      7 C4         -0.0127    1.0858    0.0080 C.3       1 <0>         0.0773
      8 C5         -0.6885    1.5609    1.3179 C.3       1 <0>        -0.0730
      9 S2         -1.6274    3.0189    0.6861 S.3       1 <0>        -0.2213
     10 C6         -1.8834    2.3717   -1.0250 C.3       1 <0>         0.1023
     11 H2         -2.8742    1.3716   -2.8465 H         1 <0>         0.1074
     12 H3         -2.8180    1.4569   -4.6235 H         1 <0>         0.1063
     13 H4         -2.2058    0.0129   -3.7821 H         1 <0>         0.0948
     14 H5          0.0021   -0.0041    0.0020 H         1 <0>         0.1158
     15 H6          1.0167    1.4442    0.0001 H         1 <0>         0.1168
     16 H7         -1.3592    0.7998    1.7163 H         1 <0>         0.1170
     17 H8          0.0520    1.8606    2.0596 H         1 <0>         0.1423
     18 H9         -1.9145    3.1842   -1.7509 H         1 <0>         0.1299
     19 H10        -2.7852    1.7623   -1.0834 H         1 <0>         0.1249
     20 H11        -0.0373    0.3597   -4.9216 H         1 <0>         0.4444
     21 H12        -0.5643    1.7384   -5.6879 H         1 <0>         0.4407
     22 N2         -0.1188    1.3724   -4.8481 N.4       1 <0>        -0.6278
     23 H13         0.8202    1.7788   -4.7628 H         1 <0>         0.4473
@<TRIPOS>BOND
     1    1    2 1
     2    1   11 1
     3    1   12 1
     4    1   13 1
     5    2    3 1
     6    2    4 1
     7    2   22 1
     8    4    5 2
     9    4    6 1
    10    6   10 1
    11    6    7 1
    12    7    8 1
    13    7   14 1
    14    7   15 1
    15    8    9 1
    16    8   16 1
    17    8   17 1
    18    9   10 1
    19   10   18 1
    20   10   19 1
    21   20   22 1
    22   21   22 1
    23   22   23 1
@<TRIPOS>MOLECULE
ZINC28522906
   39    38     0     0     0
SMALL
USER_CHARGES
(2S)-2-amino-N-pentyl-hexanamide
@<TRIPOS>ATOM
      1 C1         -0.0604    1.1126   -4.9886 C.3       1 <0>        -0.1587
      2 C2         -0.7766    1.6061   -3.7298 C.3       1 <0>        -0.1249
      3 C3         -0.0366    1.0992   -2.4903 C.3       1 <0>        -0.1201
      4 C4         -0.7527    1.5927   -1.2315 C.3       1 <0>        -0.1335
      5 C5         -0.0127    1.0858    0.0080 C.3       1 <0>         0.1146
      6 N1         -0.6984    1.5583    1.2133 N.am      1 <0>        -0.7142
      7 C6         -0.2219    1.2324    2.4312 C.2       1 <0>         0.4982
      8 O1          0.7745    0.5480    2.5293 O.2       1 <0>        -0.5312
      9 C7         -0.9273    1.7184    3.6711 C.3       1 <0>         0.0222
     10 H1         -2.0155    1.6249    3.5401 H         1 <0>         0.1567
     11 C8         -0.5316    3.1704    3.9469 C.3       1 <0>        -0.1420
     12 C9         -1.3409    3.7034    5.1309 C.3       1 <0>        -0.1314
     13 C10        -0.9452    5.1554    5.4068 C.3       1 <0>        -0.1276
     14 C11        -1.7545    5.6884    6.5908 C.3       1 <0>        -0.1610
     15 N2         -0.5417    0.8802    4.8142 N.4       1 <0>        -0.6743
     16 H2         -0.5924    1.4770   -5.8798 H         1 <0>         0.0586
     17 H3         -0.0455    0.0127   -4.9946 H         1 <0>         0.0559
     18 H4          0.9716    1.4933   -4.9963 H         1 <0>         0.0560
     19 H5         -0.7915    2.7060   -3.7238 H         1 <0>         0.0632
     20 H6         -1.8086    1.2254   -3.7220 H         1 <0>         0.0630
     21 H7         -0.0218   -0.0007   -2.4964 H         1 <0>         0.0678
     22 H8          0.9954    1.4798   -2.4981 H         1 <0>         0.0680
     23 H9         -0.7675    2.6926   -1.2255 H         1 <0>         0.0736
     24 H10        -1.7847    1.2121   -1.2237 H         1 <0>         0.0734
     25 H11         0.0021   -0.0141    0.0019 H         1 <0>         0.0776
     26 H12         1.0193    1.4665    0.0002 H         1 <0>         0.0777
     27 H13        -1.6021    2.1791    1.1243 H         1 <0>         0.4334
     28 H14         0.5413    3.2192    4.1844 H         1 <0>         0.0972
     29 H15        -0.7382    3.7822    3.0564 H         1 <0>         0.1139
     30 H16        -2.4138    3.6546    4.8933 H         1 <0>         0.0820
     31 H17        -1.1343    3.0915    6.0214 H         1 <0>         0.0617
     32 H18         0.1277    5.2042    5.6444 H         1 <0>         0.0685
     33 H19        -1.1518    5.7673    4.5163 H         1 <0>         0.0718
     34 H20        -1.4700    6.7323    6.7891 H         1 <0>         0.0643
     35 H21        -1.5479    5.0765    7.4813 H         1 <0>         0.0562
     36 H22        -2.8274    5.6396    6.3532 H         1 <0>         0.0586
     37 H23        -1.0566    1.2350    5.7192 H         1 <0>         0.4603
     38 H24         0.5464    0.9417    4.9634 H         1 <0>         0.4629
     39 H25        -0.8262   -0.1637    4.6159 H         1 <0>         0.4617
@<TRIPOS>BOND
     1    1    2 1
     2    1   16 1
     3    1   17 1
     4    1   18 1
     5    2    3 1
     6    2   19 1
     7    2   20 1
     8    3    4 1
     9    3   21 1
    10    3   22 1
    11    4    5 1
    12    4   23 1
    13    4   24 1
    14    5    6 1
    15    5   25 1
    16    5   26 1
    17    6    7 am
    18    6   27 1
    19    7    8 2
    20    7    9 1
    21    9   10 1
    22    9   11 1
    23    9   15 1
    24   11   12 1
    25   11   28 1
    26   11   29 1
    27   12   13 1
    28   12   30 1
    29   12   31 1
    30   13   14 1
    31   13   32 1
    32   13   33 1
    33   14   34 1
    34   14   35 1
    35   14   36 1
    36   15   37 1
    37   15   38 1
    38   15   39 1
@<TRIPOS>MOLECULE
ZINC40423900
   41    42     0     0     0
SMALL
USER_CHARGES

@<TRIPOS>ATOM
      1 C1         -0.0167    1.3772    0.0096 C.ar      1 <0>        -0.0970
      2 C2          1.1716    2.0840    0.0021 C.ar      1 <0>        -0.1049
      3 C3          2.3763    1.4080   -0.0131 C.ar      1 <0>        -0.0881
      4 C4          2.3957    0.0237   -0.0207 C.ar      1 <0>        -0.1293
      5 C5          1.2091   -0.6821   -0.0131 C.ar      1 <0>        -0.1106
      6 C6          0.0021   -0.0041    0.0020 C.ar      1 <0>        -0.0874
      7 C7          1.5194   -2.1575   -0.0232 C.3       1 <0>         0.1491
      8 N1          2.9781   -2.3062   -0.0374 N.am      1 <0>        -0.5891
      9 C8          3.5439   -0.9534   -0.0361 C.3       1 <0>         0.1400
     10 C9          3.6670   -3.4646   -0.0498 C.2       1 <0>         0.5189
     11 O1          3.0742   -4.5227   -0.0499 O.2       1 <0>        -0.5116
     12 C10         5.1738   -3.4450   -0.0636 C.3       1 <0>         0.0148
     13 H1          5.5330   -2.6566    0.5978 H         1 <0>         0.1678
     14 C11         5.6674   -3.1805   -1.4875 C.3       1 <0>        -0.1458
     15 C12         7.1906   -3.0368   -1.4807 C.3       1 <0>        -0.1323
     16 C13         7.6842   -2.7722   -2.9045 C.3       1 <0>        -0.1559
     17 C14         9.2075   -2.6285   -2.8978 C.3       1 <0>        -0.0097
     18 N2          9.6814   -2.3745   -4.2648 N.4       1 <0>        -0.6397
     19 N3          5.6846   -4.7425    0.3986 N.4       1 <0>        -0.6227
     20 H2         -0.9589    1.9047    0.0259 H         1 <0>         0.1389
     21 H3          1.1580    3.1639    0.0076 H         1 <0>         0.1375
     22 H4          3.3043    1.9603   -0.0193 H         1 <0>         0.1286
     23 H5         -0.9263   -0.5559    0.0083 H         1 <0>         0.1334
     24 H6          1.1088   -2.6275    0.8705 H         1 <0>         0.0980
     25 H7          1.0923   -2.6188   -0.9137 H         1 <0>         0.0971
     26 H8          4.1447   -0.8033   -0.9331 H         1 <0>         0.0875
     27 H9          4.1612   -0.8120    0.8511 H         1 <0>         0.0915
     28 H10         5.3839   -4.0134   -2.1309 H         1 <0>         0.1064
     29 H11         5.2174   -2.2616   -1.8632 H         1 <0>         0.1219
     30 H12         7.4741   -2.2039   -0.8373 H         1 <0>         0.0970
     31 H13         7.6407   -3.9557   -1.1050 H         1 <0>         0.0761
     32 H14         7.4008   -3.6051   -3.5480 H         1 <0>         0.0962
     33 H15         7.2342   -1.8533   -3.2803 H         1 <0>         0.0990
     34 H16         9.4909   -1.7956   -2.2543 H         1 <0>         0.1371
     35 H17         9.6575   -3.5474   -2.5221 H         1 <0>         0.1350
     36 H18         9.4190   -3.1455   -4.8605 H         1 <0>         0.4380
     37 H19         9.2648   -1.5239   -4.6127 H         1 <0>         0.4388
     38 H20         5.3521   -5.4723   -0.2137 H         1 <0>         0.4447
     39 H21         6.6935   -4.7294    0.3894 H         1 <0>         0.4386
     40 H22        10.6859   -2.2797   -4.2604 H         1 <0>         0.4449
     41 H23         5.3591   -4.9170    1.3376 H         1 <0>         0.4475
@<TRIPOS>BOND
     1    1    6 ar
     2    1    2 ar
     3    1   20 1
     4    2    3 ar
     5    2   21 1
     6    3    4 ar
     7    3   22 1
     8    4    9 1
     9    4    5 ar
    10    5    6 ar
    11    5    7 1
    12    6   23 1
    13    7    8 1
    14    7   24 1
    15    7   25 1
    16    8    9 1
    17    8   10 am
    18    9   26 1
    19    9   27 1
    20   10   11 2
    21   10   12 1
    22   12   13 1
    23   12   14 1
    24   12   19 1
    25   14   15 1
    26   14   28 1
    27   14   29 1
    28   15   16 1
    29   15   30 1
    30   15   31 1
    31   16   17 1
    32   16   32 1
    33   16   33 1
    34   17   18 1
    35   17   34 1
    36   17   35 1
    37   18   36 1
    38   18   37 1
    39   18   40 1
    40   19   38 1
    41   19   39 1
    42   19   41 1
@<TRIPOS>MOLECULE
ZINC40423900
   40    41     0     0     0
SMALL
USER_CHARGES

@<TRIPOS>ATOM
      1 C1         -0.0167    1.3772    0.0096 C.ar      1 <0>        -0.1068
      2 C2          1.1716    2.0840    0.0021 C.ar      1 <0>        -0.1126
      3 C3          2.3763    1.4080   -0.0131 C.ar      1 <0>        -0.0934
      4 C4          2.3957    0.0237   -0.0207 C.ar      1 <0>        -0.1181
      5 C5          1.2091   -0.6821   -0.0131 C.ar      1 <0>        -0.1040
      6 C6          0.0021   -0.0041    0.0020 C.ar      1 <0>        -0.0927
      7 C7          1.5194   -2.1575   -0.0232 C.3       1 <0>         0.1492
      8 N1          2.9781   -2.3062   -0.0374 N.am      1 <0>        -0.6164
      9 C8          3.5439   -0.9534   -0.0361 C.3       1 <0>         0.1486
     10 C9          3.6670   -3.4646   -0.0498 C.2       1 <0>         0.5407
     11 O1          3.0742   -4.5227   -0.0499 O.2       1 <0>        -0.5141
     12 C10         5.1738   -3.4450   -0.0636 C.3       1 <0>         0.0841
     13 H1          5.5330   -2.6566    0.5978 H         1 <0>         0.1063
     14 C11         5.6674   -3.1805   -1.4875 C.3       1 <0>        -0.1551
     15 C12         7.1906   -3.0368   -1.4807 C.3       1 <0>        -0.1190
     16 C13         7.6842   -2.7722   -2.9045 C.3       1 <0>        -0.1523
     17 C14         9.2075   -2.6285   -2.8978 C.3       1 <0>        -0.0098
     18 N2          9.6814   -2.3745   -4.2648 N.4       1 <0>        -0.6386
     19 N3          5.6846   -4.7425    0.3986 N.3       1 <0>        -0.8270
     20 H2         -0.9589    1.9047    0.0259 H         1 <0>         0.1327
     21 H3          1.1580    3.1639    0.0076 H         1 <0>         0.1317
     22 H4          3.3043    1.9603   -0.0193 H         1 <0>         0.1255
     23 H5         -0.9263   -0.5559    0.0083 H         1 <0>         0.1291
     24 H6          1.1088   -2.6275    0.8705 H         1 <0>         0.0869
     25 H7          1.0923   -2.6188   -0.9137 H         1 <0>         0.0851
     26 H8          4.1447   -0.8033   -0.9331 H         1 <0>         0.0786
     27 H9          4.1612   -0.8120    0.8511 H         1 <0>         0.0836
     28 H10         5.3839   -4.0134   -2.1309 H         1 <0>         0.0769
     29 H11         5.2174   -2.2616   -1.8632 H         1 <0>         0.0787
     30 H12         7.4741   -2.2039   -0.8373 H         1 <0>         0.0813
     31 H13         7.6407   -3.9557   -1.1050 H         1 <0>         0.0769
     32 H14         7.4008   -3.6051   -3.5480 H         1 <0>         0.0891
     33 H15         7.2342   -1.8533   -3.2803 H         1 <0>         0.0898
     34 H16         9.4909   -1.7956   -2.2543 H         1 <0>         0.1349
     35 H17         9.6575   -3.5474   -2.5221 H         1 <0>         0.1346
     36 H18         9.4190   -3.1455   -4.8605 H         1 <0>         0.4359
     37 H19         9.2648   -1.5239   -4.6127 H         1 <0>         0.4357
     38 H20         5.3653   -5.4904   -0.1987 H         1 <0>         0.3561
     39 H21        10.6859   -2.2797   -4.2604 H         1 <0>         0.4396
     40 H22         6.6917   -4.7336    0.4599 H         1 <0>         0.3480
@<TRIPOS>BOND
     1    1    6 ar
     2    1    2 ar
     3    1   20 1
     4    2    3 ar
     5    2   21 1
     6    3    4 ar
     7    3   22 1
     8    4    9 1
     9    4    5 ar
    10    5    6 ar
    11    5    7 1
    12    6   23 1
    13    7    8 1
    14    7   24 1
    15    7   25 1
    16    8    9 1
    17    8   10 am
    18    9   26 1
    19    9   27 1
    20   10   11 2
    21   10   12 1
    22   12   13 1
    23   12   14 1
    24   12   19 1
    25   14   15 1
    26   14   28 1
    27   14   29 1
    28   15   16 1
    29   15   30 1
    30   15   31 1
    31   16   17 1
    32   16   32 1
    33   16   33 1
    34   17   18 1
    35   17   34 1
    36   17   35 1
    37   18   36 1
    38   18   37 1
    39   18   39 1
    40   19   38 1
    41   19   40 1
@<TRIPOS>MOLECULE
ZINC26396245
   41    42     0     0     0
SMALL
USER_CHARGES
6-[2-[[2-[(2S)-2-cyanopyrrolidin-1-yl]-2-oxo-ethyl]amino]ethylamino]pyridine-3-carbonitrile
@<TRIPOS>ATOM
      1 C1         -1.2361    2.1230    0.0194 C.ar      1 <0>         0.0169
      2 C2         -1.2070    3.4919    0.0324 C.ar      1 <0>        -0.2402
      3 C3          0.0211    4.1497    0.0238 C.ar      1 <0>         0.4237
      4 N1          1.1589    3.4690    0.0092 N.ar      1 <0>        -0.5333
      5 C4          1.1761    2.1523    0.0024 C.ar      1 <0>         0.2112
      6 C5         -0.0173    1.4278    0.0099 C.ar      1 <0>        -0.1260
      7 C6          0.0021   -0.0041    0.0020 C.1       1 <0>         0.2487
      8 N2          0.0175   -1.1399   -0.0042 N.1       1 <0>        -0.3998
      9 N3          0.0540    5.5352    0.0300 N.pl3     1 <0>        -0.7336
     10 C7         -1.1970    6.2976    0.0461 C.3       1 <0>         0.1057
     11 C8         -0.8818    7.7948    0.0500 C.3       1 <0>        -0.0116
     12 N4         -2.1361    8.5592    0.0661 N.4       1 <0>        -0.5261
     13 C9         -1.8720   10.0042    0.0704 C.3       1 <0>        -0.0189
     14 C10        -3.1792   10.7538    0.0869 C.2       1 <0>         0.5141
     15 O1         -4.2277   10.1443    0.0945 O.2       1 <0>        -0.5185
     16 N5         -3.1832   12.1015    0.0934 N.am      1 <0>        -0.5963
     17 C11        -1.9878   12.9643    0.0920 C.3       1 <0>         0.0807
     18 C12        -2.4601   14.3013    0.7102 C.3       1 <0>        -0.1324
     19 C13        -3.8981   14.4204    0.1396 C.3       1 <0>        -0.1221
     20 C14        -4.3804   12.9548    0.1093 C.3       1 <0>         0.2459
     21 H1         -5.0114   12.6877    0.9698 H         1 <0>         0.1329
     22 C15        -5.1832   12.7136   -1.1007 C.1       1 <0>         0.1755
     23 N6         -5.8027   12.5275   -2.0345 N.1       1 <0>        -0.3864
     24 H2         -2.1757    1.5906    0.0209 H         1 <0>         0.1473
     25 H3         -2.1276    4.0565    0.0443 H         1 <0>         0.1376
     26 H4          2.1207    1.6289   -0.0095 H         1 <0>         0.1735
     27 H5          1.0194    6.0625    0.0228 H         1 <0>         0.4387
     28 H6         -1.7889    6.0498   -0.8474 H         1 <0>         0.0872
     29 H7         -1.7710    6.0414    0.9488 H         1 <0>         0.0878
     30 H8         -0.2899    8.0425    0.9435 H         1 <0>         0.1415
     31 H9         -0.3078    8.0510   -0.8527 H         1 <0>         0.1406
     32 H10        -2.7279    8.3115   -0.8274 H         1 <0>         0.4625
     33 H11        -1.2871   10.2674    0.9641 H         1 <0>         0.1643
     34 H12        -1.3049   10.2760   -0.8321 H         1 <0>         0.1620
     35 H13        -1.1962   12.4950    0.6946 H         1 <0>         0.0905
     36 H14        -1.6325   13.0970   -0.9406 H         1 <0>         0.0878
     37 H15        -2.4337   14.2275    1.8074 H         1 <0>         0.0920
     38 H16        -1.7944   15.1128    0.3812 H         1 <0>         0.1044
     39 H17        -4.5053   15.0521    0.8046 H         1 <0>         0.1132
     40 H18        -3.8588   14.8739   -0.8618 H         1 <0>         0.0963
     41 H19        -2.7102    8.3029    0.9687 H         1 <0>         0.4627
@<TRIPOS>BOND
     1    1    6 ar
     2    1    2 ar
     3    1   24 1
     4    2    3 ar
     5    2   25 1
     6    3    4 ar
     7    3    9 1
     8    4    5 ar
     9    5    6 ar
    10    5   26 1
    11    6    7 1
    12    7    8 3
    13    9   10 1
    14    9   27 1
    15   10   11 1
    16   10   28 1
    17   10   29 1
    18   11   12 1
    19   11   30 1
    20   11   31 1
    21   12   13 1
    22   12   32 1
    23   12   41 1
    24   13   14 1
    25   13   33 1
    26   13   34 1
    27   14   15 2
    28   14   16 am
    29   16   20 1
    30   16   17 1
    31   17   18 1
    32   17   35 1
    33   17   36 1
    34   18   19 1
    35   18   37 1
    36   18   38 1
    37   19   20 1
    38   19   39 1
    39   19   40 1
    40   20   21 1
    41   20   22 1
    42   22   23 3
@<TRIPOS>MOLECULE
ZINC13529569
   25    25     0     0     0
SMALL
USER_CHARGES
(2S)-2-amino-1-pyrrolidin-1-yl-propane-1-thione
@<TRIPOS>ATOM
      1 C1         -1.3481    3.2681    1.2855 C.3       1 <0>        -0.1818
      2 C2         -1.3016    2.3976    0.0281 C.3       1 <0>         0.0590
      3 H1         -1.5180    3.0109   -0.8466 H         1 <0>         0.1593
      4 C3          0.0702    1.7896   -0.1115 C.2       1 <0>         0.2372
      5 S1          0.2888    0.2334    0.1839 S.2       1 <0>        -0.4265
      6 N1          1.1117    2.5564   -0.4908 N.pl3     1 <0>        -0.5074
      7 C4          1.0333    3.9660   -0.9011 C.3       1 <0>         0.0617
      8 C5          2.4629    4.4167   -1.2680 C.3       1 <0>        -0.1347
      9 C6          3.1745    3.0769   -1.5936 C.3       1 <0>        -0.1362
     10 C7          2.5173    2.1186   -0.5692 C.3       1 <0>         0.0838
     11 H2         -0.5477    4.0068    1.2457 H         1 <0>         0.1049
     12 H3         -2.3103    3.7774    1.3394 H         1 <0>         0.1038
     13 H4         -1.2196    2.6401    2.1671 H         1 <0>         0.0948
     14 H5          0.3780    4.0644   -1.7665 H         1 <0>         0.0924
     15 H6          0.6559    4.5715   -0.0770 H         1 <0>         0.0927
     16 H7          2.9429    4.9133   -0.4248 H         1 <0>         0.0902
     17 H8          2.4499    5.0687   -2.1414 H         1 <0>         0.0989
     18 H9          4.2484    3.1536   -1.4237 H         1 <0>         0.1049
     19 H10         2.9637    2.7608   -2.6153 H         1 <0>         0.0865
     20 H11         2.9993    2.2148    0.4037 H         1 <0>         0.1017
     21 H12         2.5748    1.0889   -0.9219 H         1 <0>         0.1129
     22 H13        -2.3365    0.7779   -0.7094 H         1 <0>         0.4431
     23 H14        -2.1238    0.7449    0.9397 H         1 <0>         0.4451
     24 N2         -2.3236    1.3418    0.1388 N.4       1 <0>        -0.6286
     25 H15        -3.2452    1.7762    0.2663 H         1 <0>         0.4424
@<TRIPOS>BOND
     1    1    2 1
     2    1   11 1
     3    1   12 1
     4    1   13 1
     5    2    3 1
     6    2    4 1
     7    2   24 1
     8    4    5 2
     9    4    6 1
    10    6   10 1
    11    6    7 1
    12    7    8 1
    13    7   14 1
    14    7   15 1
    15    8    9 1
    16    8   16 1
    17    8   17 1
    18    9   10 1
    19    9   18 1
    20    9   19 1
    21   10   20 1
    22   10   21 1
    23   22   24 1
    24   23   24 1
    25   24   25 1
@<TRIPOS>MOLECULE
ZINC03931585
   32    32     0     0     0
SMALL
USER_CHARGES
2-amino-3-methyl-1-thiazolidin-3-yl-pentan-1-one
@<TRIPOS>ATOM
      1 C1          4.5543    2.2439   -2.3610 C.3       1 <0>        -0.1608
      2 C2          3.4512    1.2091   -2.5920 C.3       1 <0>        -0.1309
      3 C3          2.0916    1.8325   -2.2698 C.3       1 <0>        -0.1039
      4 H1          1.9620    2.7437   -2.8538 H         1 <0>         0.1082
      5 C4          2.0253    2.1687   -0.7786 C.3       1 <0>        -0.1617
      6 C5          0.9802    0.8406   -2.6188 C.3       1 <0>         0.0152
      7 H2          1.0809   -0.0507   -1.9995 H         1 <0>         0.1585
      8 C6         -0.3610    1.4794   -2.3654 C.2       1 <0>         0.5122
      9 O1         -0.8455    2.2214   -3.1934 O.2       1 <0>        -0.5051
     10 N1         -1.0221    1.2261   -1.2185 N.am      1 <0>        -0.5948
     11 C7         -2.2685    1.9063   -0.8782 C.3       1 <0>         0.0918
     12 C8         -2.4030    2.0769    0.6637 C.3       1 <0>        -0.0727
     13 S1         -1.6927    0.4456    1.1819 S.3       1 <0>        -0.2367
     14 C9         -0.5293    0.2449   -0.2332 C.3       1 <0>         0.1174
     15 H3          5.5229    1.7998   -2.5906 H         1 <0>         0.0707
     16 H4          4.3865    3.1045   -3.0085 H         1 <0>         0.0629
     17 H5          4.5393    2.5645   -1.3193 H         1 <0>         0.0689
     18 H6          3.6189    0.3485   -1.9445 H         1 <0>         0.0843
     19 H7          3.4661    0.8885   -3.6337 H         1 <0>         0.0599
     20 H8          1.0864    2.6785   -0.5625 H         1 <0>         0.0664
     21 H9          2.0819    1.2493   -0.1960 H         1 <0>         0.0725
     22 H10         2.8602    2.8179   -0.5151 H         1 <0>         0.0927
     23 H11        -2.2816    2.8887   -1.3503 H         1 <0>         0.1107
     24 H12        -3.1097    1.3198   -1.2477 H         1 <0>         0.0965
     25 H13        -1.8009    2.9087    1.0294 H         1 <0>         0.1091
     26 H14        -3.4452    2.1774    0.9669 H         1 <0>         0.1391
     27 H15        -0.5841   -0.7664   -0.6363 H         1 <0>         0.1136
     28 H16         0.4904    0.4824    0.0700 H         1 <0>         0.1126
     29 H17         0.9943    1.2766   -4.6308 H         1 <0>         0.4463
     30 H18         1.9485   -0.0214   -4.2181 H         1 <0>         0.4450
     31 N2          1.0646    0.4515   -4.0376 N.4       1 <0>        -0.6321
     32 H19         0.2916   -0.1871   -4.2589 H         1 <0>         0.4442
@<TRIPOS>BOND
     1    1    2 1
     2    1   15 1
     3    1   16 1
     4    1   17 1
     5    2    3 1
     6    2   18 1
     7    2   19 1
     8    3    4 1
     9    3    5 1
    10    3    6 1
    11    5   20 1
    12    5   21 1
    13    5   22 1
    14    6    7 1
    15    6    8 1
    16    6   31 1
    17    8    9 2
    18    8   10 am
    19   10   14 1
    20   10   11 1
    21   11   12 1
    22   11   23 1
    23   11   24 1
    24   12   13 1
    25   12   25 1
    26   12   26 1
    27   13   14 1
    28   14   27 1
    29   14   28 1
    30   29   31 1
    31   30   31 1
    32   31   32 1
@<TRIPOS>MOLECULE
ZINC13561228
   46    47     0     0     0
SMALL
USER_CHARGES

@<TRIPOS>ATOM
      1 C1         -0.0167    1.3782    0.0096 C.ar      1 <0>        -0.0779
      2 C2          1.1706    2.0858    0.0021 C.ar      1 <0>        -0.1078
      3 C3          2.3780    1.4104   -0.0130 C.ar      1 <0>        -0.0040
      4 C4          2.3961    0.0270   -0.0206 C.ar      1 <0>        -0.1076
      5 C5          1.2082   -0.6795   -0.0130 C.ar      1 <0>        -0.0777
      6 C6          0.0021   -0.0041    0.0020 C.ar      1 <0>        -0.1693
      7 C7         -1.2928   -0.7750    0.0107 C.3       1 <0>         0.0468
      8 N1         -1.7272   -1.0180   -1.3714 N.4       1 <0>        -0.5080
      9 C8         -2.9895   -1.7695   -1.3629 C.3       1 <0>        -0.0113
     10 C9         -3.4420   -2.0226   -2.8024 C.3       1 <0>        -0.1915
     11 C10        -4.7566   -2.8053   -2.7936 C.3       1 <0>         0.0853
     12 H1         -5.4935   -2.2710   -2.1940 H         1 <0>         0.1156
     13 C11        -5.2656   -2.9482   -4.2048 C.2       1 <0>         0.5177
     14 O1         -5.0887   -3.9835   -4.8113 O.2       1 <0>        -0.5143
     15 N2         -5.9173   -1.9256   -4.7930 N.am      1 <0>        -0.6085
     16 C12        -6.1340   -0.6632   -4.0733 C.3       1 <0>         0.1010
     17 C13        -5.6021    0.4902   -4.9298 C.3       1 <0>        -0.1350
     18 C14        -6.2540    0.4356   -6.3133 C.3       1 <0>        -0.1252
     19 C15        -5.8896   -0.8831   -6.9991 C.3       1 <0>        -0.1352
     20 C16        -6.4194   -2.0499   -6.1682 C.3       1 <0>         0.1077
     21 N3         -4.5295   -4.1374   -2.2176 N.3       1 <0>        -0.8248
     22 Cl1         3.8696    2.2984   -0.0231 Cl        1 <0>        -0.0351
     23 H2         -0.9592    1.9053    0.0259 H         1 <0>         0.1419
     24 H3          1.1558    3.1656    0.0076 H         1 <0>         0.1479
     25 H4          3.3383   -0.5007   -0.0327 H         1 <0>         0.1480
     26 H5          1.2222   -1.7594   -0.0193 H         1 <0>         0.1418
     27 H6         -1.1447   -1.7283    0.5180 H         1 <0>         0.1414
     28 H7         -2.0551   -0.1989    0.5352 H         1 <0>         0.1420
     29 H8         -1.8643   -0.1355   -1.8410 H         1 <0>         0.4290
     30 H9         -2.8414   -2.7228   -0.8557 H         1 <0>         0.1331
     31 H10        -3.7518   -1.1934   -0.8384 H         1 <0>         0.1399
     32 H11        -3.5900   -1.0693   -3.3097 H         1 <0>         0.1008
     33 H12        -2.6796   -2.5987   -3.3269 H         1 <0>         0.0982
     34 H13        -7.1999   -0.5234   -3.8934 H         1 <0>         0.0789
     35 H14        -5.6011   -0.6883   -3.1227 H         1 <0>         0.0775
     36 H15        -5.8428    1.4396   -4.4514 H         1 <0>         0.0799
     37 H16        -4.5210    0.3982   -5.0331 H         1 <0>         0.0625
     38 H17        -7.3367    0.5029   -6.2075 H         1 <0>         0.0701
     39 H18        -5.8958    1.2698   -6.9167 H         1 <0>         0.0712
     40 H19        -6.3349   -0.9112   -7.9936 H         1 <0>         0.0827
     41 H20        -4.8057   -0.9623   -7.0829 H         1 <0>         0.0649
     42 H21        -6.0748   -2.9898   -6.5994 H         1 <0>         0.0962
     43 H22        -7.5091   -2.0258   -6.1629 H         1 <0>         0.0739
     44 H23        -3.8496   -4.6531   -2.7561 H         1 <0>         0.3609
     45 H24        -4.2494   -4.0703   -1.2506 H         1 <0>         0.3473
     46 H25        -1.0216   -1.5513   -1.8569 H         1 <0>         0.4291
@<TRIPOS>BOND
     1    1    6 ar
     2    1    2 ar
     3    1   23 1
     4    2    3 ar
     5    2   24 1
     6    3    4 ar
     7    3   22 1
     8    4    5 ar
     9    4   25 1
    10    5    6 ar
    11    5   26 1
    12    6    7 1
    13    7    8 1
    14    7   27 1
    15    7   28 1
    16    8    9 1
    17    8   29 1
    18    8   46 1
    19    9   10 1
    20    9   30 1
    21    9   31 1
    22   10   11 1
    23   10   32 1
    24   10   33 1
    25   11   12 1
    26   11   13 1
    27   11   21 1
    28   13   14 2
    29   13   15 am
    30   15   20 1
    31   15   16 1
    32   16   17 1
    33   16   34 1
    34   16   35 1
    35   17   18 1
    36   17   36 1
    37   17   37 1
    38   18   19 1
    39   18   38 1
    40   18   39 1
    41   19   20 1
    42   19   40 1
    43   19   41 1
    44   20   42 1
    45   20   43 1
    46   21   44 1
    47   21   45 1
