@<TRIPOS>MOLECULE
ZINC03775140
   62    64     0     0     0
SMALL
USER_CHARGES

@<TRIPOS>ATOM
      1 C1         -0.0173    1.4248    0.0099 C.3       1 <0>         0.0171
      2 O1          0.0021   -0.0041    0.0020 O.3       1 <0>        -0.2760
      3 C2          0.6048   -0.6061   -1.0540 C.ar      1 <0>         0.2490
      4 C3          1.1714    0.1577   -2.0595 C.ar      1 <0>        -0.2968
      5 C4          1.7875   -0.4643   -3.1379 C.ar      1 <0>         0.3045
      6 C5          1.8368   -1.8562   -3.2112 C.ar      1 <0>        -0.1599
      7 C6          1.2804   -2.6188   -2.2247 C.ar      1 <0>         0.0104
      8 C7          0.6619   -2.0064   -1.1291 C.ar      1 <0>        -0.2378
      9 C8          0.0677   -2.8282   -0.0619 C.2       1 <0>         0.5777
     10 O2         -0.4739   -2.2937    0.8871 O.2       1 <0>        -0.5075
     11 N1          0.1238   -4.1727   -0.1363 N.am      1 <0>        -0.7330
     12 C9         -0.4675   -4.9905    0.9257 C.3       1 <0>         0.1404
     13 H1         -1.3642   -4.5012    1.3060 H         1 <0>         0.1248
     14 C10         0.5437   -5.1622    2.0629 C.3       1 <0>        -0.1546
     15 C11         1.7671   -5.9184    1.5404 C.3       1 <0>        -0.0167
     16 N2          1.3566   -7.2378    1.0453 N.4       1 <0>        -0.3759
     17 C12         0.4423   -7.0806   -0.0921 C.3       1 <0>        -0.0388
     18 C13        -0.8339   -6.3685    0.3670 C.3       1 <0>         0.0659
     19 H2         -1.3203   -6.9585    1.1438 H         1 <0>         0.1015
     20 O3         -1.7219   -6.2131   -0.7418 O.3       1 <0>        -0.3502
     21 C14        -2.6322   -7.3011   -0.9143 C.3       1 <0>         0.0179
     22 C15         2.5438   -7.9895    0.6171 C.3       1 <0>        -0.0062
     23 C16         3.4343   -8.2703    1.8292 C.3       1 <0>        -0.1507
     24 C17         4.6708   -9.0533    1.3832 C.3       1 <0>         0.0614
     25 O4          5.5024   -9.3155    2.5152 O.3       1 <0>        -0.3099
     26 C18         6.6507  -10.0076    2.2904 C.ar      1 <0>         0.1104
     27 C19         6.9722  -10.4203    1.0058 C.ar      1 <0>        -0.1786
     28 C20         8.1394  -11.1237    0.7787 C.ar      1 <0>        -0.1136
     29 C21         8.9878  -11.4170    1.8328 C.ar      1 <0>         0.0730
     30 C22         8.6679  -11.0061    3.1156 C.ar      1 <0>        -0.1109
     31 C23         7.5046  -10.2969    3.3445 C.ar      1 <0>        -0.1156
     32 F1         10.1287  -12.1053    1.6094 F         1 <0>        -0.1339
     33 Cl1         2.6089   -2.6229   -4.5639 Cl        1 <0>        -0.0623
     34 N3          2.3569    0.3038   -4.1485 N.pl3     1 <0>        -0.8495
     35 H3          1.0053    1.8021    0.0021 H         1 <0>         0.0609
     36 H4         -0.5445    1.7859   -0.8732 H         1 <0>         0.0614
     37 H5         -0.5275    1.7763    0.9067 H         1 <0>         0.1085
     38 H6          1.1342    1.2357   -2.0059 H         1 <0>         0.1464
     39 H7          1.3215   -3.6961   -2.2880 H         1 <0>         0.1333
     40 H8          0.5557   -4.5989   -0.8931 H         1 <0>         0.3942
     41 H9          0.8503   -4.1821    2.4284 H         1 <0>         0.1283
     42 H10         0.0859   -5.7273    2.8748 H         1 <0>         0.1026
     43 H11         2.2242   -5.3523    0.7288 H         1 <0>         0.1317
     44 H12         2.4891   -6.0421    2.3475 H         1 <0>         0.1399
     45 H13         0.9276   -6.4898   -0.8690 H         1 <0>         0.1341
     46 H14         0.1862   -8.0624   -0.4903 H         1 <0>         0.1380
     47 H15        -2.0715   -8.2215   -1.0778 H         1 <0>         0.0481
     48 H16        -3.2481   -7.4047   -0.0210 H         1 <0>         0.0566
     49 H17        -3.2712   -7.1071   -1.7758 H         1 <0>         0.1042
     50 H18         2.2339   -8.9329    0.1676 H         1 <0>         0.1368
     51 H19         3.1003   -7.4039   -0.1147 H         1 <0>         0.1356
     52 H20         3.7442   -7.3269    2.2786 H         1 <0>         0.1012
     53 H21         2.8778   -8.8559    2.5610 H         1 <0>         0.1013
     54 H22         4.3608   -9.9967    0.9337 H         1 <0>         0.0740
     55 H23         5.2272   -8.4676    0.6514 H         1 <0>         0.0740
     56 H24         6.3103  -10.1922    0.1835 H         1 <0>         0.1353
     57 H25         8.3900  -11.4451   -0.2214 H         1 <0>         0.1422
     58 H26         9.3304  -11.2359    3.9370 H         1 <0>         0.1482
     59 H27         7.2577   -9.9722    4.3445 H         1 <0>         0.1439
     60 H28         2.3233    1.2719   -4.0992 H         1 <0>         0.4097
     61 H29         2.7876   -0.1289   -4.9023 H         1 <0>         0.4089
     62 H30         0.8896   -7.7426    1.7837 H         1 <0>         0.4252
@<TRIPOS>BOND
     1    1    2 1
     2    1   35 1
     3    1   36 1
     4    1   37 1
     5    2    3 1
     6    3    8 ar
     7    3    4 ar
     8    4    5 ar
     9    4   38 1
    10    5    6 ar
    11    5   34 1
    12    6    7 ar
    13    6   33 1
    14    7    8 ar
    15    7   39 1
    16    8    9 1
    17    9   10 2
    18    9   11 am
    19   11   12 1
    20   11   40 1
    21   12   13 1
    22   12   18 1
    23   12   14 1
    24   14   15 1
    25   14   41 1
    26   14   42 1
    27   15   16 1
    28   15   43 1
    29   15   44 1
    30   16   17 1
    31   16   22 1
    32   16   62 1
    33   17   18 1
    34   17   45 1
    35   17   46 1
    36   18   19 1
    37   18   20 1
    38   20   21 1
    39   21   47 1
    40   21   48 1
    41   21   49 1
    42   22   23 1
    43   22   50 1
    44   22   51 1
    45   23   24 1
    46   23   52 1
    47   23   53 1
    48   24   25 1
    49   24   54 1
    50   24   55 1
    51   25   26 1
    52   26   31 ar
    53   26   27 ar
    54   27   28 ar
    55   27   56 1
    56   28   29 ar
    57   28   57 1
    58   29   30 ar
    59   29   32 1
    60   30   31 ar
    61   30   58 1
    62   31   59 1
    63   34   60 1
    64   34   61 1
@<TRIPOS>MOLECULE
ZINC03830564
   62    64     0     0     0
SMALL
USER_CHARGES

@<TRIPOS>ATOM
      1 C1         -0.0173    1.4248    0.0099 C.3       1 <0>         0.0173
      2 O1          0.0021   -0.0041    0.0020 O.3       1 <0>        -0.2768
      3 C2          0.6048   -0.6061   -1.0540 C.ar      1 <0>         0.2482
      4 C3          1.1714    0.1577   -2.0595 C.ar      1 <0>        -0.2974
      5 C4          1.7875   -0.4643   -3.1379 C.ar      1 <0>         0.3044
      6 C5          1.8368   -1.8562   -3.2112 C.ar      1 <0>        -0.1594
      7 C6          1.2804   -2.6188   -2.2247 C.ar      1 <0>         0.0124
      8 C7          0.6619   -2.0064   -1.1291 C.ar      1 <0>        -0.2376
      9 C8          0.0677   -2.8282   -0.0619 C.2       1 <0>         0.5803
     10 O2         -0.4739   -2.2937    0.8871 O.2       1 <0>        -0.5144
     11 N1          0.1238   -4.1727   -0.1363 N.am      1 <0>        -0.7279
     12 C9         -0.4675   -4.9905    0.9257 C.3       1 <0>         0.1426
     13 H1         -0.3382   -4.4904    1.8855 H         1 <0>         0.1147
     14 C10        -1.9606   -5.1884    0.6484 C.3       1 <0>        -0.1574
     15 C11        -2.5547   -6.1082    1.7173 C.3       1 <0>        -0.0121
     16 N2         -1.8729   -7.4076    1.6837 N.4       1 <0>        -0.3780
     17 C12        -0.4544   -7.2346    2.0193 C.3       1 <0>        -0.0308
     18 C13         0.2219   -6.3574    0.9634 C.3       1 <0>         0.0634
     19 H2          0.1375   -6.8346   -0.0130 H         1 <0>         0.0897
     20 O3          1.6015   -6.1871    1.2946 O.3       1 <0>        -0.3498
     21 C14         2.4612   -7.1803    0.7321 C.3       1 <0>         0.0175
     22 C15        -2.4981   -8.3123    2.6576 C.3       1 <0>        -0.0056
     23 C16        -3.9400   -8.5999    2.2341 C.3       1 <0>        -0.1510
     24 C17        -4.5912   -9.5422    3.2484 C.3       1 <0>         0.0612
     25 O4         -5.9378   -9.8107    2.8528 O.3       1 <0>        -0.3101
     26 C18        -6.6627  -10.6375    3.6523 C.ar      1 <0>         0.1103
     27 C19        -6.0908  -11.1740    4.7964 C.ar      1 <0>        -0.1786
     28 C20        -6.8286  -12.0140    5.6079 C.ar      1 <0>        -0.1136
     29 C21        -8.1381  -12.3209    5.2793 C.ar      1 <0>         0.0729
     30 C22        -8.7100  -11.7865    4.1373 C.ar      1 <0>        -0.1110
     31 C23        -7.9767  -10.9409    3.3276 C.ar      1 <0>        -0.1157
     32 F1         -8.8583  -13.1429    6.0736 F         1 <0>        -0.1339
     33 Cl1         2.6089   -2.6229   -4.5639 Cl        1 <0>        -0.0612
     34 N3          2.3569    0.3038   -4.1485 N.pl3     1 <0>        -0.8498
     35 H3          1.0053    1.8021    0.0021 H         1 <0>         0.0610
     36 H4         -0.5445    1.7859   -0.8732 H         1 <0>         0.0608
     37 H5         -0.5275    1.7763    0.9067 H         1 <0>         0.1075
     38 H6          1.1342    1.2357   -2.0059 H         1 <0>         0.1460
     39 H7          1.3215   -3.6961   -2.2880 H         1 <0>         0.1366
     40 H8          0.5557   -4.5989   -0.8931 H         1 <0>         0.4011
     41 H9         -2.4669   -4.2235    0.6762 H         1 <0>         0.1280
     42 H10        -2.0914   -5.6407   -0.3346 H         1 <0>         0.0936
     43 H11        -2.4236   -5.6548    2.6998 H         1 <0>         0.1373
     44 H12        -3.6177   -6.2510    1.5230 H         1 <0>         0.1408
     45 H13        -0.3681   -6.7573    2.9954 H         1 <0>         0.1434
     46 H14         0.0331   -8.2090    2.0480 H         1 <0>         0.1370
     47 H15         2.1631   -8.1650    1.0923 H         1 <0>         0.0484
     48 H16         2.3857   -7.1529   -0.3549 H         1 <0>         0.0550
     49 H17         3.4905   -6.9808    1.0300 H         1 <0>         0.1046
     50 H18        -1.9380   -9.2465    2.6975 H         1 <0>         0.1365
     51 H19        -2.4951   -7.8445    3.6421 H         1 <0>         0.1371
     52 H20        -4.5001   -7.6657    2.1942 H         1 <0>         0.1015
     53 H21        -3.9430   -9.0676    1.2495 H         1 <0>         0.1005
     54 H22        -4.0310  -10.4764    3.2882 H         1 <0>         0.0740
     55 H23        -4.5881   -9.0744    4.2329 H         1 <0>         0.0745
     56 H24        -5.0691  -10.9353    5.0526 H         1 <0>         0.1356
     57 H25        -6.3836  -12.4318    6.4989 H         1 <0>         0.1423
     58 H26        -9.7315  -12.0270    3.8820 H         1 <0>         0.1482
     59 H27        -8.4246  -10.5203    2.4394 H         1 <0>         0.1438
     60 H28         2.3233    1.2719   -4.0992 H         1 <0>         0.4092
     61 H29         2.7876   -0.1289   -4.9023 H         1 <0>         0.4089
     62 H30        -1.9528   -7.8044    0.7595 H         1 <0>         0.4239
@<TRIPOS>BOND
     1    1    2 1
     2    1   35 1
     3    1   36 1
     4    1   37 1
     5    2    3 1
     6    3    8 ar
     7    3    4 ar
     8    4    5 ar
     9    4   38 1
    10    5    6 ar
    11    5   34 1
    12    6    7 ar
    13    6   33 1
    14    7    8 ar
    15    7   39 1
    16    8    9 1
    17    9   10 2
    18    9   11 am
    19   11   12 1
    20   11   40 1
    21   12   13 1
    22   12   18 1
    23   12   14 1
    24   14   15 1
    25   14   41 1
    26   14   42 1
    27   15   16 1
    28   15   43 1
    29   15   44 1
    30   16   17 1
    31   16   22 1
    32   16   62 1
    33   17   18 1
    34   17   45 1
    35   17   46 1
    36   18   19 1
    37   18   20 1
    38   20   21 1
    39   21   47 1
    40   21   48 1
    41   21   49 1
    42   22   23 1
    43   22   50 1
    44   22   51 1
    45   23   24 1
    46   23   52 1
    47   23   53 1
    48   24   25 1
    49   24   54 1
    50   24   55 1
    51   25   26 1
    52   26   31 ar
    53   26   27 ar
    54   27   28 ar
    55   27   56 1
    56   28   29 ar
    57   28   57 1
    58   29   30 ar
    59   29   32 1
    60   30   31 ar
    61   30   58 1
    62   31   59 1
    63   34   60 1
    64   34   61 1
@<TRIPOS>MOLECULE
ZINC53274795
   44    47     0     0     0
SMALL
USER_CHARGES

@<TRIPOS>ATOM
      1 C1         -0.0167    1.3786    0.0096 C.ar      1 <0>        -0.1290
      2 C2          1.1697    2.0890    0.0021 C.ar      1 <0>        -0.0943
      3 C3          2.3773    1.4190   -0.0134 C.ar      1 <0>        -0.1196
      4 C4          2.3994    0.0308   -0.0211 C.ar      1 <0>         0.1595
      5 C5          1.2066   -0.6797   -0.0130 C.ar      1 <0>        -0.1428
      6 C6          0.0021   -0.0041    0.0020 C.ar      1 <0>        -0.0919
      7 N1          3.6236   -0.6521   -0.0373 N.pl3     1 <0>        -0.3207
      8 C7          3.7859   -1.9945   -0.0516 C.2       1 <0>         0.0580
      9 C8          5.1150   -2.2483   -0.0650 C.2       1 <0>        -0.2165
     10 C9          5.7880   -1.0216   -0.0587 C.2       1 <0>         0.0790
     11 N2          4.8953   -0.0646   -0.0477 N.2       1 <0>        -0.2886
     12 C10         5.7570   -3.6116   -0.0829 C.3       1 <0>         0.1331
     13 N3          5.9541   -4.0418   -1.4737 N.3       1 <0>        -0.5337
     14 C11         4.6657   -4.2453   -2.1494 C.3       1 <0>         0.0411
     15 C12         4.9104   -4.5148   -3.6379 C.3       1 <0>         0.1332
     16 N4          5.8603   -5.6310   -3.7607 N.pl3     1 <0>        -0.5844
     17 C13         7.1180   -5.5611   -3.0014 C.3       1 <0>         0.1320
     18 C14         6.7864   -5.2505   -1.5379 C.3       1 <0>         0.0417
     19 C15         5.5783   -6.7180   -4.5697 C.ar      1 <0>         0.5659
     20 N5          4.4379   -6.7440   -5.2437 N.ar      1 <0>        -0.5735
     21 C16         4.1380   -7.7677   -6.0260 C.ar      1 <0>         0.1937
     22 C17         5.0333   -8.8201   -6.1352 C.ar      1 <0>        -0.2969
     23 C18         6.2168   -8.7606   -5.4164 C.ar      1 <0>         0.1940
     24 N6          6.4576   -7.7053   -4.6561 N.ar      1 <0>        -0.5728
     25 H1         -0.9597    1.9047    0.0260 H         1 <0>         0.1298
     26 H2          1.1519    3.1688    0.0080 H         1 <0>         0.1331
     27 H3          3.3036    1.9744   -0.0200 H         1 <0>         0.1380
     28 H4          1.2207   -1.7596   -0.0193 H         1 <0>         0.1282
     29 H5         -0.9261   -0.5562    0.0082 H         1 <0>         0.1334
     30 H6          2.9966   -2.7316   -0.0518 H         1 <0>         0.1729
     31 H7          6.8596   -0.8875   -0.0659 H         1 <0>         0.1902
     32 H8          6.7212   -3.5659    0.4233 H         1 <0>         0.0886
     33 H9          5.1109   -4.3243    0.4297 H         1 <0>         0.0416
     34 H10         4.1527   -5.0982   -1.7049 H         1 <0>         0.0365
     35 H11         4.0512   -3.3520   -2.0376 H         1 <0>         0.0873
     36 H12         3.9700   -4.7794   -4.1215 H         1 <0>         0.0999
     37 H13         5.3289   -3.6245   -4.1072 H         1 <0>         0.0721
     38 H14         7.6371   -6.5175   -3.0642 H         1 <0>         0.1018
     39 H15         7.7487   -4.7714   -3.4096 H         1 <0>         0.0738
     40 H16         7.7099   -5.0862   -0.9828 H         1 <0>         0.0914
     41 H17         6.2438   -6.0893   -1.1020 H         1 <0>         0.0382
     42 H18         3.2067   -7.7834   -6.5726 H         1 <0>         0.1663
     43 H19         4.8132   -9.6683   -6.7665 H         1 <0>         0.1435
     44 H20         6.9355   -9.5643   -5.4793 H         1 <0>         0.1667
@<TRIPOS>BOND
     1    1    6 ar
     2    1    2 ar
     3    1   25 1
     4    2    3 ar
     5    2   26 1
     6    3    4 ar
     7    3   27 1
     8    4    5 ar
     9    4    7 1
    10    5    6 ar
    11    5   28 1
    12    6   29 1
    13    7   11 1
    14    7    8 1
    15    8    9 2
    16    8   30 1
    17    9   10 1
    18    9   12 1
    19   10   11 2
    20   10   31 1
    21   12   13 1
    22   12   32 1
    23   12   33 1
    24   13   18 1
    25   13   14 1
    26   14   15 1
    27   14   34 1
    28   14   35 1
    29   15   16 1
    30   15   36 1
    31   15   37 1
    32   16   17 1
    33   16   19 1
    34   17   18 1
    35   17   38 1
    36   17   39 1
    37   18   40 1
    38   18   41 1
    39   19   24 ar
    40   19   20 ar
    41   20   21 ar
    42   21   22 ar
    43   21   42 1
    44   22   23 ar
    45   22   43 1
    46   23   24 ar
    47   23   44 1
@<TRIPOS>MOLECULE
ZINC12523427
   46    49     0     0     0
SMALL
USER_CHARGES

@<TRIPOS>ATOM
      1 C1         -0.0167    1.3786    0.0115 C.ar      1 <0>        -0.1815
      2 C2          0.0020   -0.0039   -0.0114 C.ar      1 <0>        -0.0708
      3 C3          1.2063   -0.6796   -0.0274 C.ar      1 <0>        -0.2020
      4 C4          2.3998    0.0311   -0.0206 C.ar      1 <0>         0.2201
      5 C5          2.3775    1.4198    0.0024 C.ar      1 <0>        -0.2013
      6 C6          1.1696    2.0892    0.0184 C.ar      1 <0>        -0.0708
      7 N1          3.6196   -0.6492   -0.0363 N.pl3     1 <0>        -0.6318
      8 C7          4.8906    0.0825   -0.1489 C.3       1 <0>         0.1264
      9 C8          5.7107   -0.5385   -1.2847 C.3       1 <0>         0.0403
     10 N2          5.8440   -1.9833   -1.0549 N.3       1 <0>        -0.5310
     11 C9          4.5356   -2.6505   -1.0847 C.3       1 <0>         0.0356
     12 C10         3.6676   -2.1156    0.0654 C.3       1 <0>         0.1264
     13 C11         6.7655   -2.5880   -2.0261 C.3       1 <0>         0.0949
     14 C12         7.0684   -4.0060   -1.6155 C.ar      1 <0>        -0.0885
     15 C13         8.1369   -4.2685   -0.7779 C.ar      1 <0>        -0.0707
     16 C14         8.4174   -5.5671   -0.4002 C.ar      1 <0>        -0.1187
     17 C15         7.6249   -6.6094   -0.8620 C.ar      1 <0>         0.1618
     18 C16         6.5526   -6.3426   -1.7025 C.ar      1 <0>        -0.1410
     19 C17         6.2740   -5.0414   -2.0725 C.ar      1 <0>        -0.0873
     20 N3          7.9073   -7.9285   -0.4808 N.pl3     1 <0>        -0.3243
     21 C18         7.2224   -9.0307   -0.8610 C.2       1 <0>         0.0514
     22 C19         7.8106  -10.1018   -0.2797 C.2       1 <0>        -0.2602
     23 C20         8.8906   -9.6402    0.4809 C.2       1 <0>         0.0568
     24 N4          8.9527   -8.3389    0.3566 N.2       1 <0>        -0.2903
     25 H1         -0.9599    1.9046    0.0194 H         1 <0>         0.1175
     26 H2         -0.9263   -0.5559   -0.0163 H         1 <0>         0.1198
     27 H3          1.2202   -1.7594   -0.0449 H         1 <0>         0.1205
     28 H4          3.3036    1.9754    0.0081 H         1 <0>         0.1209
     29 H5          1.1515    3.1689    0.0362 H         1 <0>         0.1201
     30 H6          4.6912    1.1306   -0.3720 H         1 <0>         0.0870
     31 H7          5.4430    0.0031    0.7874 H         1 <0>         0.0700
     32 H8          5.2049   -0.3664   -2.2348 H         1 <0>         0.0398
     33 H9          6.7000   -0.0816   -1.3109 H         1 <0>         0.0875
     34 H10         4.0461   -2.4490   -2.0376 H         1 <0>         0.0391
     35 H11         4.6726   -3.7253   -0.9658 H         1 <0>         0.0892
     36 H12         4.1046   -2.4022    1.0219 H         1 <0>         0.0697
     37 H13         2.6592   -2.5215   -0.0158 H         1 <0>         0.0862
     38 H14         6.3047   -2.5863   -3.0139 H         1 <0>         0.0459
     39 H15         7.6908   -2.0128   -2.0558 H         1 <0>         0.0879
     40 H16         8.7530   -3.4573   -0.4190 H         1 <0>         0.1335
     41 H17         9.2525   -5.7715    0.2535 H         1 <0>         0.1383
     42 H18         5.9346   -7.1514   -2.0636 H         1 <0>         0.1300
     43 H19         5.4373   -4.8328   -2.7227 H         1 <0>         0.1294
     44 H20         6.3605   -9.0523   -1.5114 H         1 <0>         0.1776
     45 H21         7.5010  -11.1312   -0.3841 H         1 <0>         0.1554
     46 H22         9.5601  -10.2528    1.0664 H         1 <0>         0.1911
@<TRIPOS>BOND
     1    1    6 ar
     2    1    2 ar
     3    1   25 1
     4    2    3 ar
     5    2   26 1
     6    3    4 ar
     7    3   27 1
     8    4    5 ar
     9    4    7 1
    10    5    6 ar
    11    5   28 1
    12    6   29 1
    13    7   12 1
    14    7    8 1
    15    8    9 1
    16    8   30 1
    17    8   31 1
    18    9   10 1
    19    9   32 1
    20    9   33 1
    21   10   11 1
    22   10   13 1
    23   11   12 1
    24   11   34 1
    25   11   35 1
    26   12   36 1
    27   12   37 1
    28   13   14 1
    29   13   38 1
    30   13   39 1
    31   14   19 ar
    32   14   15 ar
    33   15   16 ar
    34   15   40 1
    35   16   17 ar
    36   16   41 1
    37   17   18 ar
    38   17   20 1
    39   18   19 ar
    40   18   42 1
    41   19   43 1
    42   20   24 1
    43   20   21 1
    44   21   22 2
    45   21   44 1
    46   22   23 1
    47   22   45 1
    48   23   24 2
    49   23   46 1
@<TRIPOS>MOLECULE
ZINC53274820
   46    49     0     0     0
SMALL
USER_CHARGES

@<TRIPOS>ATOM
      1 C1         -0.0023    1.4299   -0.0644 C.ar      1 <0>        -0.1288
      2 C2          1.1891    2.1318   -0.0623 C.ar      1 <0>        -0.0942
      3 C3          2.3921    1.4531   -0.0645 C.ar      1 <0>        -0.1196
      4 C4          2.4043    0.0648   -0.0685 C.ar      1 <0>         0.1592
      5 C5          1.2064   -0.6371   -0.0702 C.ar      1 <0>        -0.1429
      6 C6          0.0066    0.0471   -0.0685 C.ar      1 <0>        -0.0919
      7 N1          3.6236   -0.6268   -0.0713 N.pl3     1 <0>        -0.3205
      8 C7          3.7764   -1.9704   -0.0807 C.2       1 <0>         0.0578
      9 C8          5.1038   -2.2338   -0.0807 C.2       1 <0>        -0.2164
     10 C9          5.7854   -1.0119   -0.0709 C.2       1 <0>         0.0787
     11 N2          4.8995   -0.0485   -0.0709 N.2       1 <0>        -0.2884
     12 C10         5.7361   -3.6016   -0.0891 C.3       1 <0>         0.1330
     13 N3          5.9435   -4.0367   -1.4768 N.3       1 <0>        -0.5322
     14 C11         4.6603   -4.2328   -2.1644 C.3       1 <0>         0.0398
     15 C12         4.9172   -4.5077   -3.6498 C.3       1 <0>         0.1266
     16 N4          5.8603   -5.6310   -3.7607 N.pl3     1 <0>        -0.6311
     17 C13         7.1111   -5.5682   -2.9895 C.3       1 <0>         0.1263
     18 C14         6.7677   -5.2515   -1.5301 C.3       1 <0>         0.0406
     19 C15         5.5753   -6.7284   -4.5765 C.ar      1 <0>         0.2206
     20 C16         4.3420   -6.8243   -5.2085 C.ar      1 <0>        -0.2024
     21 C17         4.0637   -7.9105   -6.0147 C.ar      1 <0>        -0.0709
     22 C18         5.0109   -8.9021   -6.1928 C.ar      1 <0>        -0.1820
     23 C19         6.2397   -8.8097   -5.5651 C.ar      1 <0>        -0.0707
     24 C20         6.5266   -7.7234   -4.7621 C.ar      1 <0>        -0.2013
     25 H1         -0.9417    1.9627   -0.0585 H         1 <0>         0.1299
     26 H2          1.1790    3.2117   -0.0592 H         1 <0>         0.1332
     27 H3          3.3223    2.0019   -0.0636 H         1 <0>         0.1380
     28 H4          1.2128   -1.7171   -0.0737 H         1 <0>         0.1280
     29 H5         -0.9255   -0.4983   -0.0698 H         1 <0>         0.1335
     30 H6          2.9819   -2.7019   -0.0867 H         1 <0>         0.1727
     31 H7          6.8580   -0.8854   -0.0682 H         1 <0>         0.1901
     32 H8          6.6957   -3.5615    0.4263 H         1 <0>         0.0880
     33 H9          5.0801   -4.3084    0.4190 H         1 <0>         0.0416
     34 H10         4.1368   -5.0808   -1.7227 H         1 <0>         0.0371
     35 H11         4.0511   -3.3348   -2.0607 H         1 <0>         0.0842
     36 H12         3.9797   -4.7668   -4.1418 H         1 <0>         0.0849
     37 H13         5.3466   -3.6216   -4.1173 H         1 <0>         0.0686
     38 H14         7.6240   -6.5284   -3.0449 H         1 <0>         0.0863
     39 H15         7.7513   -4.7840   -3.3935 H         1 <0>         0.0699
     40 H16         7.6870   -5.0924   -0.9664 H         1 <0>         0.0878
     41 H17         6.2150   -6.0853   -1.0973 H         1 <0>         0.0387
     42 H18         3.6015   -6.0506   -5.0692 H         1 <0>         0.1201
     43 H19         3.1051   -7.9857   -6.5064 H         1 <0>         0.1195
     44 H20         4.7905   -9.7508   -6.8233 H         1 <0>         0.1172
     45 H21         6.9772   -9.5859   -5.7064 H         1 <0>         0.1200
     46 H22         7.4881   -7.6496   -4.2758 H         1 <0>         0.1211
@<TRIPOS>BOND
     1    1    6 ar
     2    1    2 ar
     3    1   25 1
     4    2    3 ar
     5    2   26 1
     6    3    4 ar
     7    3   27 1
     8    4    5 ar
     9    4    7 1
    10    5    6 ar
    11    5   28 1
    12    6   29 1
    13    7   11 1
    14    7    8 1
    15    8    9 2
    16    8   30 1
    17    9   10 1
    18    9   12 1
    19   10   11 2
    20   10   31 1
    21   12   13 1
    22   12   32 1
    23   12   33 1
    24   13   18 1
    25   13   14 1
    26   14   15 1
    27   14   34 1
    28   14   35 1
    29   15   16 1
    30   15   36 1
    31   15   37 1
    32   16   17 1
    33   16   19 1
    34   17   18 1
    35   17   38 1
    36   17   39 1
    37   18   40 1
    38   18   41 1
    39   19   24 ar
    40   19   20 ar
    41   20   21 ar
    42   20   42 1
    43   21   22 ar
    44   21   43 1
    45   22   23 ar
    46   22   44 1
    47   23   24 ar
    48   23   45 1
    49   24   46 1
@<TRIPOS>MOLECULE
ZINC20534273
   43    46     0     0     0
SMALL
USER_CHARGES
2-[[4-(4-chlorophenyl)piperazin-1-yl]methyl]imidazo[1,2-a]pyridine
@<TRIPOS>ATOM
      1 C1         -1.2403    1.7584    0.0175 C.2       1 <0>        -0.0215
      2 C2         -0.0126    1.0758    0.0080 C.2       1 <0>        -0.1135
      3 C3          1.1486    1.7634    0.0006 C.2       1 <0>         0.0831
      4 N1          1.1482    3.1282    0.0074 N.pl3     1 <0>        -0.3270
      5 C4          2.1557    4.0542    0.0023 C.2       1 <0>        -0.0298
      6 C5          1.5760    5.2745    0.0141 C.2       1 <0>         0.1041
      7 N2          0.2503    5.1168    0.0262 N.pl3     1 <0>        -0.5121
      8 C6         -0.0339    3.8221    0.0225 C.cat     1 <0>         0.3152
      9 C7         -1.2550    3.1185    0.0308 C.2       1 <0>        -0.1231
     10 C8          2.3045    6.5938    0.0137 C.3       1 <0>         0.1020
     11 N3          2.4215    7.0880   -1.3647 N.3       1 <0>        -0.5402
     12 C9          3.2888    6.2132   -2.1660 C.3       1 <0>         0.0471
     13 C10         3.3209    6.7162   -3.6112 C.3       1 <0>         0.0579
     14 N4          3.8100    8.1018   -3.6341 N.pl3     1 <0>        -0.4879
     15 C11         2.9427    8.9767   -2.8328 C.3       1 <0>         0.0479
     16 C12         2.9106    8.4736   -1.3876 C.3       1 <0>         0.0550
     17 C13         3.9214    8.5720   -4.9453 C.ar      1 <0>         0.1085
     18 C14         3.2491    9.7247   -5.3306 C.ar      1 <0>        -0.1566
     19 C15         3.3660   10.1906   -6.6255 C.ar      1 <0>        -0.0818
     20 C16         4.1420    9.5031   -7.5421 C.ar      1 <0>        -0.0557
     21 C17         4.8083    8.3512   -7.1625 C.ar      1 <0>        -0.0837
     22 C18         4.7000    7.8842   -5.8673 C.ar      1 <0>        -0.1262
     23 Cl1         4.2804   10.0872   -9.1710 Cl        1 <0>        -0.0636
     24 H1         -2.1682    1.2058    0.0189 H         1 <0>         0.1741
     25 H2          0.0021   -0.0041    0.0020 H         1 <0>         0.1825
     26 H3          2.0869    1.2287   -0.0113 H         1 <0>         0.1990
     27 H4          3.2158    3.8481   -0.0091 H         1 <0>         0.2210
     28 H5         -2.1929    3.6538    0.0422 H         1 <0>         0.1779
     29 H6          1.7441    7.3222    0.6181 H         1 <0>         0.1145
     30 H7          3.3089    6.4582    0.4411 H         1 <0>         0.0904
     31 H8          4.3069    6.2254   -1.7498 H         1 <0>         0.0591
     32 H9          2.8956    5.1861   -2.1429 H         1 <0>         0.0798
     33 H10         3.9921    6.0795   -4.2062 H         1 <0>         0.0935
     34 H11         2.3068    6.6772   -4.0356 H         1 <0>         0.0541
     35 H12         3.3361   10.0037   -2.8559 H         1 <0>         0.0981
     36 H13         1.9246    8.9646   -3.2490 H         1 <0>         0.0595
     37 H14         2.2391    9.1093   -0.7919 H         1 <0>         0.0946
     38 H15         3.9244    8.5117   -0.9625 H         1 <0>         0.0590
     39 H16         2.6392   10.2588   -4.6170 H         1 <0>         0.1358
     40 H17         2.8476   11.0897   -6.9242 H         1 <0>         0.1365
     41 H18         5.4138    7.8170   -7.8797 H         1 <0>         0.1379
     42 H19         5.2205    6.9854   -5.5715 H         1 <0>         0.1334
     43 H20        -0.4083    5.9978    0.0370 H         1 <0>         0.5014
@<TRIPOS>BOND
     1    1    9 2
     2    1    2 1
     3    1   24 1
     4    2    3 2
     5    2   25 1
     6    3    4 1
     7    3   26 1
     8    4    8 1
     9    4    5 1
    10    5    6 2
    11    5   27 1
    12    6    7 1
    13    6   10 1
    14    7    8 2
    15    7   43 1
    16    8    9 1
    17    9   28 1
    18   10   11 1
    19   10   29 1
    20   10   30 1
    21   11   16 1
    22   11   12 1
    23   12   13 1
    24   12   31 1
    25   12   32 1
    26   13   14 1
    27   13   33 1
    28   13   34 1
    29   14   15 1
    30   14   17 1
    31   15   16 1
    32   15   35 1
    33   15   36 1
    34   16   37 1
    35   16   38 1
    36   17   22 ar
    37   17   18 ar
    38   18   19 ar
    39   18   39 1
    40   19   20 ar
    41   19   40 1
    42   20   21 ar
    43   20   23 1
    44   21   22 ar
    45   21   41 1
    46   22   42 1
@<TRIPOS>MOLECULE
ZINC20534273
   42    45     0     0     0
SMALL
USER_CHARGES
2-[[4-(4-chlorophenyl)piperazin-1-yl]methyl]imidazo[1,2-a]pyridine
@<TRIPOS>ATOM
      1 C1         -1.2403    1.7584    0.0175 C.2       1 <0>        -0.1026
      2 C2         -0.0126    1.0758    0.0080 C.2       1 <0>        -0.1401
      3 C3          1.1486    1.7634    0.0006 C.2       1 <0>         0.0529
      4 N1          1.1482    3.1282    0.0074 N.pl3     1 <0>        -0.3610
      5 C4          2.1557    4.0542    0.0023 C.2       1 <0>        -0.0967
      6 C5          1.5760    5.2745    0.0141 C.2       1 <0>         0.0728
      7 N2          0.2503    5.1168    0.0262 N.2       1 <0>        -0.4736
      8 C6         -0.0339    3.8221    0.0225 C.2       1 <0>         0.2228
      9 C7         -1.2550    3.1185    0.0308 C.2       1 <0>        -0.0778
     10 C8          2.3045    6.5938    0.0137 C.3       1 <0>         0.1347
     11 N3          2.4215    7.0880   -1.3647 N.3       1 <0>        -0.5317
     12 C9          3.2888    6.2132   -2.1660 C.3       1 <0>         0.0530
     13 C10         3.3209    6.7162   -3.6112 C.3       1 <0>         0.0601
     14 N4          3.8100    8.1018   -3.6341 N.pl3     1 <0>        -0.4891
     15 C11         2.9427    8.9767   -2.8328 C.3       1 <0>         0.0500
     16 C12         2.9106    8.4736   -1.3876 C.3       1 <0>         0.0560
     17 C13         3.9214    8.5720   -4.9453 C.ar      1 <0>         0.1189
     18 C14         3.2491    9.7247   -5.3306 C.ar      1 <0>        -0.1590
     19 C15         3.3660   10.1906   -6.6255 C.ar      1 <0>        -0.0817
     20 C16         4.1420    9.5031   -7.5421 C.ar      1 <0>        -0.0618
     21 C17         4.8083    8.3512   -7.1625 C.ar      1 <0>        -0.0842
     22 C18         4.7000    7.8842   -5.8673 C.ar      1 <0>        -0.1294
     23 Cl1         4.2804   10.0872   -9.1710 Cl        1 <0>        -0.0730
     24 H1         -2.1682    1.2058    0.0189 H         1 <0>         0.1438
     25 H2          0.0021   -0.0041    0.0020 H         1 <0>         0.1517
     26 H3          2.0869    1.2287   -0.0113 H         1 <0>         0.1627
     27 H4          3.2158    3.8481   -0.0091 H         1 <0>         0.1794
     28 H5         -2.1929    3.6538    0.0422 H         1 <0>         0.1514
     29 H6          1.7441    7.3222    0.6181 H         1 <0>         0.0961
     30 H7          3.3089    6.4582    0.4411 H         1 <0>         0.0550
     31 H8          4.3069    6.2254   -1.7498 H         1 <0>         0.0464
     32 H9          2.8956    5.1861   -2.1429 H         1 <0>         0.0849
     33 H10         3.9921    6.0795   -4.2062 H         1 <0>         0.0874
     34 H11         2.3068    6.6772   -4.0356 H         1 <0>         0.0550
     35 H12         3.3361   10.0037   -2.8559 H         1 <0>         0.0908
     36 H13         1.9246    8.9646   -3.2490 H         1 <0>         0.0594
     37 H14         2.2391    9.1093   -0.7919 H         1 <0>         0.0896
     38 H15         3.9244    8.5117   -0.9625 H         1 <0>         0.0475
     39 H16         2.6392   10.2588   -4.6170 H         1 <0>         0.1369
     40 H17         2.8476   11.0897   -6.9242 H         1 <0>         0.1339
     41 H18         5.4138    7.8170   -7.8797 H         1 <0>         0.1350
     42 H19         5.2205    6.9854   -5.5715 H         1 <0>         0.1334
@<TRIPOS>BOND
     1    1    9 2
     2    1    2 1
     3    1   24 1
     4    2    3 2
     5    2   25 1
     6    3    4 1
     7    3   26 1
     8    4    8 1
     9    4    5 1
    10    5    6 2
    11    5   27 1
    12    6    7 1
    13    6   10 1
    14    7    8 2
    15    8    9 1
    16    9   28 1
    17   10   11 1
    18   10   29 1
    19   10   30 1
    20   11   16 1
    21   11   12 1
    22   12   13 1
    23   12   31 1
    24   12   32 1
    25   13   14 1
    26   13   33 1
    27   13   34 1
    28   14   15 1
    29   14   17 1
    30   15   16 1
    31   15   35 1
    32   15   36 1
    33   16   37 1
    34   16   38 1
    35   17   22 ar
    36   17   18 ar
    37   18   19 ar
    38   18   39 1
    39   19   20 ar
    40   19   40 1
    41   20   21 ar
    42   20   23 1
    43   21   22 ar
    44   21   41 1
    45   22   42 1
@<TRIPOS>MOLECULE
ZINC25758512
   37    40     0     0     0
SMALL
USER_CHARGES

@<TRIPOS>ATOM
      1 C1         -0.0166    1.3758    0.0096 C.ar      1 <0>        -0.1157
      2 C2          1.1763    2.0743    0.0020 C.ar      1 <0>        -0.1192
      3 C3          2.3733    1.3896   -0.0385 C.ar      1 <0>        -0.1176
      4 C4          2.4009    0.0034   -0.0861 C.ar      1 <0>        -0.0687
      5 C5          1.2046   -0.6903   -0.0209 C.ar      1 <0>        -0.1153
      6 C6          0.0021   -0.0041    0.0020 C.ar      1 <0>        -0.1124
      7 C7          1.1747   -2.1927    0.1001 C.3       1 <0>         0.0903
      8 N1          2.4687   -2.6697    0.6185 N.3       1 <0>        -0.6611
      9 C8          3.5248   -2.2256   -0.2859 C.3       1 <0>         0.0873
     10 H1          3.2495   -2.4784   -1.3135 H         1 <0>         0.0869
     11 C9          3.7062   -0.7101   -0.1807 C.3       1 <0>        -0.0427
     12 H2          4.2639   -0.5125    0.7432 H         1 <0>         0.0912
     13 C10         4.5908   -0.3033   -1.3255 C.ar      1 <0>        -0.0537
     14 C11         4.3958    0.8864   -1.9965 C.ar      1 <0>        -0.1327
     15 C12         5.2340    1.2611   -3.0353 C.ar      1 <0>         0.0776
     16 C13         6.2733    0.4178   -3.4135 C.ar      1 <0>         0.0830
     17 C14         6.4491   -0.7850   -2.7594 C.ar      1 <0>        -0.1337
     18 C15         5.6055   -1.1624   -1.7191 C.ar      1 <0>        -0.0657
     19 C16         5.8510   -2.5104   -1.0979 C.3       1 <0>        -0.0803
     20 C17         4.8823   -2.8512    0.0309 C.3       1 <0>        -0.1091
     21 O1          7.1132    0.7761   -4.4215 O.3       1 <0>        -0.4882
     22 O2          5.0382    2.4433   -3.6773 O.3       1 <0>        -0.4862
     23 H3         -0.9564    1.9057    0.0259 H         1 <0>         0.1245
     24 H4          1.1697    3.1547    0.0285 H         1 <0>         0.1242
     25 H5          3.3025    1.9411   -0.0098 H         1 <0>         0.1225
     26 H6         -0.9296   -0.5512    0.0145 H         1 <0>         0.1248
     27 H7          0.3852   -2.4841    0.7865 H         1 <0>         0.0925
     28 H8          1.0003   -2.6301   -0.8788 H         1 <0>         0.0889
     29 H9          2.6220   -2.3300    1.5564 H         1 <0>         0.3432
     30 H10         3.5793    1.5447   -1.7458 H         1 <0>         0.1418
     31 H11         7.2519   -1.4441   -3.0565 H         1 <0>         0.1336
     32 H12         5.7665   -3.2743   -1.8756 H         1 <0>         0.0813
     33 H13         6.8713   -2.5358   -0.7070 H         1 <0>         0.0819
     34 H14         5.2573   -2.4506    0.9741 H         1 <0>         0.0674
     35 H15         4.7745   -3.9334    0.1136 H         1 <0>         0.0849
     36 H16         7.8888    1.2742   -4.1290 H         1 <0>         0.3876
     37 H17         5.5166    3.1871   -3.2864 H         1 <0>         0.3869
@<TRIPOS>BOND
     1    1    6 ar
     2    1    2 ar
     3    1   23 1
     4    2    3 ar
     5    2   24 1
     6    3    4 ar
     7    3   25 1
     8    4   11 1
     9    4    5 ar
    10    5    6 ar
    11    5    7 1
    12    6   26 1
    13    7    8 1
    14    7   27 1
    15    7   28 1
    16    8    9 1
    17    8   29 1
    18    9   10 1
    19    9   20 1
    20    9   11 1
    21   11   12 1
    22   11   13 1
    23   13   18 ar
    24   13   14 ar
    25   14   15 ar
    26   14   30 1
    27   15   16 ar
    28   15   22 1
    29   16   17 ar
    30   16   21 1
    31   17   18 ar
    32   17   31 1
    33   18   19 1
    34   19   20 1
    35   19   32 1
    36   19   33 1
    37   20   34 1
    38   20   35 1
    39   21   36 1
    40   22   37 1
@<TRIPOS>MOLECULE
ZINC00003897
   43    46     0     0     0
SMALL
USER_CHARGES

@<TRIPOS>ATOM
      1 C1         -0.0178    1.4648    0.0101 C.3       1 <0>        -0.0643
      2 N1          0.0021   -0.0041    0.0020 N.4       1 <0>        -0.3783
      3 C2          0.5651   -0.4783   -1.2793 C.3       1 <0>         0.0030
      4 C3          1.6130    0.4650   -1.8175 C.3       1 <0>        -0.1179
      5 C4          2.5466    1.1632   -0.9180 C.ar      1 <0>        -0.0792
      6 C5          3.1196    2.3627   -1.3347 C.ar      1 <0>        -0.0925
      7 C6          3.9970    3.0439   -0.5188 C.ar      1 <0>        -0.0497
      8 C7          4.3162    2.5319    0.7320 C.ar      1 <0>         0.1311
      9 C8          3.7475    1.3396    1.1456 C.ar      1 <0>        -0.1201
     10 C9          2.8634    0.6594    0.3194 C.ar      1 <0>        -0.0869
     11 C10         2.2696   -0.6209    0.8039 C.3       1 <0>        -0.0061
     12 H1          2.3316   -1.3285   -0.0229 H         1 <0>         0.1039
     13 C11         0.8167   -0.4865    1.1303 C.3       1 <0>         0.0306
     14 H2          0.7252    0.2389    1.9387 H         1 <0>         0.1337
     15 C12         0.2782   -1.8142    1.6644 C.3       1 <0>        -0.1325
     16 C13         0.9258   -2.0821    3.0231 C.3       1 <0>        -0.0787
     17 C14         2.4193   -1.9005    2.9633 C.ar      1 <0>        -0.0792
     18 C15         3.0470   -1.2168    1.9418 C.ar      1 <0>        -0.0879
     19 C16         4.4258   -1.0720    1.9521 C.ar      1 <0>        -0.1081
     20 C17         5.1794   -1.6148    2.9734 C.ar      1 <0>        -0.1118
     21 C18         4.5538   -2.3077    3.9926 C.ar      1 <0>        -0.0996
     22 C19         3.1816   -2.4485    3.9864 C.ar      1 <0>        -0.1134
     23 O1          5.1801    3.1966    1.5441 O.3       1 <0>        -0.4793
     24 Cl1         4.7017    4.5377   -1.0535 Cl        1 <0>        -0.0291
     25 H3          0.9919    1.8409    0.1747 H         1 <0>         0.1309
     26 H4         -0.3893    1.8284   -0.9480 H         1 <0>         0.1268
     27 H5         -0.6709    1.8149    0.8095 H         1 <0>         0.1229
     28 H6          1.0152   -1.4593   -1.1275 H         1 <0>         0.1298
     29 H7         -0.2398   -0.5679   -2.0088 H         1 <0>         0.1423
     30 H8          2.2161   -0.0994   -2.5287 H         1 <0>         0.1206
     31 H9          1.0901    1.2297   -2.3918 H         1 <0>         0.1003
     32 H10         2.8735    2.7631   -2.3071 H         1 <0>         0.1479
     33 H11         3.9925    0.9365    2.1171 H         1 <0>         0.1568
     34 H12        -0.8040   -1.7525    1.7788 H         1 <0>         0.0975
     35 H13         0.5300   -2.6179    0.9724 H         1 <0>         0.0930
     36 H14         0.5116   -1.3918    3.7580 H         1 <0>         0.0900
     37 H15         0.7026   -3.1040    3.3295 H         1 <0>         0.0995
     38 H16         4.9140   -0.5310    1.1550 H         1 <0>         0.1296
     39 H17         6.2531   -1.4988    2.9758 H         1 <0>         0.1321
     40 H18         5.1382   -2.7382    4.7923 H         1 <0>         0.1319
     41 H19         2.6957   -2.9895    4.7848 H         1 <0>         0.1297
     42 H20         4.7543    3.8340    2.1337 H         1 <0>         0.4022
     43 H21        -0.9404   -0.3512    0.0984 H         1 <0>         0.4285
@<TRIPOS>BOND
     1    1    2 1
     2    1   25 1
     3    1   26 1
     4    1   27 1
     5    2   13 1
     6    2    3 1
     7    2   43 1
     8    3    4 1
     9    3   28 1
    10    3   29 1
    11    4    5 1
    12    4   30 1
    13    4   31 1
    14    5   10 ar
    15    5    6 ar
    16    6    7 ar
    17    6   32 1
    18    7    8 ar
    19    7   24 1
    20    8    9 ar
    21    8   23 1
    22    9   10 ar
    23    9   33 1
    24   10   11 1
    25   11   12 1
    26   11   18 1
    27   11   13 1
    28   13   14 1
    29   13   15 1
    30   15   16 1
    31   15   34 1
    32   15   35 1
    33   16   17 1
    34   16   36 1
    35   16   37 1
    36   17   22 ar
    37   17   18 ar
    38   18   19 ar
    39   19   20 ar
    40   19   38 1
    41   20   21 ar
    42   20   39 1
    43   21   22 ar
    44   21   40 1
    45   22   41 1
    46   23   42 1
@<TRIPOS>MOLECULE
ZINC14195406
   43    46     0     0     0
SMALL
USER_CHARGES
2-[[4-(3,4-dichlorophenyl)piperazin-1-yl]methyl]imidazo[1,2-a]pyridine
@<TRIPOS>ATOM
      1 C1         -1.2403    1.7584    0.0175 C.2       1 <0>        -0.0212
      2 C2         -0.0126    1.0758    0.0080 C.2       1 <0>        -0.1133
      3 C3          1.1486    1.7634    0.0006 C.2       1 <0>         0.0832
      4 N1          1.1482    3.1282    0.0074 N.pl3     1 <0>        -0.3270
      5 C4          2.1557    4.0542    0.0023 C.2       1 <0>        -0.0296
      6 C5          1.5760    5.2745    0.0141 C.2       1 <0>         0.1035
      7 N2          0.2503    5.1168    0.0262 N.pl3     1 <0>        -0.5122
      8 C6         -0.0339    3.8221    0.0225 C.cat     1 <0>         0.3154
      9 C7         -1.2550    3.1185    0.0308 C.2       1 <0>        -0.1233
     10 C8          2.3045    6.5938    0.0137 C.3       1 <0>         0.1023
     11 N3          2.4215    7.0880   -1.3647 N.3       1 <0>        -0.5404
     12 C9          3.2888    6.2132   -2.1660 C.3       1 <0>         0.0469
     13 C10         3.3209    6.7162   -3.6112 C.3       1 <0>         0.0566
     14 N4          3.8100    8.1018   -3.6341 N.pl3     1 <0>        -0.4862
     15 C11         2.9427    8.9767   -2.8328 C.3       1 <0>         0.0473
     16 C12         2.9106    8.4736   -1.3876 C.3       1 <0>         0.0549
     17 C13         3.9214    8.5720   -4.9453 C.ar      1 <0>         0.1228
     18 C14         3.2489    9.7250   -5.3305 C.ar      1 <0>        -0.1539
     19 C15         3.3653   10.1913   -6.6251 C.ar      1 <0>        -0.0686
     20 C16         4.1414    9.5049   -7.5423 C.ar      1 <0>        -0.0543
     21 C17         4.8081    8.3518   -7.1633 C.ar      1 <0>        -0.0056
     22 C18         4.6998    7.8843   -5.8669 C.ar      1 <0>        -0.1211
     23 Cl1         5.7809    7.4933   -8.3167 Cl        1 <0>        -0.0378
     24 Cl2         4.2801   10.0905   -9.1706 Cl        1 <0>        -0.0416
     25 H1         -2.1682    1.2058    0.0189 H         1 <0>         0.1741
     26 H2          0.0021   -0.0041    0.0020 H         1 <0>         0.1826
     27 H3          2.0869    1.2287   -0.0113 H         1 <0>         0.1991
     28 H4          3.2158    3.8481   -0.0091 H         1 <0>         0.2211
     29 H5         -2.1929    3.6538    0.0422 H         1 <0>         0.1779
     30 H6          1.7441    7.3222    0.6181 H         1 <0>         0.1148
     31 H7          3.3089    6.4582    0.4411 H         1 <0>         0.0907
     32 H8          4.3069    6.2254   -1.7498 H         1 <0>         0.0600
     33 H9          2.8956    5.1861   -2.1429 H         1 <0>         0.0809
     34 H10         3.9921    6.0795   -4.2062 H         1 <0>         0.0944
     35 H11         2.3068    6.6772   -4.0356 H         1 <0>         0.0565
     36 H12         3.3361   10.0037   -2.8559 H         1 <0>         0.0997
     37 H13         1.9246    8.9646   -3.2490 H         1 <0>         0.0616
     38 H14         2.2391    9.1093   -0.7919 H         1 <0>         0.0958
     39 H15         3.9244    8.5117   -0.9625 H         1 <0>         0.0598
     40 H16         2.6394   10.2590   -4.6166 H         1 <0>         0.1426
     41 H17         2.8464   11.0904   -6.9233 H         1 <0>         0.1465
     42 H18         5.2197    6.9850   -5.5713 H         1 <0>         0.1437
     43 H19        -0.4083    5.9978    0.0370 H         1 <0>         0.5013
@<TRIPOS>BOND
     1    1    9 2
     2    1    2 1
     3    1   25 1
     4    2    3 2
     5    2   26 1
     6    3    4 1
     7    3   27 1
     8    4    8 1
     9    4    5 1
    10    5    6 2
    11    5   28 1
    12    6    7 1
    13    6   10 1
    14    7    8 2
    15    7   43 1
    16    8    9 1
    17    9   29 1
    18   10   11 1
    19   10   30 1
    20   10   31 1
    21   11   16 1
    22   11   12 1
    23   12   13 1
    24   12   32 1
    25   12   33 1
    26   13   14 1
    27   13   34 1
    28   13   35 1
    29   14   15 1
    30   14   17 1
    31   15   16 1
    32   15   36 1
    33   15   37 1
    34   16   38 1
    35   16   39 1
    36   17   22 ar
    37   17   18 ar
    38   18   19 ar
    39   18   40 1
    40   19   20 ar
    41   19   41 1
    42   20   21 ar
    43   20   24 1
    44   21   22 ar
    45   21   23 1
    46   22   42 1
@<TRIPOS>MOLECULE
ZINC53151246
   50    53     0     0     0
SMALL
USER_CHARGES

@<TRIPOS>ATOM
      1 C1         -0.0173    1.4248    0.0099 C.3       1 <0>         0.0253
      2 O1          0.0021   -0.0041    0.0020 O.3       1 <0>        -0.3049
      3 C2          0.6063   -0.6076   -1.0566 C.ar      1 <0>         0.1177
      4 C3          1.1727    0.1584   -2.0619 C.ar      1 <0>        -0.2070
      5 C4          1.7862   -0.4565   -3.1379 C.ar      1 <0>        -0.0845
      6 C5          1.8369   -1.8361   -3.2138 C.ar      1 <0>        -0.1512
      7 C6          1.2745   -2.6077   -2.2144 C.ar      1 <0>        -0.0874
      8 C7          0.6620   -1.9977   -1.1294 C.ar      1 <0>         0.1398
      9 N1          0.0968   -2.7768   -0.1132 N.pl3     1 <0>        -0.6687
     10 C8         -1.3056   -3.2137   -0.1884 C.3       1 <0>         0.1540
     11 C9         -2.0009   -2.8467    1.1270 C.3       1 <0>         0.0424
     12 N2         -1.2370   -3.4016    2.2523 N.3       1 <0>        -0.5301
     13 C10         0.1078   -2.8148    2.3243 C.3       1 <0>         0.0425
     14 C11         0.8913   -3.1855    1.0551 C.3       1 <0>         0.1551
     15 C12        -1.9589   -3.2205    3.5188 C.3       1 <0>         0.1329
     16 C13        -1.2734   -4.0089    4.6049 C.2       1 <0>        -0.2129
     17 C14        -1.5427   -5.3371    4.9529 C.2       1 <0>         0.0787
     18 N3         -0.7483   -5.6718    5.9377 N.2       1 <0>        -0.2898
     19 N4          0.0534   -4.5660    6.2489 N.pl3     1 <0>        -0.3219
     20 C15        -0.2847   -3.5591    5.4119 C.2       1 <0>         0.0574
     21 C16         1.0357   -4.5141    7.2475 C.ar      1 <0>         0.1612
     22 C17         1.7565   -3.3456    7.4542 C.ar      1 <0>        -0.1434
     23 C18         2.7234   -3.2974    8.4393 C.ar      1 <0>        -0.0919
     24 C19         2.9739   -4.4114    9.2193 C.ar      1 <0>        -0.1300
     25 C20         2.2578   -5.5766    9.0158 C.ar      1 <0>        -0.0943
     26 C21         1.2859   -5.6293    8.0358 C.ar      1 <0>        -0.1203
     27 H1          1.0053    1.8021    0.0021 H         1 <0>         0.0534
     28 H2         -0.5445    1.7859   -0.8732 H         1 <0>         0.0539
     29 H3         -0.5275    1.7763    0.9067 H         1 <0>         0.0969
     30 H4          1.1348    1.2363   -2.0057 H         1 <0>         0.1265
     31 H5          2.2267    0.1425   -3.9212 H         1 <0>         0.1241
     32 H6          2.3168   -2.3119   -4.0562 H         1 <0>         0.1244
     33 H7          1.3151   -3.6852   -2.2764 H         1 <0>         0.1287
     34 H8         -1.8021   -2.7100   -1.0179 H         1 <0>         0.0684
     35 H9         -1.3456   -4.2930   -0.3350 H         1 <0>         0.0566
     36 H10        -2.0515   -1.7620    1.2213 H         1 <0>         0.0392
     37 H11        -3.0095   -3.2602    1.1329 H         1 <0>         0.0782
     38 H12         0.0278   -1.7305    2.4020 H         1 <0>         0.0379
     39 H13         0.6286   -3.2051    3.1987 H         1 <0>         0.0748
     40 H14         1.0584   -4.2622    1.0257 H         1 <0>         0.0554
     41 H15         1.8480   -2.6633    1.0481 H         1 <0>         0.0662
     42 H16        -1.9650   -2.1637    3.7857 H         1 <0>         0.0390
     43 H17        -2.9842   -3.5728    3.4062 H         1 <0>         0.0851
     44 H18        -2.2795   -5.9760    4.4889 H         1 <0>         0.1897
     45 H19         0.1539   -2.5723    5.3927 H         1 <0>         0.1720
     46 H20         1.5615   -2.4753    6.8452 H         1 <0>         0.1280
     47 H21         3.2846   -2.3888    8.6004 H         1 <0>         0.1330
     48 H22         3.7308   -4.3714    9.9887 H         1 <0>         0.1294
     49 H23         2.4559   -6.4452    9.6263 H         1 <0>         0.1328
     50 H24         0.7240   -6.5384    7.8800 H         1 <0>         0.1379
@<TRIPOS>BOND
     1    1    2 1
     2    1   27 1
     3    1   28 1
     4    1   29 1
     5    2    3 1
     6    3    8 ar
     7    3    4 ar
     8    4    5 ar
     9    4   30 1
    10    5    6 ar
    11    5   31 1
    12    6    7 ar
    13    6   32 1
    14    7    8 ar
    15    7   33 1
    16    8    9 1
    17    9   14 1
    18    9   10 1
    19   10   11 1
    20   10   34 1
    21   10   35 1
    22   11   12 1
    23   11   36 1
    24   11   37 1
    25   12   13 1
    26   12   15 1
    27   13   14 1
    28   13   38 1
    29   13   39 1
    30   14   40 1
    31   14   41 1
    32   15   16 1
    33   15   42 1
    34   15   43 1
    35   16   20 2
    36   16   17 1
    37   17   18 2
    38   17   44 1
    39   18   19 1
    40   19   20 1
    41   19   21 1
    42   20   45 1
    43   21   26 ar
    44   21   22 ar
    45   22   23 ar
    46   22   46 1
    47   23   24 ar
    48   23   47 1
    49   24   25 ar
    50   24   48 1
    51   25   26 ar
    52   25   49 1
    53   26   50 1
@<TRIPOS>MOLECULE
ZINC19873373
   43    46     0     0     0
SMALL
USER_CHARGES
2-[[4-(4-fluorophenyl)piperazin-1-yl]methyl]imidazo[1,2-a]pyridine
@<TRIPOS>ATOM
      1 C1         -1.2403    1.7584    0.0175 C.2       1 <0>        -0.0215
      2 C2         -0.0126    1.0758    0.0080 C.2       1 <0>        -0.1135
      3 C3          1.1486    1.7634    0.0006 C.2       1 <0>         0.0831
      4 N1          1.1482    3.1282    0.0074 N.pl3     1 <0>        -0.3270
      5 C4          2.1557    4.0542    0.0023 C.2       1 <0>        -0.0298
      6 C5          1.5760    5.2745    0.0141 C.2       1 <0>         0.1042
      7 N2          0.2503    5.1168    0.0262 N.pl3     1 <0>        -0.5121
      8 C6         -0.0339    3.8221    0.0225 C.cat     1 <0>         0.3152
      9 C7         -1.2550    3.1185    0.0308 C.2       1 <0>        -0.1231
     10 C8          2.3045    6.5938    0.0137 C.3       1 <0>         0.1020
     11 N3          2.4215    7.0880   -1.3647 N.3       1 <0>        -0.5403
     12 C9          3.2888    6.2132   -2.1660 C.3       1 <0>         0.0471
     13 C10         3.3209    6.7162   -3.6112 C.3       1 <0>         0.0573
     14 N4          3.8100    8.1018   -3.6341 N.pl3     1 <0>        -0.4869
     15 C11         2.9427    8.9767   -2.8328 C.3       1 <0>         0.0478
     16 C12         2.9106    8.4736   -1.3876 C.3       1 <0>         0.0551
     17 C13         3.9214    8.5722   -4.9460 C.ar      1 <0>         0.0928
     18 C14         3.2491    9.7248   -5.3310 C.ar      1 <0>        -0.1393
     19 C15         3.3645   10.1904   -6.6263 C.ar      1 <0>        -0.1257
     20 C16         4.1412    9.5030   -7.5435 C.ar      1 <0>         0.0804
     21 C17         4.8082    8.3507   -7.1633 C.ar      1 <0>        -0.1273
     22 C18         4.7000    7.8844   -5.8677 C.ar      1 <0>        -0.1087
     23 F1          4.2489    9.9575   -8.8112 F         1 <0>        -0.1369
     24 H1         -2.1682    1.2058    0.0189 H         1 <0>         0.1740
     25 H2          0.0021   -0.0041    0.0020 H         1 <0>         0.1825
     26 H3          2.0869    1.2287   -0.0113 H         1 <0>         0.1990
     27 H4          3.2158    3.8481   -0.0091 H         1 <0>         0.2211
     28 H5         -2.1929    3.6538    0.0422 H         1 <0>         0.1779
     29 H6          1.7441    7.3222    0.6181 H         1 <0>         0.1144
     30 H7          3.3089    6.4582    0.4411 H         1 <0>         0.0904
     31 H8          4.3069    6.2254   -1.7498 H         1 <0>         0.0591
     32 H9          2.8956    5.1861   -2.1429 H         1 <0>         0.0795
     33 H10         3.9921    6.0795   -4.2062 H         1 <0>         0.0932
     34 H11         2.3068    6.6772   -4.0356 H         1 <0>         0.0537
     35 H12         3.3361   10.0037   -2.8559 H         1 <0>         0.0980
     36 H13         1.9246    8.9646   -3.2490 H         1 <0>         0.0592
     37 H14         2.2391    9.1093   -0.7919 H         1 <0>         0.0944
     38 H15         3.9244    8.5117   -0.9625 H         1 <0>         0.0591
     39 H16         2.6398   10.2590   -4.6170 H         1 <0>         0.1367
     40 H17         2.8454   11.0891   -6.9249 H         1 <0>         0.1390
     41 H18         5.4139    7.8163   -7.8802 H         1 <0>         0.1404
     42 H19         5.2207    6.9858   -5.5715 H         1 <0>         0.1344
     43 H20        -0.4083    5.9978    0.0370 H         1 <0>         0.5014
@<TRIPOS>BOND
     1    1    9 2
     2    1    2 1
     3    1   24 1
     4    2    3 2
     5    2   25 1
     6    3    4 1
     7    3   26 1
     8    4    8 1
     9    4    5 1
    10    5    6 2
    11    5   27 1
    12    6    7 1
    13    6   10 1
    14    7    8 2
    15    7   43 1
    16    8    9 1
    17    9   28 1
    18   10   11 1
    19   10   29 1
    20   10   30 1
    21   11   16 1
    22   11   12 1
    23   12   13 1
    24   12   31 1
    25   12   32 1
    26   13   14 1
    27   13   33 1
    28   13   34 1
    29   14   15 1
    30   14   17 1
    31   15   16 1
    32   15   35 1
    33   15   36 1
    34   16   37 1
    35   16   38 1
    36   17   22 ar
    37   17   18 ar
    38   18   19 ar
    39   18   39 1
    40   19   20 ar
    41   19   40 1
    42   20   21 ar
    43   20   23 1
    44   21   22 ar
    45   21   41 1
    46   22   42 1
@<TRIPOS>MOLECULE
ZINC19873373
   44    47     0     0     0
SMALL
USER_CHARGES
2-[[4-(4-fluorophenyl)piperazin-1-yl]methyl]imidazo[1,2-a]pyridine
@<TRIPOS>ATOM
      1 C1         -1.2403    1.7584    0.0175 C.2       1 <0>         0.0045
      2 C2         -0.0126    1.0758    0.0080 C.2       1 <0>        -0.0993
      3 C3          1.1486    1.7634    0.0006 C.2       1 <0>         0.0865
      4 N1          1.1482    3.1282    0.0074 N.pl3     1 <0>        -0.3344
      5 C4          2.1557    4.0542    0.0023 C.2       1 <0>         0.0302
      6 C5          1.5760    5.2745    0.0141 C.2       1 <0>         0.0040
      7 N2          0.2503    5.1168    0.0262 N.pl3     1 <0>        -0.5252
      8 C6         -0.0339    3.8221    0.0225 C.cat     1 <0>         0.3405
      9 C7         -1.2550    3.1185    0.0308 C.2       1 <0>        -0.1308
     10 C8          2.3045    6.5938    0.0137 C.3       1 <0>         0.0686
     11 N3          2.4215    7.0880   -1.3647 N.4       1 <0>        -0.4068
     12 C9          3.2888    6.2132   -2.1660 C.3       1 <0>        -0.0076
     13 C10         3.3209    6.7162   -3.6112 C.3       1 <0>         0.0244
     14 N4          3.8100    8.1018   -3.6341 N.pl3     1 <0>        -0.4811
     15 C11         2.9427    8.9767   -2.8328 C.3       1 <0>         0.0165
     16 C12         2.9106    8.4736   -1.3876 C.3       1 <0>        -0.0005
     17 C13         3.9214    8.5722   -4.9460 C.ar      1 <0>         0.0648
     18 C14         3.2491    9.7248   -5.3310 C.ar      1 <0>        -0.1307
     19 C15         3.3645   10.1904   -6.6263 C.ar      1 <0>        -0.1264
     20 C16         4.1412    9.5030   -7.5435 C.ar      1 <0>         0.1046
     21 C17         4.8082    8.3507   -7.1633 C.ar      1 <0>        -0.1269
     22 C18         4.7000    7.8844   -5.8677 C.ar      1 <0>        -0.0961
     23 F1          4.2489    9.9575   -8.8112 F         1 <0>        -0.1267
     24 H1         -2.1682    1.2058    0.0189 H         1 <0>         0.1844
     25 H2          0.0021   -0.0041    0.0020 H         1 <0>         0.1932
     26 H3          2.0869    1.2287   -0.0113 H         1 <0>         0.2089
     27 H4          3.2158    3.8481   -0.0091 H         1 <0>         0.2325
     28 H5         -2.1929    3.6538    0.0422 H         1 <0>         0.1860
     29 H6          1.7441    7.3222    0.6181 H         1 <0>         0.1656
     30 H7          3.3089    6.4582    0.4411 H         1 <0>         0.1743
     31 H8          4.3069    6.2254   -1.7498 H         1 <0>         0.1499
     32 H9          2.8956    5.1861   -2.1429 H         1 <0>         0.1299
     33 H10         3.9921    6.0795   -4.2062 H         1 <0>         0.1342
     34 H11         2.3068    6.6772   -4.0356 H         1 <0>         0.0698
     35 H12         3.3361   10.0037   -2.8559 H         1 <0>         0.1397
     36 H13         1.9246    8.9646   -3.2490 H         1 <0>         0.0745
     37 H14         2.2391    9.1093   -0.7919 H         1 <0>         0.1483
     38 H15         3.9244    8.5117   -0.9625 H         1 <0>         0.1487
     39 H16         2.6398   10.2590   -4.6170 H         1 <0>         0.1367
     40 H17         2.8454   11.0891   -6.9249 H         1 <0>         0.1460
     41 H18         5.4139    7.8163   -7.8802 H         1 <0>         0.1480
     42 H19         5.2207    6.9858   -5.5715 H         1 <0>         0.1379
     43 H20        -0.4083    5.9978    0.0370 H         1 <0>         0.5025
     44 H21         1.4174    7.0746   -1.8137 H         1 <0>         0.4370
@<TRIPOS>BOND
     1    1    9 2
     2    1    2 1
     3    1   24 1
     4    2    3 2
     5    2   25 1
     6    3    4 1
     7    3   26 1
     8    4    8 1
     9    4    5 1
    10    5    6 2
    11    5   27 1
    12    6    7 1
    13    6   10 1
    14    7    8 2
    15    7   43 1
    16    8    9 1
    17    9   28 1
    18   10   11 1
    19   10   29 1
    20   10   30 1
    21   11   16 1
    22   11   12 1
    23   11   44 1
    24   12   13 1
    25   12   31 1
    26   12   32 1
    27   13   14 1
    28   13   33 1
    29   13   34 1
    30   14   15 1
    31   14   17 1
    32   15   16 1
    33   15   35 1
    34   15   36 1
    35   16   37 1
    36   16   38 1
    37   17   22 ar
    38   17   18 ar
    39   18   19 ar
    40   18   39 1
    41   19   20 ar
    42   19   40 1
    43   20   21 ar
    44   20   23 1
    45   21   22 ar
    46   21   41 1
    47   22   42 1
@<TRIPOS>MOLECULE
ZINC19873373
   42    45     0     0     0
SMALL
USER_CHARGES
2-[[4-(4-fluorophenyl)piperazin-1-yl]methyl]imidazo[1,2-a]pyridine
@<TRIPOS>ATOM
      1 C1         -1.2403    1.7584    0.0175 C.2       1 <0>        -0.1027
      2 C2         -0.0126    1.0758    0.0080 C.2       1 <0>        -0.1401
      3 C3          1.1486    1.7634    0.0006 C.2       1 <0>         0.0529
      4 N1          1.1482    3.1282    0.0074 N.pl3     1 <0>        -0.3610
      5 C4          2.1557    4.0542    0.0023 C.2       1 <0>        -0.0967
      6 C5          1.5760    5.2745    0.0141 C.2       1 <0>         0.0728
      7 N2          0.2503    5.1168    0.0262 N.2       1 <0>        -0.4736
      8 C6         -0.0339    3.8221    0.0225 C.2       1 <0>         0.2228
      9 C7         -1.2550    3.1185    0.0308 C.2       1 <0>        -0.0778
     10 C8          2.3045    6.5938    0.0137 C.3       1 <0>         0.1347
     11 N3          2.4215    7.0880   -1.3647 N.3       1 <0>        -0.5317
     12 C9          3.2888    6.2132   -2.1660 C.3       1 <0>         0.0531
     13 C10         3.3209    6.7162   -3.6112 C.3       1 <0>         0.0596
     14 N4          3.8100    8.1018   -3.6341 N.pl3     1 <0>        -0.4883
     15 C11         2.9427    8.9767   -2.8328 C.3       1 <0>         0.0498
     16 C12         2.9106    8.4736   -1.3876 C.3       1 <0>         0.0561
     17 C13         3.9214    8.5722   -4.9460 C.ar      1 <0>         0.1034
     18 C14         3.2491    9.7248   -5.3310 C.ar      1 <0>        -0.1421
     19 C15         3.3645   10.1904   -6.6263 C.ar      1 <0>        -0.1251
     20 C16         4.1412    9.5030   -7.5435 C.ar      1 <0>         0.0702
     21 C17         4.8082    8.3507   -7.1633 C.ar      1 <0>        -0.1273
     22 C18         4.7000    7.8844   -5.8677 C.ar      1 <0>        -0.1123
     23 F1          4.2489    9.9575   -8.8112 F         1 <0>        -0.1417
     24 H1         -2.1682    1.2058    0.0189 H         1 <0>         0.1437
     25 H2          0.0021   -0.0041    0.0020 H         1 <0>         0.1517
     26 H3          2.0869    1.2287   -0.0113 H         1 <0>         0.1627
     27 H4          3.2158    3.8481   -0.0091 H         1 <0>         0.1794
     28 H5         -2.1929    3.6538    0.0422 H         1 <0>         0.1514
     29 H6          1.7441    7.3222    0.6181 H         1 <0>         0.0961
     30 H7          3.3089    6.4582    0.4411 H         1 <0>         0.0550
     31 H8          4.3069    6.2254   -1.7498 H         1 <0>         0.0464
     32 H9          2.8956    5.1861   -2.1429 H         1 <0>         0.0846
     33 H10         3.9921    6.0795   -4.2062 H         1 <0>         0.0871
     34 H11         2.3068    6.6772   -4.0356 H         1 <0>         0.0546
     35 H12         3.3361   10.0037   -2.8559 H         1 <0>         0.0907
     36 H13         1.9246    8.9646   -3.2490 H         1 <0>         0.0590
     37 H14         2.2391    9.1093   -0.7919 H         1 <0>         0.0895
     38 H15         3.9244    8.5117   -0.9625 H         1 <0>         0.0475
     39 H16         2.6398   10.2590   -4.6170 H         1 <0>         0.1377
     40 H17         2.8454   11.0891   -6.9249 H         1 <0>         0.1361
     41 H18         5.4139    7.8163   -7.8802 H         1 <0>         0.1373
     42 H19         5.2207    6.9858   -5.5715 H         1 <0>         0.1343
@<TRIPOS>BOND
     1    1    9 2
     2    1    2 1
     3    1   24 1
     4    2    3 2
     5    2   25 1
     6    3    4 1
     7    3   26 1
     8    4    8 1
     9    4    5 1
    10    5    6 2
    11    5   27 1
    12    6    7 1
    13    6   10 1
    14    7    8 2
    15    8    9 1
    16    9   28 1
    17   10   11 1
    18   10   29 1
    19   10   30 1
    20   11   16 1
    21   11   12 1
    22   12   13 1
    23   12   31 1
    24   12   32 1
    25   13   14 1
    26   13   33 1
    27   13   34 1
    28   14   15 1
    29   14   17 1
    30   15   16 1
    31   15   35 1
    32   15   36 1
    33   16   37 1
    34   16   38 1
    35   17   22 ar
    36   17   18 ar
    37   18   19 ar
    38   18   39 1
    39   19   20 ar
    40   19   40 1
    41   20   21 ar
    42   20   23 1
    43   21   22 ar
    44   21   41 1
    45   22   42 1
@<TRIPOS>MOLECULE
ZINC19796155
   42    45     0     0     0
SMALL
USER_CHARGES

@<TRIPOS>ATOM
      1 C1         -0.0670    1.4396   -0.3852 C.3       1 <0>         0.0243
      2 N1         -0.0229   -0.0169   -0.1987 N.3       1 <0>        -0.5428
      3 C2          0.3808   -0.6943   -1.4380 C.3       1 <0>         0.0399
      4 C3          0.2401   -2.2095   -1.2572 C.3       1 <0>         0.1263
      5 N2          0.9912   -2.6085   -0.0572 N.pl3     1 <0>        -0.5953
      6 C4          0.7394   -1.8803    1.1955 C.3       1 <0>         0.1122
      7 C5          0.8604   -0.3781    0.9181 C.3       1 <0>         0.0393
      8 C6          1.9051   -3.6365   -0.1053 C.2       1 <0>         0.5098
      9 N3          2.1670   -4.1290   -1.2643 N.2       1 <0>        -0.6041
     10 C7          3.0130   -5.1503   -1.5719 C.ar      1 <0>         0.1655
     11 C8          2.6280   -6.0848   -2.5372 C.ar      1 <0>        -0.1058
     12 C9          3.4872   -7.1047   -2.8991 C.ar      1 <0>        -0.0230
     13 C10         4.7348   -7.2069   -2.3106 C.ar      1 <0>        -0.1209
     14 C11         5.1212   -6.2977   -1.3402 C.ar      1 <0>        -0.1017
     15 C12         4.2618   -5.2835   -0.9546 C.ar      1 <0>         0.1117
     16 N4          4.6314   -4.4326    0.1003 N.pl3     1 <0>        -0.7261
     17 C13         3.8434   -4.4184    1.2519 C.ar      1 <0>         0.2140
     18 C14         2.4943   -4.0640    1.1729 C.ar      1 <0>        -0.1453
     19 C15         1.7072   -4.1133    2.3240 C.ar      1 <0>        -0.0723
     20 C16         2.2727   -4.4729    3.5311 C.ar      1 <0>        -0.1389
     21 C17         3.6189   -4.7825    3.6069 C.ar      1 <0>        -0.0765
     22 C18         4.3974   -4.7629    2.4751 C.ar      1 <0>        -0.1433
     23 Cl1         2.9987   -8.2627   -4.0966 Cl        1 <0>        -0.0679
     24 H1          0.9359    1.8090   -0.5992 H         1 <0>         0.0255
     25 H2         -0.7279    1.6794   -1.2181 H         1 <0>         0.0711
     26 H3         -0.4416    1.9111    0.5233 H         1 <0>         0.0709
     27 H4         -0.2581   -0.3649   -2.2574 H         1 <0>         0.0878
     28 H5          1.4186   -0.4499   -1.6647 H         1 <0>         0.0378
     29 H6         -0.8117   -2.4673   -1.1334 H         1 <0>         0.0720
     30 H7          0.6453   -2.7216   -2.1299 H         1 <0>         0.1060
     31 H8         -0.2645   -2.1065    1.5551 H         1 <0>         0.0792
     32 H9          1.4746   -2.1748    1.9444 H         1 <0>         0.0984
     33 H10         1.8915   -0.1381    0.6586 H         1 <0>         0.0379
     34 H11         0.5693    0.1807    1.8075 H         1 <0>         0.0892
     35 H12         1.6558   -6.0097   -3.0016 H         1 <0>         0.1375
     36 H13         5.4083   -7.9971   -2.6081 H         1 <0>         0.1357
     37 H14         6.0961   -6.3802   -0.8829 H         1 <0>         0.1326
     38 H15         5.4169   -3.8679    0.0299 H         1 <0>         0.4097
     39 H16         0.6563   -3.8699    2.2709 H         1 <0>         0.1344
     40 H17         1.6613   -4.5124    4.4205 H         1 <0>         0.1323
     41 H18         4.0571   -5.0467    4.5580 H         1 <0>         0.1317
     42 H19         5.4473   -5.0071    2.5424 H         1 <0>         0.1313
@<TRIPOS>BOND
     1    1    2 1
     2    1   24 1
     3    1   25 1
     4    1   26 1
     5    2    7 1
     6    2    3 1
     7    3    4 1
     8    3   27 1
     9    3   28 1
    10    4    5 1
    11    4   29 1
    12    4   30 1
    13    5    6 1
    14    5    8 1
    15    6    7 1
    16    6   31 1
    17    6   32 1
    18    7   33 1
    19    7   34 1
    20    8   18 1
    21    8    9 2
    22    9   10 1
    23   10   15 ar
    24   10   11 ar
    25   11   12 ar
    26   11   35 1
    27   12   13 ar
    28   12   23 1
    29   13   14 ar
    30   13   36 1
    31   14   15 ar
    32   14   37 1
    33   15   16 1
    34   16   17 1
    35   16   38 1
    36   17   22 ar
    37   17   18 ar
    38   18   19 ar
    39   19   20 ar
    40   19   39 1
    41   20   21 ar
    42   20   40 1
    43   21   22 ar
    44   21   41 1
    45   22   42 1
@<TRIPOS>MOLECULE
ZINC19796155
   44    47     0     0     0
SMALL
USER_CHARGES

@<TRIPOS>ATOM
      1 C1         -1.5703   -0.0018   -1.9302 C.3       1 <0>        -0.0497
      2 N1         -0.7527   -0.7171   -0.9414 N.4       1 <0>        -0.3854
      3 C2         -1.0498   -2.1535   -1.0104 C.3       1 <0>        -0.0252
      4 C3         -0.2839   -2.8861    0.0962 C.3       1 <0>         0.1048
      5 N2          1.1441   -2.5548   -0.0269 N.pl3     1 <0>        -0.7052
      6 C4          1.5202   -1.1363   -0.1296 C.3       1 <0>         0.1049
      7 C5          0.6692   -0.4862   -1.2256 C.3       1 <0>        -0.0251
      8 C6          2.0831   -3.5253   -0.0448 C.2       1 <0>         0.6309
      9 C7          2.6112   -3.9094    1.2074 C.ar      1 <0>        -0.2438
     10 C8          2.0495   -3.1929    2.2728 C.ar      1 <0>         0.0055
     11 C9          2.4602   -3.4528    3.5483 C.ar      1 <0>        -0.1817
     12 C10         3.4265   -4.4148    3.8208 C.ar      1 <0>         0.0489
     13 C11         4.0101   -5.1439    2.8276 C.ar      1 <0>        -0.2233
     14 C12         3.6302   -4.9235    1.4921 C.ar      1 <0>         0.3343
     15 N3          4.2865   -5.7106    0.6358 N.pl3     1 <0>        -0.6131
     16 C13         4.1767   -5.7728   -0.7271 C.ar      1 <0>         0.1589
     17 C14         5.0408   -6.7320   -1.2562 C.ar      1 <0>        -0.1157
     18 C15         5.0795   -6.9478   -2.6222 C.ar      1 <0>        -0.0495
     19 C16         4.2642   -6.2154   -3.4643 C.ar      1 <0>        -0.0338
     20 C17         3.4016   -5.2585   -2.9468 C.ar      1 <0>        -0.0846
     21 C18         3.3520   -5.0321   -1.5848 C.ar      1 <0>         0.0769
     22 N4          2.4115   -4.0290   -1.2719 N.pl3     1 <0>        -0.5773
     23 Cl1         4.3195   -6.4929   -5.1771 Cl        1 <0>        -0.0159
     24 H1         -1.3348   -0.3678   -2.9295 H         1 <0>         0.1246
     25 H2         -2.6262   -0.1724   -1.7203 H         1 <0>         0.1321
     26 H3         -1.3566    1.0656   -1.8745 H         1 <0>         0.1321
     27 H4         -2.1201   -2.3101   -0.8766 H         1 <0>         0.1569
     28 H5         -0.7442   -2.5415   -1.9820 H         1 <0>         0.1344
     29 H6         -0.6518   -2.5648    1.0707 H         1 <0>         0.1155
     30 H7         -0.4211   -3.9618   -0.0138 H         1 <0>         0.1302
     31 H8          1.3345   -0.6383    0.8220 H         1 <0>         0.1155
     32 H9          2.5758   -1.0551   -0.3891 H         1 <0>         0.1302
     33 H10         0.9228   -0.9247   -2.1907 H         1 <0>         0.1344
     34 H11         0.8655    0.5856   -1.2504 H         1 <0>         0.1569
     35 H12         1.2975   -2.4405    2.0860 H         1 <0>         0.1502
     36 H13         2.0243   -2.8976    4.3657 H         1 <0>         0.1496
     37 H14         3.7223   -4.5886    4.8448 H         1 <0>         0.1558
     38 H15         4.7590   -5.8851    3.0650 H         1 <0>         0.1623
     39 H16         5.6790   -7.3052   -0.6001 H         1 <0>         0.1677
     40 H17         5.7487   -7.6901   -3.0316 H         1 <0>         0.1653
     41 H18         2.7675   -4.6896   -3.6107 H         1 <0>         0.1565
     42 H19         1.9393   -3.6432   -2.0263 H         1 <0>         0.4255
     43 H20         4.9278   -6.3202    1.0333 H         1 <0>         0.4372
     44 H21        -0.9695   -0.3754   -0.0171 H         1 <0>         0.4310
@<TRIPOS>BOND
     1    1    2 1
     2    1   24 1
     3    1   25 1
     4    1   26 1
     5    2    7 1
     6    2    3 1
     7    2   44 1
     8    3    4 1
     9    3   27 1
    10    3   28 1
    11    4    5 1
    12    4   29 1
    13    4   30 1
    14    5    6 1
    15    5    8 1
    16    6    7 1
    17    6   31 1
    18    6   32 1
    19    7   33 1
    20    7   34 1
    21    8   22 1
    22    8    9 2
    23    9   14 ar
    24    9   10 ar
    25   10   11 ar
    26   10   35 1
    27   11   12 ar
    28   11   36 1
    29   12   13 ar
    30   12   37 1
    31   13   14 ar
    32   13   38 1
    33   14   15 2
    34   15   16 1
    35   15   43 1
    36   16   21 ar
    37   16   17 ar
    38   17   18 ar
    39   17   39 1
    40   18   19 ar
    41   18   40 1
    42   19   20 ar
    43   19   23 1
    44   20   21 ar
    45   20   41 1
    46   21   22 1
    47   22   42 1
@<TRIPOS>MOLECULE
ZINC19796155
   43    46     0     0     0
SMALL
USER_CHARGES

@<TRIPOS>ATOM
      1 C1         -0.0523    1.4387   -0.3863 C.3       1 <0>        -0.0469
      2 N1         -0.0147   -0.0168   -0.1908 N.4       1 <0>        -0.3852
      3 C2          0.4863   -0.6601   -1.4120 C.3       1 <0>        -0.0213
      4 C3          0.4181   -2.1823   -1.2510 C.3       1 <0>         0.1002
      5 N2          1.1441   -2.5548   -0.0269 N.pl3     1 <0>        -0.6180
      6 C4          0.8178   -1.8405    1.2170 C.3       1 <0>         0.0860
      7 C5          0.8671   -0.3344    0.9395 C.3       1 <0>        -0.0221
      8 C6          2.1017   -3.5432   -0.0451 C.2       1 <0>         0.5019
      9 N3          2.4234   -4.0210   -1.1951 N.2       1 <0>        -0.5760
     10 C7          3.3217   -5.0050   -1.4750 C.ar      1 <0>         0.1390
     11 C8          3.0096   -5.9522   -2.4541 C.ar      1 <0>        -0.0932
     12 C9          3.9229   -6.9340   -2.7877 C.ar      1 <0>        -0.0267
     13 C10         5.1529   -6.9852   -2.1572 C.ar      1 <0>        -0.1032
     14 C11         5.4673   -6.0631   -1.1730 C.ar      1 <0>        -0.1031
     15 C12         4.5533   -5.0871   -0.8155 C.ar      1 <0>         0.1235
     16 N4          4.8505   -4.2243    0.2524 N.pl3     1 <0>        -0.7273
     17 C13         4.0239   -4.2464    1.3765 C.ar      1 <0>         0.2173
     18 C14         2.6645   -3.9489    1.2520 C.ar      1 <0>        -0.1537
     19 C15         1.8414   -4.0345    2.3754 C.ar      1 <0>        -0.0841
     20 C16         2.3802   -4.3733    3.6007 C.ar      1 <0>        -0.1334
     21 C17         3.7349   -4.6261    3.7220 C.ar      1 <0>        -0.0692
     22 C18         4.5500   -4.5705    2.6174 C.ar      1 <0>        -0.1369
     23 Cl1         3.5248   -8.1083   -4.0027 Cl        1 <0>        -0.0551
     24 H1          0.9534    1.8033   -0.5956 H         1 <0>         0.1211
     25 H2         -0.7066    1.6758   -1.2253 H         1 <0>         0.1256
     26 H3         -0.4316    1.9169    0.5167 H         1 <0>         0.1252
     27 H4         -0.1269   -0.3565   -2.2605 H         1 <0>         0.1425
     28 H5          1.5196   -0.3587   -1.5839 H         1 <0>         0.1315
     29 H6         -0.6226   -2.4957   -1.1694 H         1 <0>         0.0898
     30 H7          0.8819   -2.6629   -2.1125 H         1 <0>         0.1431
     31 H8         -0.1827   -2.1194    1.5479 H         1 <0>         0.0960
     32 H9          1.5457   -2.0950    1.9873 H         1 <0>         0.1385
     33 H10         1.8889   -0.0428    0.6965 H         1 <0>         0.1320
     34 H11         0.5345    0.2092    1.8238 H         1 <0>         0.1439
     35 H12         2.0515   -5.9169   -2.9512 H         1 <0>         0.1396
     36 H13         5.8689   -7.7454   -2.4325 H         1 <0>         0.1422
     37 H14         6.4287   -6.1057   -0.6827 H         1 <0>         0.1382
     38 H15         5.6134   -3.6267    0.2096 H         1 <0>         0.4129
     39 H16         0.7836   -3.8354    2.2868 H         1 <0>         0.1314
     40 H17         1.7411   -4.4409    4.4686 H         1 <0>         0.1357
     41 H18         4.1512   -4.8742    4.6872 H         1 <0>         0.1370
     42 H19         5.6063   -4.7705    2.7202 H         1 <0>         0.1363
     43 H20        -0.9456   -0.3526    0.0057 H         1 <0>         0.4250
@<TRIPOS>BOND
     1    1    2 1
     2    1   24 1
     3    1   25 1
     4    1   26 1
     5    2    7 1
     6    2    3 1
     7    2   43 1
     8    3    4 1
     9    3   27 1
    10    3   28 1
    11    4    5 1
    12    4   29 1
    13    4   30 1
    14    5    6 1
    15    5    8 1
    16    6    7 1
    17    6   31 1
    18    6   32 1
    19    7   33 1
    20    7   34 1
    21    8   18 1
    22    8    9 2
    23    9   10 1
    24   10   15 ar
    25   10   11 ar
    26   11   12 ar
    27   11   35 1
    28   12   13 ar
    29   12   23 1
    30   13   14 ar
    31   13   36 1
    32   14   15 ar
    33   14   37 1
    34   15   16 1
    35   16   17 1
    36   16   38 1
    37   17   22 ar
    38   17   18 ar
    39   18   19 ar
    40   19   20 ar
    41   19   39 1
    42   20   21 ar
    43   20   40 1
    44   21   22 ar
    45   21   41 1
    46   22   42 1
@<TRIPOS>MOLECULE
ZINC53275074
   46    49     0     0     0
SMALL
USER_CHARGES

@<TRIPOS>ATOM
      1 C1         -0.0023    1.4298   -0.0644 C.ar      1 <0>        -0.1286
      2 C2          1.1891    2.1317   -0.0622 C.ar      1 <0>        -0.0942
      3 C3          2.3921    1.4531   -0.0645 C.ar      1 <0>        -0.1194
      4 C4          2.4043    0.0648   -0.0685 C.ar      1 <0>         0.1588
      5 C5          1.2064   -0.6372   -0.0702 C.ar      1 <0>        -0.1429
      6 C6          0.0066    0.0471   -0.0684 C.ar      1 <0>        -0.0919
      7 N1          3.6236   -0.6269   -0.0712 N.pl3     1 <0>        -0.3204
      8 C7          3.7765   -1.9704   -0.0807 C.2       1 <0>         0.0580
      9 C8          5.1038   -2.2338   -0.0806 C.2       1 <0>        -0.2169
     10 C9          5.7854   -1.0119   -0.0709 C.2       1 <0>         0.0786
     11 N2          4.8995   -0.0485   -0.0709 N.2       1 <0>        -0.2882
     12 C10         5.7362   -3.6016   -0.0891 C.3       1 <0>         0.1332
     13 N3          5.9435   -4.0367   -1.4768 N.3       1 <0>        -0.5323
     14 C11         4.6603   -4.2328   -2.1643 C.3       1 <0>         0.0392
     15 C12         4.9172   -4.5077   -3.6498 C.3       1 <0>         0.1258
     16 N4          5.8603   -5.6310   -3.7607 N.pl3     1 <0>        -0.6285
     17 C13         7.1111   -5.5682   -2.9895 C.3       1 <0>         0.1254
     18 C14         6.7677   -5.2515   -1.5301 C.3       1 <0>         0.0402
     19 C15         5.5750   -6.7295   -4.5773 C.ar      1 <0>         0.2136
     20 C16         4.3418   -6.8249   -5.2089 C.ar      1 <0>        -0.1749
     21 C17         4.0624   -7.9108   -6.0155 C.ar      1 <0>        -0.1009
     22 C18         5.0106   -8.9038   -6.1946 C.ar      1 <0>         0.0332
     23 C19         6.2408   -8.8107   -5.5658 C.ar      1 <0>        -0.1007
     24 C20         6.5265   -7.7240   -4.7626 C.ar      1 <0>        -0.1737
     25 F1          4.7350   -9.9652   -6.9836 F         1 <0>        -0.1464
     26 H1         -0.9417    1.9627   -0.0584 H         1 <0>         0.1300
     27 H2          1.1790    3.2117   -0.0591 H         1 <0>         0.1333
     28 H3          3.3223    2.0018   -0.0635 H         1 <0>         0.1380
     29 H4          1.2128   -1.7171   -0.0736 H         1 <0>         0.1281
     30 H5         -0.9255   -0.4984   -0.0697 H         1 <0>         0.1336
     31 H6          2.9819   -2.7019   -0.0867 H         1 <0>         0.1728
     32 H7          6.8580   -0.8854   -0.0682 H         1 <0>         0.1901
     33 H8          6.6958   -3.5615    0.4263 H         1 <0>         0.0883
     34 H9          5.0801   -4.3084    0.4191 H         1 <0>         0.0419
     35 H10         4.1369   -5.0808   -1.7227 H         1 <0>         0.0379
     36 H11         4.0511   -3.3348   -2.0607 H         1 <0>         0.0852
     37 H12         3.9797   -4.7668   -4.1418 H         1 <0>         0.0854
     38 H13         5.3466   -3.6216   -4.1173 H         1 <0>         0.0710
     39 H14         7.6240   -6.5284   -3.0450 H         1 <0>         0.0869
     40 H15         7.7513   -4.7840   -3.3935 H         1 <0>         0.0723
     41 H16         7.6870   -5.0923   -0.9664 H         1 <0>         0.0888
     42 H17         6.2150   -6.0853   -1.0973 H         1 <0>         0.0394
     43 H18         3.6018   -6.0508   -5.0692 H         1 <0>         0.1311
     44 H19         3.1034   -7.9856   -6.5066 H         1 <0>         0.1335
     45 H20         6.9788   -9.5865   -5.7066 H         1 <0>         0.1340
     46 H21         7.4878   -7.6496   -4.2759 H         1 <0>         0.1321
@<TRIPOS>BOND
     1    1    6 ar
     2    1    2 ar
     3    1   26 1
     4    2    3 ar
     5    2   27 1
     6    3    4 ar
     7    3   28 1
     8    4    5 ar
     9    4    7 1
    10    5    6 ar
    11    5   29 1
    12    6   30 1
    13    7   11 1
    14    7    8 1
    15    8    9 2
    16    8   31 1
    17    9   10 1
    18    9   12 1
    19   10   11 2
    20   10   32 1
    21   12   13 1
    22   12   33 1
    23   12   34 1
    24   13   18 1
    25   13   14 1
    26   14   15 1
    27   14   35 1
    28   14   36 1
    29   15   16 1
    30   15   37 1
    31   15   38 1
    32   16   17 1
    33   16   19 1
    34   17   18 1
    35   17   39 1
    36   17   40 1
    37   18   41 1
    38   18   42 1
    39   19   24 ar
    40   19   20 ar
    41   20   21 ar
    42   20   43 1
    43   21   22 ar
    44   21   44 1
    45   22   23 ar
    46   22   25 1
    47   23   24 ar
    48   23   45 1
    49   24   46 1
@<TRIPOS>MOLECULE
ZINC00537822
   50    52     0     0     0
SMALL
USER_CHARGES

@<TRIPOS>ATOM
      1 C1         -0.0169    1.3952    0.0097 C.ar      1 <0>        -0.0260
      2 C2          1.1683    2.0970    0.0022 C.ar      1 <0>        -0.1650
      3 C3          2.3789    1.4198   -0.0130 C.ar      1 <0>         0.1439
      4 C4          2.4047    0.0329   -0.0212 C.ar      1 <0>        -0.1670
      5 C5          1.2267   -0.6810   -0.0142 C.ar      1 <0>        -0.0432
      6 C6          0.0021   -0.0041    0.0020 C.ar      1 <0>        -0.1967
      7 C7         -1.2591   -0.7596    0.0105 C.2       1 <0>         0.4038
      8 O1         -2.3189   -0.1702    0.0242 O.2       1 <0>        -0.4483
      9 C8         -1.2348   -2.2664    0.0022 C.3       1 <0>        -0.1653
     10 C9         -2.6689   -2.7996    0.0135 C.3       1 <0>        -0.1429
     11 C10        -2.6443   -4.3293    0.0051 C.3       1 <0>        -0.0092
     12 N1         -4.0211   -4.8413    0.0160 N.4       1 <0>        -0.3830
     13 C11        -4.6726   -4.4620    1.2755 C.3       1 <0>        -0.0093
     14 C12        -6.1318   -4.9225    1.2582 C.3       1 <0>        -0.1330
     15 C13        -6.1791   -6.4445    1.0954 C.3       1 <0>         0.1746
     16 C14        -5.4322   -6.8346   -0.1834 C.3       1 <0>        -0.1706
     17 C15        -3.9990   -6.3033   -0.1127 C.3       1 <0>        -0.0017
     18 C16        -7.6135   -6.8966    0.9991 C.ar      1 <0>        -0.1262
     19 C17        -8.5661   -6.0599    0.4482 C.ar      1 <0>        -0.1006
     20 C18        -9.8818   -6.4740    0.3596 C.ar      1 <0>        -0.1039
     21 C19       -10.2453   -7.7262    0.8224 C.ar      1 <0>        -0.0247
     22 C20        -9.2914   -8.5631    1.3735 C.ar      1 <0>        -0.1016
     23 C21        -7.9750   -8.1501    1.4564 C.ar      1 <0>        -0.0934
     24 Cl1       -11.8977   -8.2468    0.7119 Cl        1 <0>        -0.0500
     25 O2         -5.5554   -7.0652    2.2213 O.3       1 <0>        -0.5474
     26 F1          3.5378    2.1141   -0.0204 F         1 <0>        -0.1258
     27 H1         -0.9587    1.9236    0.0260 H         1 <0>         0.1459
     28 H2          1.1551    3.1769    0.0077 H         1 <0>         0.1477
     29 H3          3.3506   -0.4883   -0.0334 H         1 <0>         0.1469
     30 H4          1.2482   -1.7608   -0.0213 H         1 <0>         0.1412
     31 H5         -0.7241   -2.6166   -0.8948 H         1 <0>         0.1127
     32 H6         -0.7064   -2.6261    0.8850 H         1 <0>         0.1127
     33 H7         -3.1796   -2.4493    0.9105 H         1 <0>         0.0952
     34 H8         -3.1973   -2.4398   -0.8693 H         1 <0>         0.0947
     35 H9         -2.1335   -4.6796   -0.8919 H         1 <0>         0.1333
     36 H10        -2.1158   -4.6891    0.8880 H         1 <0>         0.1327
     37 H11        -4.1530   -4.9339    2.1093 H         1 <0>         0.1388
     38 H12        -4.6353   -3.3788    1.3915 H         1 <0>         0.1356
     39 H13        -6.6132   -4.6415    2.1949 H         1 <0>         0.1238
     40 H14        -6.6524   -4.4509    0.4248 H         1 <0>         0.1045
     41 H15        -5.4137   -7.9204   -0.2771 H         1 <0>         0.1175
     42 H16        -5.9384   -6.4027   -1.0467 H         1 <0>         0.1009
     43 H17        -3.4644   -6.5795   -1.0215 H         1 <0>         0.1329
     44 H18        -3.4937   -6.7360    0.7507 H         1 <0>         0.1354
     45 H19        -8.2824   -5.0823    0.0874 H         1 <0>         0.1334
     46 H20       -10.6260   -5.8201   -0.0704 H         1 <0>         0.1408
     47 H21        -9.5746   -9.5405    1.7352 H         1 <0>         0.1414
     48 H22        -7.2294   -8.8051    1.8823 H         1 <0>         0.1323
     49 H23        -5.5495   -8.0314    2.1846 H         1 <0>         0.3907
     50 H24        -4.5327   -4.4442   -0.7578 H         1 <0>         0.4215
@<TRIPOS>BOND
     1    1    6 ar
     2    1    2 ar
     3    1   27 1
     4    2    3 ar
     5    2   28 1
     6    3    4 ar
     7    3   26 1
     8    4    5 ar
     9    4   29 1
    10    5    6 ar
    11    5   30 1
    12    6    7 1
    13    7    8 2
    14    7    9 1
    15    9   10 1
    16    9   31 1
    17    9   32 1
    18   10   11 1
    19   10   33 1
    20   10   34 1
    21   11   12 1
    22   11   35 1
    23   11   36 1
    24   12   17 1
    25   12   13 1
    26   12   50 1
    27   13   14 1
    28   13   37 1
    29   13   38 1
    30   14   15 1
    31   14   39 1
    32   14   40 1
    33   15   16 1
    34   15   18 1
    35   15   25 1
    36   16   17 1
    37   16   41 1
    38   16   42 1
    39   17   43 1
    40   17   44 1
    41   18   23 ar
    42   18   19 ar
    43   19   20 ar
    44   19   45 1
    45   20   21 ar
    46   20   46 1
    47   21   22 ar
    48   21   24 1
    49   22   23 ar
    50   22   47 1
    51   23   48 1
    52   25   49 1
@<TRIPOS>MOLECULE
ZINC03917109
   63    66     0     0     0
SMALL
USER_CHARGES

@<TRIPOS>ATOM
      1 C1         -0.0173    1.4248    0.0099 C.3       1 <0>         0.0228
      2 O1          0.0021   -0.0041    0.0020 O.3       1 <0>        -0.3111
      3 C2          0.6063   -0.6076   -1.0566 C.ar      1 <0>         0.1291
      4 C3          1.1727    0.1584   -2.0619 C.ar      1 <0>        -0.2022
      5 C4          1.7862   -0.4565   -3.1379 C.ar      1 <0>        -0.0669
      6 C5          1.8369   -1.8361   -3.2138 C.ar      1 <0>        -0.1491
      7 C6          1.2745   -2.6077   -2.2144 C.ar      1 <0>        -0.0822
      8 C7          0.6620   -1.9977   -1.1294 C.ar      1 <0>         0.1088
      9 N1          0.0968   -2.7768   -0.1132 N.pl3     1 <0>        -0.6636
     10 C8         -1.3057   -3.2146   -0.1871 C.3       1 <0>         0.1216
     11 C9         -1.3569   -4.7253    0.0636 C.3       1 <0>        -0.0220
     12 N2         -0.6925   -5.0320    1.3366 N.4       1 <0>        -0.3806
     13 C10         0.7338   -4.6939    1.2505 C.3       1 <0>        -0.0274
     14 C11         0.8902   -3.1864    1.0559 C.3       1 <0>         0.1218
     15 C12        -0.8376   -6.4641    1.6301 C.3       1 <0>        -0.0087
     16 C13        -0.2558   -6.7628    3.0132 C.3       1 <0>        -0.1461
     17 C14        -0.4069   -8.2543    3.3189 C.3       1 <0>        -0.1300
     18 C15         0.1750   -8.5530    4.7020 C.3       1 <0>         0.1193
     19 N3          0.0302   -9.9811    4.9947 N.am      1 <0>        -0.7331
     20 C16         0.4752  -10.4775    6.1660 C.2       1 <0>         0.5643
     21 O2          0.9967   -9.7401    6.9797 O.2       1 <0>        -0.5315
     22 C17         0.3293  -11.9181    6.4612 C.ar      1 <0>        -0.1484
     23 C18        -0.2697  -12.7675    5.5136 C.ar      1 <0>        -0.0967
     24 C19        -0.4150  -14.0939    5.7614 C.ar      1 <0>        -0.1051
     25 C20         0.0356  -14.6361    6.9791 C.ar      1 <0>        -0.0320
     26 C21        -0.1038  -16.0058    7.2582 C.ar      1 <0>        -0.1147
     27 C22         0.3421  -16.5017    8.4450 C.ar      1 <0>        -0.0983
     28 C23         0.9368  -15.6705    9.3925 C.ar      1 <0>        -0.1143
     29 C24         1.0892  -14.3386    9.1579 C.ar      1 <0>        -0.0963
     30 C25         0.6411  -13.7901    7.9427 C.ar      1 <0>        -0.0651
     31 C26         0.7884  -12.4225    7.6665 C.ar      1 <0>        -0.0245
     32 H1          1.0053    1.8021    0.0021 H         1 <0>         0.0589
     33 H2         -0.5445    1.7859   -0.8732 H         1 <0>         0.0589
     34 H3         -0.5275    1.7763    0.9067 H         1 <0>         0.1037
     35 H4          1.1348    1.2363   -2.0057 H         1 <0>         0.1341
     36 H5          2.2267    0.1425   -3.9212 H         1 <0>         0.1320
     37 H6          2.3168   -2.3119   -4.0562 H         1 <0>         0.1305
     38 H7          1.3151   -3.6852   -2.2764 H         1 <0>         0.1264
     39 H8         -1.8914   -2.6971    0.5728 H         1 <0>         0.0778
     40 H9         -1.7068   -2.9936   -1.1762 H         1 <0>         0.1138
     41 H10        -2.3961   -5.0513    0.1082 H         1 <0>         0.1357
     42 H11        -0.8470   -5.2457   -0.7471 H         1 <0>         0.1295
     43 H12         1.2353   -4.9969    2.1697 H         1 <0>         0.1375
     44 H13         1.1804   -5.2153    0.4039 H         1 <0>         0.1298
     45 H14         1.9402   -2.9468    0.8881 H         1 <0>         0.1137
     46 H15         0.5300   -2.6661    1.9434 H         1 <0>         0.0774
     47 H16        -1.8938   -6.7330    1.6144 H         1 <0>         0.1318
     48 H17        -0.3036   -7.0450    0.8781 H         1 <0>         0.1294
     49 H18         0.8004   -6.4939    3.0289 H         1 <0>         0.0916
     50 H19        -0.7898   -6.1819    3.7652 H         1 <0>         0.0922
     51 H20        -1.4631   -8.5232    3.3032 H         1 <0>         0.0826
     52 H21         0.1271   -8.8352    2.5669 H         1 <0>         0.0820
     53 H22         1.2312   -8.2841    4.7177 H         1 <0>         0.0723
     54 H23        -0.3590   -7.9721    5.4540 H         1 <0>         0.0726
     55 H24        -0.3859  -10.5695    4.3454 H         1 <0>         0.4021
     56 H25        -0.6188  -12.3588    4.5768 H         1 <0>         0.1223
     57 H26        -0.8770  -14.7335    5.0239 H         1 <0>         0.1343
     58 H27        -0.5632  -16.6627    6.5343 H         1 <0>         0.1320
     59 H28         0.2331  -17.5553    8.6557 H         1 <0>         0.1293
     60 H29         1.2814  -16.0892   10.3264 H         1 <0>         0.1298
     61 H30         1.5515  -13.7060    9.9012 H         1 <0>         0.1331
     62 H31         1.2517  -11.7677    8.3897 H         1 <0>         0.1429
     63 H32        -1.1202   -4.4947    2.0759 H         1 <0>         0.4226
@<TRIPOS>BOND
     1    1    2 1
     2    1   32 1
     3    1   33 1
     4    1   34 1
     5    2    3 1
     6    3    8 ar
     7    3    4 ar
     8    4    5 ar
     9    4   35 1
    10    5    6 ar
    11    5   36 1
    12    6    7 ar
    13    6   37 1
    14    7    8 ar
    15    7   38 1
    16    8    9 1
    17    9   14 1
    18    9   10 1
    19   10   11 1
    20   10   39 1
    21   10   40 1
    22   11   12 1
    23   11   41 1
    24   11   42 1
    25   12   13 1
    26   12   15 1
    27   12   63 1
    28   13   14 1
    29   13   43 1
    30   13   44 1
    31   14   45 1
    32   14   46 1
    33   15   16 1
    34   15   47 1
    35   15   48 1
    36   16   17 1
    37   16   49 1
    38   16   50 1
    39   17   18 1
    40   17   51 1
    41   17   52 1
    42   18   19 1
    43   18   53 1
    44   18   54 1
    45   19   20 am
    46   19   55 1
    47   20   21 2
    48   20   22 1
    49   22   31 ar
    50   22   23 ar
    51   23   24 ar
    52   23   56 1
    53   24   25 ar
    54   24   57 1
    55   25   30 ar
    56   25   26 ar
    57   26   27 ar
    58   26   58 1
    59   27   28 ar
    60   27   59 1
    61   28   29 ar
    62   28   60 1
    63   29   30 ar
    64   29   61 1
    65   30   31 ar
    66   31   62 1
@<TRIPOS>MOLECULE
ZINC03917109
   62    65     0     0     0
SMALL
USER_CHARGES

@<TRIPOS>ATOM
      1 C1         -0.0173    1.4248    0.0099 C.3       1 <0>         0.0251
      2 O1          0.0021   -0.0041    0.0020 O.3       1 <0>        -0.3039
      3 C2         -1.2013   -0.6380    0.0101 C.ar      1 <0>         0.1197
      4 C3         -2.3740    0.0989    0.0195 C.ar      1 <0>        -0.2065
      5 C4         -3.5967   -0.5469    0.0283 C.ar      1 <0>        -0.0836
      6 C5         -3.6532   -1.9283    0.0271 C.ar      1 <0>        -0.1523
      7 C6         -2.4875   -2.6710    0.0173 C.ar      1 <0>        -0.0882
      8 C7         -1.2572   -2.0300    0.0032 C.ar      1 <0>         0.1390
      9 N1         -0.0754   -2.7797   -0.0127 N.pl3     1 <0>        -0.6683
     10 C8          0.5713   -3.1961    1.2410 C.3       1 <0>         0.1532
     11 C9          0.8354   -4.7041    1.1750 C.3       1 <0>         0.0416
     12 N2          1.5913   -5.0126   -0.0462 N.3       1 <0>        -0.5348
     13 C10         0.8175   -4.6811   -1.2500 C.3       1 <0>         0.0379
     14 C11         0.5494   -3.1773   -1.2834 C.3       1 <0>         0.1529
     15 C12         2.0135   -6.4196   -0.0626 C.3       1 <0>         0.0570
     16 C13         2.9994   -6.6428   -1.2111 C.3       1 <0>        -0.1132
     17 C14         3.4391   -8.1081   -1.2283 C.3       1 <0>        -0.1303
     18 C15         4.4250   -8.3314   -2.3768 C.3       1 <0>         0.1194
     19 N3          4.8460   -9.7345   -2.3932 N.am      1 <0>        -0.7276
     20 C16         5.7188  -10.1653   -3.3255 C.2       1 <0>         0.5586
     21 O2          6.1567   -9.3896   -4.1527 O.2       1 <0>        -0.5351
     22 C17         6.1435  -11.5806   -3.3420 C.ar      1 <0>        -0.1394
     23 C18         5.6291  -12.4748   -2.3860 C.ar      1 <0>        -0.0931
     24 C19         6.0037  -13.7793   -2.3806 C.ar      1 <0>        -0.1083
     25 C20         6.9183  -14.2530   -3.3393 C.ar      1 <0>        -0.0339
     26 C21         7.3209  -15.5988   -3.3538 C.ar      1 <0>        -0.1133
     27 C22         8.2070  -16.0282   -4.2939 C.ar      1 <0>        -0.1034
     28 C23         8.7244  -15.1520   -5.2462 C.ar      1 <0>        -0.1183
     29 C24         8.3580  -13.8415   -5.2638 C.ar      1 <0>        -0.0955
     30 C25         7.4441  -13.3613   -4.3084 C.ar      1 <0>        -0.0641
     31 C26         7.0406  -12.0176   -4.3023 C.ar      1 <0>        -0.0303
     32 H1          1.0053    1.8021    0.0021 H         1 <0>         0.0993
     33 H2         -0.5445    1.7859   -0.8732 H         1 <0>         0.0537
     34 H3         -0.5275    1.7763    0.9067 H         1 <0>         0.0537
     35 H4         -2.3335    1.1781    0.0204 H         1 <0>         0.1277
     36 H5         -4.5101    0.0293    0.0363 H         1 <0>         0.1245
     37 H6         -4.6104   -2.4284    0.0343 H         1 <0>         0.1238
     38 H7         -2.5344   -3.7500    0.0168 H         1 <0>         0.1249
     39 H8          1.5150   -2.6639    1.3604 H         1 <0>         0.0581
     40 H9         -0.0855   -2.9758    2.0825 H         1 <0>         0.0690
     41 H10         1.4125   -5.0108    2.0473 H         1 <0>         0.0793
     42 H11        -0.1140   -5.2393    1.1600 H         1 <0>         0.0339
     43 H12         1.3817   -4.9710   -2.1364 H         1 <0>         0.0831
     44 H13        -0.1317   -5.2166   -1.2312 H         1 <0>         0.0333
     45 H14        -0.1219   -2.9447   -2.1101 H         1 <0>         0.0686
     46 H15         1.4910   -2.6433   -1.4113 H         1 <0>         0.0577
     47 H16         2.4960   -6.6652    0.8834 H         1 <0>         0.0748
     48 H17         1.1418   -7.0588   -0.2026 H         1 <0>         0.0322
     49 H18         2.5169   -6.3971   -2.1571 H         1 <0>         0.0668
     50 H19         3.8711   -6.0035   -1.0711 H         1 <0>         0.0766
     51 H20         3.9216   -8.3538   -0.2823 H         1 <0>         0.0712
     52 H21         2.5674   -8.7474   -1.3683 H         1 <0>         0.0684
     53 H22         3.9425   -8.0857   -3.3228 H         1 <0>         0.0696
     54 H23         5.2967   -7.6921   -2.2368 H         1 <0>         0.0713
     55 H24         4.4966  -10.3534   -1.7332 H         1 <0>         0.4001
     56 H25         4.9272  -12.1188   -1.6463 H         1 <0>         0.1252
     57 H26         5.6001  -14.4539   -1.6401 H         1 <0>         0.1336
     58 H27         6.9294  -16.2899   -2.6219 H         1 <0>         0.1303
     59 H28         8.5140  -17.0636   -4.3016 H         1 <0>         0.1266
     60 H29         9.4265  -15.5182   -5.9806 H         1 <0>         0.1272
     61 H30         8.7671  -13.1735   -6.0073 H         1 <0>         0.1318
     62 H31         7.4298  -11.3288   -5.0374 H         1 <0>         0.1429
@<TRIPOS>BOND
     1    1    2 1
     2    1   32 1
     3    1   33 1
     4    1   34 1
     5    2    3 1
     6    3    8 ar
     7    3    4 ar
     8    4    5 ar
     9    4   35 1
    10    5    6 ar
    11    5   36 1
    12    6    7 ar
    13    6   37 1
    14    7    8 ar
    15    7   38 1
    16    8    9 1
    17    9   14 1
    18    9   10 1
    19   10   11 1
    20   10   39 1
    21   10   40 1
    22   11   12 1
    23   11   41 1
    24   11   42 1
    25   12   13 1
    26   12   15 1
    27   13   14 1
    28   13   43 1
    29   13   44 1
    30   14   45 1
    31   14   46 1
    32   15   16 1
    33   15   47 1
    34   15   48 1
    35   16   17 1
    36   16   49 1
    37   16   50 1
    38   17   18 1
    39   17   51 1
    40   17   52 1
    41   18   19 1
    42   18   53 1
    43   18   54 1
    44   19   20 am
    45   19   55 1
    46   20   21 2
    47   20   22 1
    48   22   31 ar
    49   22   23 ar
    50   23   24 ar
    51   23   56 1
    52   24   25 ar
    53   24   57 1
    54   25   30 ar
    55   25   26 ar
    56   26   27 ar
    57   26   58 1
    58   27   28 ar
    59   27   59 1
    60   28   29 ar
    61   28   60 1
    62   29   30 ar
    63   29   61 1
    64   30   31 ar
    65   31   62 1
@<TRIPOS>MOLECULE
ZINC02017838
   39    41     0     0     0
SMALL
USER_CHARGES

@<TRIPOS>ATOM
      1 C1         -0.6937    1.1592   -0.0446 C.3       1 <0>        -0.0565
      2 N1         -0.3969   -0.2790   -0.0054 N.4       1 <0>        -0.3850
      3 C2         -1.6538   -1.0043   -0.0501 C.3       1 <0>        -0.0076
      4 C3         -1.4199   -2.4952   -0.3132 C.3       1 <0>        -0.1241
      5 C4         -1.1505   -3.1735    1.0151 C.ar      1 <0>        -0.0918
      6 C5         -2.0820   -4.0505    1.5403 C.ar      1 <0>        -0.0811
      7 C6         -1.8332   -4.6676    2.7530 C.ar      1 <0>        -0.0563
      8 C7         -0.6533   -4.4051    3.4363 C.ar      1 <0>         0.1329
      9 C8          0.2760   -3.5241    2.9016 C.ar      1 <0>        -0.1156
     10 C9          0.0175   -2.9133    1.6891 C.ar      1 <0>        -0.0810
     11 C10         1.0293   -1.9515    1.0995 C.3       1 <0>        -0.0159
     12 H1          1.9511   -1.9857    1.6803 H         1 <0>         0.1371
     13 C11         0.4364   -0.5401    1.1546 C.3       1 <0>        -0.0043
     14 C12         1.3158   -2.3287   -0.3312 C.ar      1 <0>        -0.1097
     15 C13         1.8000   -1.3802   -1.2124 C.ar      1 <0>        -0.1733
     16 C14         2.0628   -1.7262   -2.5247 C.ar      1 <0>        -0.0962
     17 C15         1.8417   -3.0209   -2.9556 C.ar      1 <0>        -0.1047
     18 C16         1.3582   -3.9697   -2.0742 C.ar      1 <0>        -0.0974
     19 C17         1.0996   -3.6247   -0.7608 C.ar      1 <0>        -0.0998
     20 O1         -0.4084   -5.0112    4.6281 O.3       1 <0>        -0.4829
     21 Cl1        -2.9964   -5.7696    3.4209 Cl        1 <0>        -0.0327
     22 H2          0.2376    1.7205   -0.1192 H         1 <0>         0.1249
     23 H3         -1.3197    1.3775   -0.9098 H         1 <0>         0.1261
     24 H4         -1.2194    1.4467    0.8659 H         1 <0>         0.1243
     25 H5         -2.1695   -0.8858    0.9029 H         1 <0>         0.1287
     26 H6         -2.2756   -0.5939   -0.8458 H         1 <0>         0.1374
     27 H7         -2.3059   -2.9306   -0.7754 H         1 <0>         0.1178
     28 H8         -0.5608   -2.6221   -0.9718 H         1 <0>         0.1192
     29 H9         -2.9990   -4.2523    1.0065 H         1 <0>         0.1469
     30 H10         1.1951   -3.3169    3.4296 H         1 <0>         0.1482
     31 H11         1.2473    0.1878    1.1838 H         1 <0>         0.1401
     32 H12        -0.1658   -0.4399    2.0576 H         1 <0>         0.1368
     33 H13         1.9728   -0.3686   -0.8757 H         1 <0>         0.1276
     34 H14         2.4405   -0.9849   -3.2133 H         1 <0>         0.1374
     35 H15         2.0463   -3.2910   -3.9811 H         1 <0>         0.1370
     36 H16         1.1852   -4.9811   -2.4110 H         1 <0>         0.1371
     37 H17         0.7254   -4.3669   -0.0712 H         1 <0>         0.1352
     38 H18         0.0553   -5.8562    4.5517 H         1 <0>         0.4036
     39 H19         0.1305   -0.5139   -0.8329 H         1 <0>         0.4177
@<TRIPOS>BOND
     1    1    2 1
     2    1   22 1
     3    1   23 1
     4    1   24 1
     5    2   13 1
     6    2    3 1
     7    2   39 1
     8    3    4 1
     9    3   25 1
    10    3   26 1
    11    4    5 1
    12    4   27 1
    13    4   28 1
    14    5   10 ar
    15    5    6 ar
    16    6    7 ar
    17    6   29 1
    18    7    8 ar
    19    7   21 1
    20    8    9 ar
    21    8   20 1
    22    9   10 ar
    23    9   30 1
    24   10   11 1
    25   11   12 1
    26   11   13 1
    27   11   14 1
    28   13   31 1
    29   13   32 1
    30   14   19 ar
    31   14   15 ar
    32   15   16 ar
    33   15   33 1
    34   16   17 ar
    35   16   34 1
    36   17   18 ar
    37   17   35 1
    38   18   19 ar
    39   18   36 1
    40   19   37 1
    41   20   38 1
