@<TRIPOS>MOLECULE
ZINC53166256
   43    46     0     0     0
SMALL
USER_CHARGES

@<TRIPOS>ATOM
      1 C1         -0.0645    1.4412   -0.3732 C.3       1 <0>         0.0245
      2 N1         -0.0216   -0.0161   -0.1927 N.3       1 <0>        -0.5427
      3 C2          0.3881   -0.6883   -1.4329 C.3       1 <0>         0.0399
      4 C3          0.2462   -2.2042   -1.2592 C.3       1 <0>         0.1270
      5 N2          0.9912   -2.6085   -0.0572 N.pl3     1 <0>        -0.5934
      6 C4          0.7333   -1.8856    1.1973 C.3       1 <0>         0.1156
      7 C5          0.8560   -0.3822    0.9269 C.3       1 <0>         0.0395
      8 C6          1.9059   -3.6360   -0.1053 C.2       1 <0>         0.5356
      9 N3          2.1874   -4.1476   -1.2567 N.2       1 <0>        -0.6206
     10 C7          2.9530   -5.2310   -1.5577 C.ar      1 <0>         0.1701
     11 C8          2.4830   -6.1190   -2.5335 C.ar      1 <0>        -0.1161
     12 C9          3.2327   -7.2189   -2.8990 C.ar      1 <0>        -0.1046
     13 C10         4.4585   -7.4578   -2.3086 C.ar      1 <0>        -0.1308
     14 C11         4.9338   -6.5952   -1.3330 C.ar      1 <0>        -0.1099
     15 C12         4.1849   -5.4996   -0.9492 C.ar      1 <0>         0.0928
     16 N4          4.6603   -4.6750    0.0974 N.pl3     1 <0>        -0.6675
     17 C13         3.8314   -4.5378    1.1992 C.2       1 <0>         0.0941
     18 C14         2.5165   -4.0886    1.1665 C.2       1 <0>        -0.2204
     19 C15         1.8382   -4.1107    2.4492 C.2       1 <0>        -0.0854
     20 C16         2.5687   -4.5058    3.5084 C.2       1 <0>        -0.1956
     21 S1          4.1544   -4.8614    2.8004 S.3       1 <0>         0.1912
     22 C17         2.1405   -4.6249    4.9484 C.3       1 <0>         0.1641
     23 O1          1.6299   -5.9381    5.1865 O.3       1 <0>        -0.5666
     24 H1          0.9395    1.8113   -0.5807 H         1 <0>         0.0253
     25 H2         -0.7212    1.6847   -1.2084 H         1 <0>         0.0709
     26 H3         -0.4436    1.9089    0.5355 H         1 <0>         0.0707
     27 H4         -0.2467   -0.3553   -2.2540 H         1 <0>         0.0875
     28 H5          1.4271   -0.4432   -1.6533 H         1 <0>         0.0376
     29 H6         -0.8063   -2.4623   -1.1417 H         1 <0>         0.0713
     30 H7          0.6556   -2.7127   -2.1321 H         1 <0>         0.1047
     31 H8         -0.2724   -2.1131    1.5509 H         1 <0>         0.0773
     32 H9          1.4647   -2.1834    1.9486 H         1 <0>         0.0976
     33 H10         1.8885   -0.1414    0.6736 H         1 <0>         0.0377
     34 H11         0.5606    0.1728    1.8173 H         1 <0>         0.0886
     35 H12         1.5267   -5.9420   -3.0033 H         1 <0>         0.1272
     36 H13         2.8583   -7.8974   -3.6513 H         1 <0>         0.1261
     37 H14         5.0449   -8.3146   -2.6060 H         1 <0>         0.1266
     38 H15         5.8924   -6.7804   -0.8713 H         1 <0>         0.1236
     39 H16         5.5203   -4.2292    0.0463 H         1 <0>         0.4183
     40 H17         0.8015   -3.8247    2.5488 H         1 <0>         0.1460
     41 H18         2.9969   -4.4447    5.5982 H         1 <0>         0.0639
     42 H19         1.3639   -3.8895    5.1585 H         1 <0>         0.0718
     43 H20         1.3347   -6.0866    6.0953 H         1 <0>         0.3866
@<TRIPOS>BOND
     1    1    2 1
     2    1   24 1
     3    1   25 1
     4    1   26 1
     5    2    7 1
     6    2    3 1
     7    3    4 1
     8    3   27 1
     9    3   28 1
    10    4    5 1
    11    4   29 1
    12    4   30 1
    13    5    6 1
    14    5    8 1
    15    6    7 1
    16    6   31 1
    17    6   32 1
    18    7   33 1
    19    7   34 1
    20    8   18 1
    21    8    9 2
    22    9   10 1
    23   10   15 ar
    24   10   11 ar
    25   11   12 ar
    26   11   35 1
    27   12   13 ar
    28   12   36 1
    29   13   14 ar
    30   13   37 1
    31   14   15 ar
    32   14   38 1
    33   15   16 1
    34   16   17 1
    35   16   39 1
    36   17   21 1
    37   17   18 2
    38   18   19 1
    39   19   20 2
    40   19   40 1
    41   20   21 1
    42   20   22 1
    43   22   23 1
    44   22   41 1
    45   22   42 1
    46   23   43 1
@<TRIPOS>MOLECULE
ZINC53166256
   44    47     0     0     0
SMALL
USER_CHARGES

@<TRIPOS>ATOM
      1 C1         -0.0503    1.4404   -0.3738 C.3       1 <0>        -0.0468
      2 N1         -0.0137   -0.0159   -0.1846 N.4       1 <0>        -0.3851
      3 C2          0.4926   -0.6538   -1.4064 C.3       1 <0>        -0.0215
      4 C3          0.4236   -2.1768   -1.2526 C.3       1 <0>         0.1009
      5 N2          1.1441   -2.5548   -0.0269 N.pl3     1 <0>        -0.6150
      6 C4          0.8123   -1.8460    1.2187 C.3       1 <0>         0.0891
      7 C5          0.8630   -0.3387    0.9482 C.3       1 <0>        -0.0221
      8 C6          2.1011   -3.5439   -0.0451 C.2       1 <0>         0.5271
      9 N3          2.4417   -4.0411   -1.1867 N.2       1 <0>        -0.5934
     10 C7          3.2607   -5.0916   -1.4627 C.ar      1 <0>         0.1438
     11 C8          2.8603   -5.9960   -2.4544 C.ar      1 <0>        -0.1034
     12 C9          3.6662   -7.0636   -2.7954 C.ar      1 <0>        -0.1053
     13 C10         4.8803   -7.2535   -2.1643 C.ar      1 <0>        -0.1121
     14 C11         5.2869   -6.3742   -1.1727 C.ar      1 <0>        -0.1118
     15 C12         4.4814   -5.3110   -0.8134 C.ar      1 <0>         0.1053
     16 N4          4.8874   -4.4699    0.2491 N.pl3     1 <0>        -0.6685
     17 C13         4.0171   -4.3690    1.3226 C.2       1 <0>         0.0970
     18 C14         2.6868   -3.9739    1.2462 C.2       1 <0>        -0.2330
     19 C15         1.9674   -4.0264    2.5054 C.2       1 <0>        -0.1010
     20 C16         2.6776   -4.3936    3.5882 C.2       1 <0>        -0.1858
     21 S1          4.2994   -4.6826    2.9336 S.3       1 <0>         0.2189
     22 C17         2.2067   -4.5331    5.0129 C.3       1 <0>         0.1600
     23 O1          1.7425   -5.8666    5.2328 O.3       1 <0>        -0.5661
     24 H1          0.9563    1.8058   -0.5769 H         1 <0>         0.1210
     25 H2         -0.7009    1.6813   -1.2145 H         1 <0>         0.1255
     26 H3         -0.4336    1.9146    0.5297 H         1 <0>         0.1251
     27 H4         -0.1168   -0.3464   -2.2563 H         1 <0>         0.1423
     28 H5          1.5267   -0.3518   -1.5724 H         1 <0>         0.1313
     29 H6         -0.6176   -2.4904   -1.1769 H         1 <0>         0.0891
     30 H7          0.8911   -2.6535   -2.1141 H         1 <0>         0.1420
     31 H8         -0.1896   -2.1263    1.5440 H         1 <0>         0.0942
     32 H9          1.5369   -2.1040    1.9911 H         1 <0>         0.1380
     33 H10         1.8859   -0.0462    0.7110 H         1 <0>         0.1319
     34 H11         0.5265    0.2010    1.8334 H         1 <0>         0.1434
     35 H12         1.9139   -5.8573   -2.9558 H         1 <0>         0.1292
     36 H13         3.3452   -7.7553   -3.5603 H         1 <0>         0.1323
     37 H14         5.5108   -8.0849   -2.4425 H         1 <0>         0.1334
     38 H15         6.2363   -6.5211   -0.6793 H         1 <0>         0.1295
     39 H16         5.7296   -3.9892    0.2272 H         1 <0>         0.4219
     40 H17         0.9172   -3.7832    2.5704 H         1 <0>         0.1434
     41 H18         3.0327   -4.3194    5.6912 H         1 <0>         0.0672
     42 H19         1.3940   -3.8304    5.1974 H         1 <0>         0.0714
     43 H20         1.4234   -6.0289    6.1311 H         1 <0>         0.3916
     44 H21        -0.9456   -0.3526    0.0063 H         1 <0>         0.4248
@<TRIPOS>BOND
     1    1    2 1
     2    1   24 1
     3    1   25 1
     4    1   26 1
     5    2    7 1
     6    2    3 1
     7    2   44 1
     8    3    4 1
     9    3   27 1
    10    3   28 1
    11    4    5 1
    12    4   29 1
    13    4   30 1
    14    5    6 1
    15    5    8 1
    16    6    7 1
    17    6   31 1
    18    6   32 1
    19    7   33 1
    20    7   34 1
    21    8   18 1
    22    8    9 2
    23    9   10 1
    24   10   15 ar
    25   10   11 ar
    26   11   12 ar
    27   11   35 1
    28   12   13 ar
    29   12   36 1
    30   13   14 ar
    31   13   37 1
    32   14   15 ar
    33   14   38 1
    34   15   16 1
    35   16   17 1
    36   16   39 1
    37   17   21 1
    38   17   18 2
    39   18   19 1
    40   19   20 2
    41   19   40 1
    42   20   21 1
    43   20   22 1
    44   22   23 1
    45   22   41 1
    46   22   42 1
    47   23   43 1
@<TRIPOS>MOLECULE
ZINC52956332
   66    69     0     0     0
SMALL
USER_CHARGES

@<TRIPOS>ATOM
      1 C1         -0.2570   -0.0396   -0.2249 C.3       1 <0>        -0.1481
      2 C2         -0.4777   -1.5512   -0.1410 C.3       1 <0>         0.0719
      3 C3          0.2510   -2.1058    1.0847 C.3       1 <0>        -0.1743
      4 O1         -1.8760   -1.8229   -0.0272 O.3       1 <0>        -0.2968
      5 C4         -2.3308   -2.9699   -0.5993 C.ar      1 <0>         0.1238
      6 C5         -1.4369   -3.8709   -1.1538 C.ar      1 <0>        -0.2108
      7 C6         -1.9007   -5.0365   -1.7356 C.ar      1 <0>        -0.0833
      8 C7         -3.2562   -5.3067   -1.7656 C.ar      1 <0>        -0.1528
      9 C8         -4.1549   -4.4130   -1.2140 C.ar      1 <0>        -0.0865
     10 C9         -3.6965   -3.2442   -0.6239 C.ar      1 <0>         0.1375
     11 N1         -4.6040   -2.3403   -0.0596 N.pl3     1 <0>        -0.6674
     12 C10        -5.1972   -1.2631   -0.8665 C.3       1 <0>         0.1547
     13 C11        -5.0050    0.0635   -0.1240 C.3       1 <0>         0.0426
     14 N2         -5.5408   -0.0593    1.2382 N.3       1 <0>        -0.5278
     15 C12        -4.8056   -1.0693    2.0110 C.3       1 <0>         0.0391
     16 C13        -4.9943   -2.4462    1.3545 C.3       1 <0>         0.1554
     17 C14        -5.5326    1.2387    1.9262 C.3       1 <0>         0.0947
     18 C15        -6.3064    1.1292    3.2147 C.ar      1 <0>        -0.0813
     19 C16        -7.6662    1.3854    3.2273 C.ar      1 <0>        -0.0744
     20 C17        -8.3840    1.2867    4.4058 C.ar      1 <0>        -0.1211
     21 C18        -7.7471    0.9321    5.5774 C.ar      1 <0>        -0.0675
     22 C19        -6.3760    0.6723    5.5716 C.ar      1 <0>        -0.1273
     23 C20        -5.6587    0.7682    4.3778 C.ar      1 <0>        -0.0879
     24 C21        -5.6870    0.2923    6.8233 C.2       1 <0>         0.5617
     25 O2         -6.1780   -0.5424    7.5580 O.2       1 <0>        -0.5326
     26 N3         -4.5146    0.8713    7.1497 N.am      1 <0>        -0.6059
     27 C22        -3.8640    1.8148    6.2303 C.3       1 <0>         0.0916
     28 C23        -3.5771    3.1180    6.9827 C.3       1 <0>        -0.1360
     29 C24        -2.7654    2.8071    8.2423 C.3       1 <0>        -0.1214
     30 C25        -3.5758    1.8882    9.1594 C.3       1 <0>        -0.1356
     31 C26        -3.8657    0.5757    8.4343 C.3       1 <0>         0.1105
     32 H1          0.8096    0.1676   -0.3117 H         1 <0>         0.0754
     33 H2         -0.7761    0.3555   -1.0981 H         1 <0>         0.0627
     34 H3         -0.6472    0.4351    0.6754 H         1 <0>         0.0636
     35 H4         -0.0875   -2.0259   -1.0413 H         1 <0>         0.0742
     36 H5         -0.1393   -1.6311    1.9850 H         1 <0>         0.0650
     37 H6          0.0937   -3.1828    1.1445 H         1 <0>         0.0608
     38 H7          1.3176   -1.8986    0.9979 H         1 <0>         0.0710
     39 H8         -0.3773   -3.6629   -1.1321 H         1 <0>         0.1279
     40 H9         -1.2021   -5.7375   -2.1681 H         1 <0>         0.1235
     41 H10        -3.6139   -6.2182   -2.2214 H         1 <0>         0.1239
     42 H11        -5.2133   -4.6264   -1.2391 H         1 <0>         0.1282
     43 H12        -4.7006   -1.2157   -1.8356 H         1 <0>         0.0685
     44 H13        -6.2613   -1.4538   -1.0061 H         1 <0>         0.0563
     45 H14        -3.9427    0.3033   -0.0768 H         1 <0>         0.0406
     46 H15        -5.5341    0.8563   -0.6529 H         1 <0>         0.0772
     47 H16        -3.7461   -0.8138    2.0285 H         1 <0>         0.0394
     48 H17        -5.1901   -1.0982    3.0305 H         1 <0>         0.0783
     49 H18        -6.0393   -2.7483    1.4243 H         1 <0>         0.0563
     50 H19        -4.3636   -3.1812    1.8544 H         1 <0>         0.0674
     51 H20        -4.5044    1.5283    2.1433 H         1 <0>         0.0422
     52 H21        -5.9950    1.9913    1.2875 H         1 <0>         0.0858
     53 H22        -8.1693    1.6640    2.3132 H         1 <0>         0.1285
     54 H23        -9.4450    1.4880    4.4089 H         1 <0>         0.1309
     55 H24        -8.3085    0.8561    6.4969 H         1 <0>         0.1292
     56 H25        -4.5982    0.5642    4.3658 H         1 <0>         0.1264
     57 H26        -2.9283    1.3874    5.8698 H         1 <0>         0.0700
     58 H27        -4.5244    2.0175    5.3871 H         1 <0>         0.0990
     59 H28        -3.0089    3.7912    6.3407 H         1 <0>         0.0765
     60 H29        -4.5182    3.5906    7.2637 H         1 <0>         0.0681
     61 H30        -1.8355    2.3122    7.9621 H         1 <0>         0.0648
     62 H31        -2.5388    3.7354    8.7666 H         1 <0>         0.0672
     63 H32        -3.0066    1.6860   10.0668 H         1 <0>         0.0777
     64 H33        -4.5169    2.3723    9.4200 H         1 <0>         0.0669
     65 H34        -4.5272   -0.0389    9.0449 H         1 <0>         0.0936
     66 H35        -2.9302    0.0450    8.2576 H         1 <0>         0.0683
@<TRIPOS>BOND
     1    1    2 1
     2    1   32 1
     3    1   33 1
     4    1   34 1
     5    2    3 1
     6    2    4 1
     7    2   35 1
     8    3   36 1
     9    3   37 1
    10    3   38 1
    11    4    5 1
    12    5   10 ar
    13    5    6 ar
    14    6    7 ar
    15    6   39 1
    16    7    8 ar
    17    7   40 1
    18    8    9 ar
    19    8   41 1
    20    9   10 ar
    21    9   42 1
    22   10   11 1
    23   11   16 1
    24   11   12 1
    25   12   13 1
    26   12   43 1
    27   12   44 1
    28   13   14 1
    29   13   45 1
    30   13   46 1
    31   14   15 1
    32   14   17 1
    33   15   16 1
    34   15   47 1
    35   15   48 1
    36   16   49 1
    37   16   50 1
    38   17   18 1
    39   17   51 1
    40   17   52 1
    41   18   23 ar
    42   18   19 ar
    43   19   20 ar
    44   19   53 1
    45   20   21 ar
    46   20   54 1
    47   21   22 ar
    48   21   55 1
    49   22   23 ar
    50   22   24 1
    51   23   56 1
    52   24   25 2
    53   24   26 am
    54   26   31 1
    55   26   27 1
    56   27   28 1
    57   27   57 1
    58   27   58 1
    59   28   29 1
    60   28   59 1
    61   28   60 1
    62   29   30 1
    63   29   61 1
    64   29   62 1
    65   30   31 1
    66   30   63 1
    67   30   64 1
    68   31   65 1
    69   31   66 1
@<TRIPOS>MOLECULE
ZINC22064449
   39    41     0     0     0
SMALL
USER_CHARGES
(4aS,10bS)-4-propyl-2,3,4a,5,6,10b-hexahydronaphtho[8,7-b][1,4]oxazin-9-ol
@<TRIPOS>ATOM
      1 C1          0.4806   -0.9191   -3.7859 C.3       1 <0>        -0.1538
      2 C2         -0.1995   -0.4247   -2.5077 C.3       1 <0>        -0.1215
      3 C3         -0.0679    1.0969   -2.4158 C.3       1 <0>         0.0481
      4 N1         -0.7209    1.5717   -1.1886 N.3       1 <0>        -0.5344
      5 C4         -0.0127    1.0858    0.0080 C.3       1 <0>         0.0135
      6 C5         -0.7241    1.5768    1.2696 C.3       1 <0>         0.0605
      7 O1         -0.8460    3.0046    1.2401 O.3       1 <0>        -0.3766
      8 C6         -1.5498    3.4706    0.0912 C.3       1 <0>         0.1433
      9 H1         -2.5495    3.0167    0.1578 H         1 <0>         0.0796
     10 C7         -0.7936    3.0364   -1.1647 C.3       1 <0>         0.0601
     11 H2          0.2477    3.3907   -1.1758 H         1 <0>         0.0542
     12 C8         -1.5413    3.5800   -2.3815 C.3       1 <0>        -0.1130
     13 C9         -1.3389    5.1149   -2.3932 C.3       1 <0>        -0.0754
     14 C10        -1.6234    5.7165   -1.0422 C.ar      1 <0>        -0.1116
     15 C11        -1.7058    4.9629    0.1113 C.ar      1 <0>        -0.0370
     16 C12        -1.9405    5.5851    1.3276 C.ar      1 <0>        -0.1383
     17 C13        -2.1030    6.9588    1.3949 C.ar      1 <0>         0.1504
     18 C14        -2.0305    7.7148    0.2340 C.ar      1 <0>        -0.2060
     19 C15        -1.7925    7.0939   -0.9733 C.ar      1 <0>        -0.0827
     20 O2         -2.3325    7.5624    2.5907 O.3       1 <0>        -0.5097
     21 H3          0.3860   -2.0130   -3.8520 H         1 <0>         0.0582
     22 H4          1.5454   -0.6437   -3.7647 H         1 <0>         0.0530
     23 H5         -0.0006   -0.4560   -4.6599 H         1 <0>         0.0558
     24 H6         -1.2643   -0.7001   -2.5289 H         1 <0>         0.0718
     25 H7          0.2817   -0.8878   -1.6336 H         1 <0>         0.0614
     26 H8          0.9969    1.3722   -2.3946 H         1 <0>         0.0346
     27 H9         -0.5490    1.5600   -3.2899 H         1 <0>         0.0831
     28 H10         0.0013   -0.0141    0.0044 H         1 <0>         0.0924
     29 H11         1.0196    1.4657    0.0027 H         1 <0>         0.0434
     30 H12        -1.7275    1.1292    1.3224 H         1 <0>         0.0621
     31 H13        -0.1438    1.2816    2.1562 H         1 <0>         0.1026
     32 H14        -1.1304    3.1280   -3.2963 H         1 <0>         0.0788
     33 H15        -2.6093    3.3307   -2.2971 H         1 <0>         0.0782
     34 H16        -0.2985    5.3455   -2.6660 H         1 <0>         0.0761
     35 H17        -2.0199    5.5690   -3.1281 H         1 <0>         0.0803
     36 H18        -1.9971    4.9940    2.2297 H         1 <0>         0.1326
     37 H19        -2.1605    8.7861    0.2761 H         1 <0>         0.1275
     38 H20        -1.7372    7.6845   -1.8758 H         1 <0>         0.1253
     39 H21        -2.4611    8.6537    2.6402 H         1 <0>         0.4330
@<TRIPOS>BOND
     1    1    2 1
     2    1   21 1
     3    1   22 1
     4    1   23 1
     5    2    3 1
     6    2   24 1
     7    2   25 1
     8    3    4 1
     9    3   26 1
    10    3   27 1
    11    4   10 1
    12    4    5 1
    13    5    6 1
    14    5   28 1
    15    5   29 1
    16    6    7 1
    17    6   30 1
    18    6   31 1
    19    7    8 1
    20    8    9 1
    21    8   15 1
    22    8   10 1
    23   10   11 1
    24   10   12 1
    25   12   13 1
    26   12   32 1
    27   12   33 1
    28   13   14 1
    29   13   34 1
    30   13   35 1
    31   14   19 ar
    32   14   15 ar
    33   15   16 ar
    34   16   17 ar
    35   16   36 1
    36   17   18 ar
    37   17   20 1
    38   18   19 ar
    39   18   37 1
    40   19   38 1
    41   20   39 1
@<TRIPOS>MOLECULE
ZINC26824949
   39    41     0     0     0
SMALL
USER_CHARGES
(4aS,10bR)-4-propyl-2,3,4a,5,6,10b-hexahydronaphtho[8,7-b][1,4]oxazin-9-ol
@<TRIPOS>ATOM
      1 C1         -0.7288    1.5792    1.2668 C.3       1 <0>        -0.1536
      2 C2         -0.0127    1.0858    0.0080 C.3       1 <0>        -0.1223
      3 C3         -0.7527    1.5927   -1.2315 C.3       1 <0>         0.0529
      4 N1         -0.0651    1.1189   -2.4401 N.3       1 <0>        -0.5336
      5 C4          1.2725    1.7177   -2.5542 C.3       1 <0>         0.0091
      6 C5          1.9679    1.1463   -3.7935 C.3       1 <0>         0.0616
      7 O1          1.1674    1.4210   -4.9450 O.3       1 <0>        -0.3749
      8 C6         -0.1523    0.8713   -4.8854 C.3       1 <0>         0.1453
      9 H1         -0.0409   -0.2224   -4.8491 H         1 <0>         0.0767
     10 C7         -0.8677    1.3807   -3.6375 C.3       1 <0>         0.0581
     11 H2         -1.8124    0.8382   -3.4852 H         1 <0>         0.0945
     12 C8         -1.1111    2.8838   -3.7925 C.3       1 <0>        -0.1480
     13 C9         -2.1729    3.0905   -4.8712 C.3       1 <0>        -0.0716
     14 C10        -1.8268    2.3151   -6.1156 C.ar      1 <0>        -0.1027
     15 C11        -0.9071    1.2899   -6.1227 C.ar      1 <0>        -0.0354
     16 C12        -0.6419    0.6082   -7.3015 C.ar      1 <0>        -0.1392
     17 C13        -1.2907    0.9554   -8.4747 C.ar      1 <0>         0.1496
     18 C14        -2.2121    1.9924   -8.4676 C.ar      1 <0>        -0.2020
     19 C15        -2.4761    2.6649   -7.2934 C.ar      1 <0>        -0.0844
     20 O2         -1.0259    0.2845   -9.6265 O.3       1 <0>        -0.5101
     21 H3         -0.1968    1.2148    2.1579 H         1 <0>         0.0581
     22 H4         -1.7608    1.1985    1.2746 H         1 <0>         0.0557
     23 H5         -0.7437    2.6791    1.2729 H         1 <0>         0.0530
     24 H6          1.0193    1.4665    0.0002 H         1 <0>         0.0619
     25 H7          0.0022   -0.0141    0.0019 H         1 <0>         0.0713
     26 H8         -1.7847    1.2120   -1.2237 H         1 <0>         0.0766
     27 H9         -0.7676    2.6926   -1.2254 H         1 <0>         0.0392
     28 H10         1.1785    2.8094   -2.6508 H         1 <0>         0.0466
     29 H11         1.8593    1.4784   -1.6551 H         1 <0>         0.0895
     30 H12         2.9561    1.6155   -3.9085 H         1 <0>         0.1012
     31 H13         2.0895    0.0592   -3.6773 H         1 <0>         0.0611
     32 H14        -1.4603    3.2993   -2.8357 H         1 <0>         0.0714
     33 H15        -0.1738    3.3786   -4.0868 H         1 <0>         0.0757
     34 H16        -3.1479    2.7449   -4.4970 H         1 <0>         0.0767
     35 H17        -2.2352    4.1591   -5.1244 H         1 <0>         0.0764
     36 H18         0.0757   -0.1989   -7.3043 H         1 <0>         0.1286
     37 H19        -2.7204    2.2721   -9.3785 H         1 <0>         0.1280
     38 H20        -3.1944    3.4713   -7.2889 H         1 <0>         0.1252
     39 H21        -1.5431    0.5630  -10.5565 H         1 <0>         0.4336
@<TRIPOS>BOND
     1    1    2 1
     2    1   21 1
     3    1   22 1
     4    1   23 1
     5    2    3 1
     6    2   24 1
     7    2   25 1
     8    3    4 1
     9    3   26 1
    10    3   27 1
    11    4   10 1
    12    4    5 1
    13    5    6 1
    14    5   28 1
    15    5   29 1
    16    6    7 1
    17    6   30 1
    18    6   31 1
    19    7    8 1
    20    8    9 1
    21    8   15 1
    22    8   10 1
    23   10   11 1
    24   10   12 1
    25   12   13 1
    26   12   32 1
    27   12   33 1
    28   13   14 1
    29   13   34 1
    30   13   35 1
    31   14   19 ar
    32   14   15 ar
    33   15   16 ar
    34   16   17 ar
    35   16   36 1
    36   17   18 ar
    37   17   20 1
    38   18   19 ar
    39   18   37 1
    40   19   38 1
    41   20   39 1
@<TRIPOS>MOLECULE
ZINC26817456
   44    47     0     0     0
SMALL
USER_CHARGES

@<TRIPOS>ATOM
      1 C1         -0.0167    1.3793    0.0096 C.ar      1 <0>        -0.1104
      2 C2          1.1684    2.0932    0.0021 C.ar      1 <0>        -0.1164
      3 C3          2.3774    1.4286   -0.0129 C.ar      1 <0>        -0.0775
      4 C4          2.4032    0.0335   -0.0206 C.ar      1 <0>        -0.0153
      5 C5          1.2044   -0.6805   -0.0130 C.ar      1 <0>        -0.1128
      6 C6          0.0021   -0.0041    0.0020 C.ar      1 <0>        -0.1159
      7 C7          3.6958   -0.6853   -0.0373 C.2       1 <0>         0.2504
      8 N1          3.8562   -2.0400   -0.0515 N.pl3     1 <0>        -0.5627
      9 H1          3.1497   -2.7046   -0.0529 H         1 <0>         0.4158
     10 C8          5.2032   -2.2835   -0.0640 C.2       1 <0>        -0.0107
     11 C9          5.8213   -1.0849   -0.0571 C.2       1 <0>         0.0050
     12 N2          4.8862   -0.1280   -0.0465 N.2       1 <0>        -0.4710
     13 C10         5.8693   -3.6351   -0.0813 C.3       1 <0>         0.1310
     14 N3          5.9669   -4.1152   -1.4662 N.3       1 <0>        -0.5324
     15 C11         4.6346   -4.3670   -2.0312 C.3       1 <0>         0.0392
     16 C12         4.7688   -4.6895   -3.5233 C.3       1 <0>         0.1346
     17 N4          5.7287   -5.7931   -3.6782 N.pl3     1 <0>        -0.5853
     18 C13         7.0397   -5.6723   -3.0225 C.3       1 <0>         0.1321
     19 C14         6.8160   -5.3110   -1.5501 C.3       1 <0>         0.0417
     20 C15         5.4071   -6.9153   -4.4218 C.ar      1 <0>         0.5656
     21 N5          4.2188   -6.9870   -5.0033 N.ar      1 <0>        -0.5736
     22 C16         3.8801   -8.0451   -5.7211 C.ar      1 <0>         0.1938
     23 C17         4.7853   -9.0854   -5.8607 C.ar      1 <0>        -0.2954
     24 C18         6.0194   -8.9777   -5.2391 C.ar      1 <0>         0.1941
     25 N6          6.2969   -7.8899   -4.5396 N.ar      1 <0>        -0.5721
     26 H2         -0.9604    1.9041    0.0260 H         1 <0>         0.1265
     27 H3          1.1470    3.1729    0.0078 H         1 <0>         0.1301
     28 H4          3.3018    1.9870   -0.0191 H         1 <0>         0.1377
     29 H5          1.2178   -1.7604   -0.0193 H         1 <0>         0.1155
     30 H6         -0.9265   -0.5556    0.0079 H         1 <0>         0.1274
     31 H7          6.8893   -0.9246   -0.0630 H         1 <0>         0.1742
     32 H8          6.8686   -3.5532    0.3462 H         1 <0>         0.1062
     33 H9          5.2793   -4.3385    0.5064 H         1 <0>         0.0435
     34 H10         4.1747   -5.2107   -1.5167 H         1 <0>         0.0378
     35 H11         4.0126   -3.4808   -1.9052 H         1 <0>         0.0817
     36 H12         3.7994   -4.9888   -3.9219 H         1 <0>         0.1014
     37 H13         5.1318   -3.8109   -4.0566 H         1 <0>         0.0742
     38 H14         7.5717   -6.6212   -3.0899 H         1 <0>         0.1038
     39 H15         7.6209   -4.8881   -3.5076 H         1 <0>         0.0755
     40 H16         7.7762   -5.1094   -1.0752 H         1 <0>         0.0946
     41 H17         6.3258   -6.1416   -1.0423 H         1 <0>         0.0399
     42 H18         2.9098   -8.0980   -6.1925 H         1 <0>         0.1668
     43 H19         4.5343   -9.9611   -6.4409 H         1 <0>         0.1443
     44 H20         6.7472   -9.7708   -5.3279 H         1 <0>         0.1674
@<TRIPOS>BOND
     1    1    6 ar
     2    1    2 ar
     3    1   26 1
     4    2    3 ar
     5    2   27 1
     6    3    4 ar
     7    3   28 1
     8    4    5 ar
     9    4    7 1
    10    5    6 ar
    11    5   29 1
    12    6   30 1
    13    7   12 2
    14    7    8 1
    15    8    9 1
    16    8   10 1
    17   10   11 2
    18   10   13 1
    19   11   12 1
    20   11   31 1
    21   13   14 1
    22   13   32 1
    23   13   33 1
    24   14   19 1
    25   14   15 1
    26   15   16 1
    27   15   34 1
    28   15   35 1
    29   16   17 1
    30   16   36 1
    31   16   37 1
    32   17   18 1
    33   17   20 1
    34   18   19 1
    35   18   38 1
    36   18   39 1
    37   19   40 1
    38   19   41 1
    39   20   25 ar
    40   20   21 ar
    41   21   22 ar
    42   22   23 ar
    43   22   42 1
    44   23   24 ar
    45   23   43 1
    46   24   25 ar
    47   24   44 1
@<TRIPOS>MOLECULE
ZINC26817456
   44    47     0     0     0
SMALL
USER_CHARGES
2-[4-[(2-phenyl-1H-imidazol-4-yl)methyl]piperazin-1-yl]pyrimidine
@<TRIPOS>ATOM
      1 C1         -4.3763    8.2024    1.5859 C.ar      1 <0>        -0.1117
      2 C2         -4.6249    6.8506    1.7438 C.ar      1 <0>        -0.1170
      3 C3         -3.8082    5.9202    1.1346 C.ar      1 <0>        -0.0786
      4 C4         -2.7300    6.3453    0.3576 C.ar      1 <0>        -0.0130
      5 C5         -2.4816    7.7101    0.2066 C.ar      1 <0>        -0.1116
      6 C6         -3.3089    8.6304    0.8168 C.ar      1 <0>        -0.1173
      7 C7         -1.8505    5.3534   -0.2984 C.2       1 <0>         0.2588
      8 N1         -0.7660    5.6379   -1.0756 N.pl3     1 <0>        -0.5674
      9 C8         -0.2359    4.4413   -1.4765 C.2       1 <0>        -0.0459
     10 C9         -1.0054    3.4702   -0.9440 C.2       1 <0>         0.0079
     11 N2         -1.9803    4.0470   -0.2322 N.2       1 <0>        -0.4559
     12 C10        -0.8000    1.9874   -1.1184 C.3       1 <0>         0.1374
     13 N3         -0.0179    1.4653    0.0101 N.3       1 <0>        -0.5327
     14 C11         1.3479    2.0078   -0.0000 C.3       1 <0>         0.0554
     15 C12         2.1033    1.5037    1.2320 C.3       1 <0>         0.0705
     16 N4          2.1232    0.0343    1.2239 N.pl3     1 <0>        -0.4613
     17 C13         0.7575   -0.5081    1.2340 C.3       1 <0>         0.0716
     18 C14         0.0021   -0.0041    0.0020 C.3       1 <0>         0.0540
     19 C15         2.8602   -0.4576    2.2871 C.ar      1 <0>         0.4956
     20 N5          2.2881   -1.2982    3.1366 N.ar      1 <0>        -0.5499
     21 C16         2.9660   -1.7911    4.1600 C.ar      1 <0>         0.1902
     22 C17         4.2856   -1.4091    4.3438 C.ar      1 <0>        -0.2548
     23 C18         4.8512   -0.5238    3.4396 C.ar      1 <0>         0.1889
     24 N6          4.1193   -0.0725    2.4344 N.ar      1 <0>        -0.5309
     25 H1         -5.0185    8.9267    2.0648 H         1 <0>         0.1258
     26 H2         -5.4597    6.5229    2.3455 H         1 <0>         0.1292
     27 H3         -4.0033    4.8653    1.2586 H         1 <0>         0.1370
     28 H4         -1.6460    8.0453   -0.3898 H         1 <0>         0.1174
     29 H5         -3.1202    9.6870    0.6974 H         1 <0>         0.1269
     30 H6          0.5491    4.2006   -2.0474 H         1 <0>         0.1662
     31 H7         -1.7771    1.4833   -1.1517 H         1 <0>         0.0919
     32 H8         -0.2587    1.8001   -2.0575 H         1 <0>         0.0504
     33 H9          1.8675    1.6760   -0.9110 H         1 <0>         0.0472
     34 H10         1.3061    3.1068    0.0186 H         1 <0>         0.0875
     35 H11         3.1347    1.8855    1.2113 H         1 <0>         0.0984
     36 H12         1.5989    1.8595    2.1424 H         1 <0>         0.0532
     37 H13         0.7993   -1.6071    1.2154 H         1 <0>         0.0941
     38 H14         0.2379   -0.1763    2.1450 H         1 <0>         0.0649
     39 H15        -1.0297   -0.3849    0.0221 H         1 <0>         0.0916
     40 H16         0.5062   -0.3589   -0.9090 H         1 <0>         0.0459
     41 H17         2.5244   -2.4277    4.7922 H         1 <0>         0.1530
     42 H18         4.8281   -1.7580    5.1080 H         1 <0>         0.1355
     43 H19         5.8017   -0.2340    3.5515 H         1 <0>         0.1544
     44 H20        -0.2999    6.5811   -1.3966 H         1 <0>         0.4476
@<TRIPOS>BOND
     1    1    6 ar
     2    1    2 ar
     3    1   25 1
     4    2    3 ar
     5    2   26 1
     6    3    4 ar
     7    3   27 1
     8    4    5 ar
     9    4    7 1
    10    5    6 ar
    11    5   28 1
    12    6   29 1
    13    7   11 2
    14    7    8 1
    15    8    9 1
    16    8   44 1
    17    9   10 2
    18    9   30 1
    19   10   11 1
    20   10   12 1
    21   12   13 1
    22   12   31 1
    23   12   32 1
    24   13   18 1
    25   13   14 1
    26   14   15 1
    27   14   33 1
    28   14   34 1
    29   15   16 1
    30   15   35 1
    31   15   36 1
    32   16   17 1
    33   16   19 1
    34   17   18 1
    35   17   37 1
    36   17   38 1
    37   18   39 1
    38   18   40 1
    39   19   24 ar
    40   19   20 ar
    41   20   21 ar
    42   21   22 ar
    43   21   41 1
    44   22   23 ar
    45   22   42 1
    46   23   24 ar
    47   23   43 1
@<TRIPOS>MOLECULE
ZINC26817456
   46    49     0     0     0
SMALL
USER_CHARGES
2-[4-[(2-phenyl-1H-imidazol-5-yl)methyl]piperazin-1-yl]pyrimidine
@<TRIPOS>ATOM
      1 C1          6.3079    0.9451   -0.0527 C.ar      1 <0>        -0.0491
      2 C2          5.5659    2.1127   -0.0398 C.ar      1 <0>        -0.1030
      3 C3          4.1874    2.0574   -0.0269 C.ar      1 <0>        -0.0681
      4 C4          3.5418    0.8204   -0.0274 C.ar      1 <0>        -0.1154
      5 C5          4.2960   -0.3535   -0.0351 C.ar      1 <0>        -0.0683
      6 C6          5.6739   -0.2845   -0.0533 C.ar      1 <0>        -0.1053
      7 C7          2.0642    0.7537   -0.0136 C.cat     1 <0>         0.4157
      8 N1          1.3161   -0.3871   -0.0126 N.pl3     1 <0>        -0.5357
      9 C8          0.0021   -0.0041    0.0020 C.2       1 <0>        -0.0234
     10 C9         -0.0162    1.3444    0.0096 C.2       1 <0>         0.0958
     11 N2          1.2475    1.7836   -0.0002 N.pl3     1 <0>        -0.4968
     12 C10        -1.1972   -0.9166    0.0093 C.3       1 <0>         0.0731
     13 N3         -1.5275   -1.3022   -1.3691 N.4       1 <0>        -0.4086
     14 C11        -1.9808   -0.1405   -2.1468 C.3       1 <0>        -0.0056
     15 C12        -2.2381   -0.5676   -3.5938 C.3       1 <0>         0.0369
     16 N4         -3.2456   -1.6371   -3.6144 N.pl3     1 <0>        -0.4606
     17 C13        -2.7924   -2.7988   -2.8368 C.3       1 <0>         0.0392
     18 C14        -2.5351   -2.3718   -1.3898 C.3       1 <0>        -0.0023
     19 C15        -3.5568   -2.0005   -4.9132 C.ar      1 <0>         0.4701
     20 N5         -3.4148   -3.2649   -5.2826 N.ar      1 <0>        -0.5493
     21 C16        -3.7087   -3.6463   -6.5147 C.ar      1 <0>         0.1969
     22 C17        -4.1587   -2.7032   -7.4253 C.ar      1 <0>        -0.2190
     23 C18        -4.2904   -1.3884   -7.0070 C.ar      1 <0>         0.1973
     24 N6         -3.9845   -1.0746   -5.7589 N.ar      1 <0>        -0.5224
     25 H1          7.3868    0.9938   -0.0628 H         1 <0>         0.1511
     26 H2          6.0668    3.0695   -0.0394 H         1 <0>         0.1526
     27 H3          3.6092    2.9696   -0.0168 H         1 <0>         0.1339
     28 H4          3.8022   -1.3141   -0.0310 H         1 <0>         0.1302
     29 H5          6.2588   -1.1924   -0.0634 H         1 <0>         0.1512
     30 H6         -0.8889    1.8326    0.0167 H         1 <0>         0.2082
     31 H7         -0.9687   -1.8177    0.5974 H         1 <0>         0.1639
     32 H8         -2.0537   -0.3928    0.4588 H         1 <0>         0.1738
     33 H9         -2.9098    0.2538   -1.7091 H         1 <0>         0.1524
     34 H10        -1.2057    0.6397   -2.1261 H         1 <0>         0.1327
     35 H11        -2.6049    0.2941   -4.1707 H         1 <0>         0.1456
     36 H12        -1.3022   -0.9356   -4.0395 H         1 <0>         0.0690
     37 H13        -3.5676   -3.5789   -2.8576 H         1 <0>         0.1432
     38 H14        -1.8635   -3.1932   -3.2744 H         1 <0>         0.0809
     39 H15        -2.1677   -3.2329   -0.8122 H         1 <0>         0.1507
     40 H16        -3.4704   -2.0031   -0.9435 H         1 <0>         0.1485
     41 H17        -3.6010   -4.6042   -6.7807 H         1 <0>         0.1619
     42 H18        -4.3870   -2.9538   -8.3661 H         1 <0>         0.1457
     43 H19        -4.6135   -0.6904   -7.6460 H         1 <0>         0.1638
     44 H20         1.6522    2.8065    0.0014 H         1 <0>         0.5098
     45 H21         1.8111   -1.3694   -0.0226 H         1 <0>         0.5011
     46 H22        -0.6114   -1.6893   -1.8391 H         1 <0>         0.4375
@<TRIPOS>BOND
     1    1    6 ar
     2    1    2 ar
     3    1   25 1
     4    2    3 ar
     5    2   26 1
     6    3    4 ar
     7    3   27 1
     8    4    5 ar
     9    4    7 1
    10    5    6 ar
    11    5   28 1
    12    6   29 1
    13    7    8 2
    14    7   11 1
    15    8    9 1
    16    8   45 1
    17    9   10 2
    18    9   12 1
    19   10   11 1
    20   10   30 1
    21   11   44 1
    22   12   13 1
    23   12   31 1
    24   12   32 1
    25   13   18 1
    26   13   14 1
    27   13   46 1
    28   14   15 1
    29   14   33 1
    30   14   34 1
    31   15   16 1
    32   15   35 1
    33   15   36 1
    34   16   17 1
    35   16   19 1
    36   17   18 1
    37   17   37 1
    38   17   38 1
    39   18   39 1
    40   18   40 1
    41   19   24 ar
    42   19   20 ar
    43   20   21 ar
    44   21   22 ar
    45   21   41 1
    46   22   23 ar
    47   22   42 1
    48   23   24 ar
    49   23   43 1
@<TRIPOS>MOLECULE
ZINC26817456
   45    48     0     0     0
SMALL
USER_CHARGES

@<TRIPOS>ATOM
      1 C1         -0.0167    1.3793    0.0096 C.ar      1 <0>        -0.0641
      2 C2          1.1684    2.0932    0.0021 C.ar      1 <0>        -0.1064
      3 C3          2.3774    1.4286   -0.0129 C.ar      1 <0>        -0.0743
      4 C4          2.4032    0.0335   -0.0206 C.ar      1 <0>        -0.0957
      5 C5          1.2044   -0.6805   -0.0130 C.ar      1 <0>        -0.0728
      6 C6          0.0021   -0.0041    0.0020 C.ar      1 <0>        -0.1070
      7 C7          3.6958   -0.6853   -0.0373 C.cat     1 <0>         0.3863
      8 N1          3.8575   -2.0353   -0.1479 N.pl3     1 <0>        -0.5144
      9 H1          3.1522   -2.6961   -0.2298 H         1 <0>         0.4588
     10 C8          5.2039   -2.2807   -0.1218 C.2       1 <0>         0.0694
     11 C9          5.8205   -1.0877    0.0025 C.2       1 <0>         0.0293
     12 N2          4.8852   -0.1320    0.0463 N.pl3     1 <0>        -0.4740
     13 C10         5.8711   -3.6289   -0.2139 C.3       1 <0>         0.1108
     14 N3          6.0277   -4.0024   -1.6259 N.3       1 <0>        -0.5344
     15 C11         4.7206   -4.2069   -2.2644 C.3       1 <0>         0.0338
     16 C12         4.9182   -4.4152   -3.7697 C.3       1 <0>         0.1359
     17 N4          5.8845   -5.5063   -3.9675 N.pl3     1 <0>        -0.5910
     18 C13         7.1664   -5.4391   -3.2495 C.3       1 <0>         0.1320
     19 C14         6.8803   -5.1905   -1.7648 C.3       1 <0>         0.0420
     20 C15         5.5954   -6.5677   -4.8073 C.ar      1 <0>         0.5616
     21 N5          4.4328   -6.5919   -5.4424 N.ar      1 <0>        -0.5742
     22 C16         4.1255   -7.5914   -6.2524 C.ar      1 <0>         0.1935
     23 C17         5.0365   -8.6204   -6.4324 C.ar      1 <0>        -0.2853
     24 C18         6.2432   -8.5636   -5.7527 C.ar      1 <0>         0.1955
     25 N6          6.4900   -7.5328   -4.9613 N.ar      1 <0>        -0.5699
     26 H2         -0.9604    1.9041    0.0260 H         1 <0>         0.1451
     27 H3          1.1470    3.1729    0.0078 H         1 <0>         0.1471
     28 H4          3.3018    1.9870   -0.0191 H         1 <0>         0.1327
     29 H5          1.2178   -1.7604   -0.0193 H         1 <0>         0.1304
     30 H6         -0.9265   -0.5556    0.0079 H         1 <0>         0.1465
     31 H7          6.8877   -0.9303    0.0540 H         1 <0>         0.2286
     32 H8          6.8513   -3.5823    0.2605 H         1 <0>         0.1284
     33 H9          5.2571   -4.3734    0.2930 H         1 <0>         0.0702
     34 H10         4.2399   -5.0862   -1.8356 H         1 <0>         0.0491
     35 H11         4.0933   -3.3312   -2.0977 H         1 <0>         0.0704
     36 H12         3.9668   -4.6807   -4.2306 H         1 <0>         0.1056
     37 H13         5.3028   -3.4995   -4.2187 H         1 <0>         0.0730
     38 H14         7.7014   -6.3816   -3.3665 H         1 <0>         0.1094
     39 H15         7.7672   -4.6218   -3.6485 H         1 <0>         0.0764
     40 H16         7.8193   -5.0282   -1.2356 H         1 <0>         0.1004
     41 H17         6.3695   -6.0561   -1.3428 H         1 <0>         0.0491
     42 H18         3.1761   -7.6058   -6.7671 H         1 <0>         0.1696
     43 H19         4.8109   -9.4487   -7.0878 H         1 <0>         0.1482
     44 H20         6.9745   -9.3494   -5.8708 H         1 <0>         0.1708
     45 H21         5.0575    0.8190    0.1288 H         1 <0>         0.4633
@<TRIPOS>BOND
     1    1    6 ar
     2    1    2 ar
     3    1   26 1
     4    2    3 ar
     5    2   27 1
     6    3    4 ar
     7    3   28 1
     8    4    5 ar
     9    4    7 1
    10    5    6 ar
    11    5   29 1
    12    6   30 1
    13    7   12 2
    14    7    8 1
    15    8    9 1
    16    8   10 1
    17   10   11 2
    18   10   13 1
    19   11   12 1
    20   11   31 1
    21   12   45 1
    22   13   14 1
    23   13   32 1
    24   13   33 1
    25   14   19 1
    26   14   15 1
    27   15   16 1
    28   15   34 1
    29   15   35 1
    30   16   17 1
    31   16   36 1
    32   16   37 1
    33   17   18 1
    34   17   20 1
    35   18   19 1
    36   18   38 1
    37   18   39 1
    38   19   40 1
    39   19   41 1
    40   20   25 ar
    41   20   21 ar
    42   21   22 ar
    43   22   23 ar
    44   22   42 1
    45   23   24 ar
    46   23   43 1
    47   24   25 ar
    48   24   44 1
@<TRIPOS>MOLECULE
ZINC13742643
   41    42     0     0     0
SMALL
USER_CHARGES
(6R)-N',N'-dipropyl-4,5,6,7-tetrahydro-1,3-benzothiazole-2,6-diamine
@<TRIPOS>ATOM
      1 C1         -0.1175    1.1729   -2.5115 C.3       1 <0>        -0.1562
      2 C2         -0.8531    1.5686   -1.2296 C.3       1 <0>        -0.1481
      3 C3         -0.0581    1.0845   -0.0153 C.3       1 <0>        -0.0197
      4 C4         -1.9224    0.8075    1.5048 C.3       1 <0>        -0.0127
      5 C5         -1.5560   -0.6417    1.8312 C.3       1 <0>        -0.1487
      6 C6         -2.8343   -1.4621    2.0144 C.3       1 <0>        -0.1556
      7 C7          0.2325    1.5194    2.3489 C.3       1 <0>         0.0307
      8 H1          0.5001    0.4836    2.5577 H         1 <0>         0.1466
      9 C8         -0.4287    2.1381    3.5839 C.3       1 <0>        -0.1388
     10 C9          0.4263    1.8759    4.8248 C.3       1 <0>        -0.0402
     11 C10         1.8510    2.3405    4.5460 C.2       1 <0>         0.1342
     12 C11         2.2731    2.5243    3.2691 C.2       1 <0>        -0.2844
     13 S1          3.9513    3.0520    3.4852 S.3       1 <0>         0.0695
     14 C12         3.9716    2.9911    5.2225 C.2       1 <0>         0.3783
     15 N1          2.7477    2.5896    5.4990 N.2       1 <0>        -0.5942
     16 N2          5.0087    3.2884    6.0928 N.pl3     1 <0>        -0.7898
     17 C13         1.4978    2.3242    2.0113 C.3       1 <0>        -0.0284
     18 H2         -0.0163    0.0884   -2.5523 H         1 <0>         0.0668
     19 H3         -0.6838    1.5178   -3.3766 H         1 <0>         0.0771
     20 H4          0.8717    1.6306   -2.5188 H         1 <0>         0.0668
     21 H5         -1.8423    1.1109   -1.2223 H         1 <0>         0.0855
     22 H6         -0.9542    2.6532   -1.1888 H         1 <0>         0.0848
     23 H7         -0.0337   -0.0052   -0.0079 H         1 <0>         0.1342
     24 H8          0.9598    1.4704   -0.0700 H         1 <0>         0.1318
     25 H9         -2.4342    1.2538    2.3574 H         1 <0>         0.1313
     26 H10        -2.5789    0.8291    0.6349 H         1 <0>         0.1311
     27 H11        -0.9691   -1.0610    1.0140 H         1 <0>         0.0846
     28 H12        -0.9710   -0.6703    2.7505 H         1 <0>         0.0866
     29 H13        -3.4193   -1.4335    1.0950 H         1 <0>         0.0664
     30 H14        -2.5733   -2.4945    2.2469 H         1 <0>         0.0767
     31 H15        -3.4212   -1.0428    2.8316 H         1 <0>         0.0675
     32 H16        -0.5332    3.2131    3.4375 H         1 <0>         0.0937
     33 H17        -1.4153    1.6968    3.7249 H         1 <0>         0.0975
     34 H18         0.0206    2.4294    5.6717 H         1 <0>         0.1046
     35 H19         0.4250    0.8096    5.0508 H         1 <0>         0.0946
     36 H20         5.8670    3.5759    5.7442 H         1 <0>         0.4259
     37 H21         4.8761    3.2089    7.0504 H         1 <0>         0.4220
     38 H22         2.1023    1.7735    1.2906 H         1 <0>         0.0987
     39 H23         1.2178    3.2915    1.5942 H         1 <0>         0.0947
     40 N3         -0.7071    1.5956    1.2104 N.4       1 <0>        -0.3922
     41 H24        -0.9732    2.5763    1.0627 H         1 <0>         0.4268
@<TRIPOS>BOND
     1    1    2 1
     2    1   18 1
     3    1   19 1
     4    1   20 1
     5    2    3 1
     6    2   21 1
     7    2   22 1
     8    3   23 1
     9    3   24 1
    10    3   40 1
    11    4    5 1
    12    4   25 1
    13    4   26 1
    14    4   40 1
    15    5    6 1
    16    5   27 1
    17    5   28 1
    18    6   29 1
    19    6   30 1
    20    6   31 1
    21    7    8 1
    22    7   17 1
    23    7    9 1
    24    7   40 1
    25    9   10 1
    26    9   32 1
    27    9   33 1
    28   10   11 1
    29   10   34 1
    30   10   35 1
    31   11   15 1
    32   11   12 2
    33   12   13 1
    34   12   17 1
    35   13   14 1
    36   14   15 2
    37   14   16 1
    38   16   36 1
    39   16   37 1
    40   17   38 1
    41   17   39 1
    42   40   41 1
@<TRIPOS>MOLECULE
ZINC13742644
   41    42     0     0     0
SMALL
USER_CHARGES
(6S)-N',N'-dipropyl-4,5,6,7-tetrahydro-1,3-benzothiazole-2,6-diamine
@<TRIPOS>ATOM
      1 C1          3.8194    1.2123    4.8869 C.3       1 <0>        -0.1559
      2 C2          3.2368    1.9126    3.6576 C.3       1 <0>        -0.1498
      3 C3          3.8833    1.3443    2.3927 C.3       1 <0>        -0.0150
      4 C4          4.3180    1.9153    0.0802 C.3       1 <0>        -0.0178
      5 C5          5.6183    2.6797    0.3365 C.3       1 <0>        -0.1490
      6 C6          6.5720    2.4733   -0.8420 C.3       1 <0>        -0.1563
      7 C7          2.0378    1.7110    0.8688 C.3       1 <0>         0.0322
      8 H1          1.3881    1.8408    1.7343 H         1 <0>         0.1432
      9 C8          1.5411    2.5850   -0.2872 C.3       1 <0>        -0.1371
     10 C9          0.0423    2.3689   -0.5025 C.3       1 <0>        -0.0410
     11 C10        -0.2211    0.8752   -0.6545 C.2       1 <0>         0.1340
     12 C11         0.6959   -0.0283   -0.2243 C.2       1 <0>        -0.2841
     13 S1         -0.0674   -1.5780   -0.6216 S.3       1 <0>         0.0691
     14 C12        -1.5218   -0.9269   -1.3165 C.2       1 <0>         0.3784
     15 N1         -1.3268    0.3708   -1.1997 N.2       1 <0>        -0.5940
     16 N2         -2.6074   -1.5999   -1.8550 N.pl3     1 <0>        -0.7898
     17 C13         2.0128    0.2408    0.4211 C.3       1 <0>        -0.0255
     18 H2          3.6184    0.1428    4.8251 H         1 <0>         0.0668
     19 H3          4.8962    1.3781    4.9232 H         1 <0>         0.0668
     20 H4          3.3589    1.6171    5.7880 H         1 <0>         0.0770
     21 H5          3.4379    2.9821    3.7194 H         1 <0>         0.0853
     22 H6          2.1601    1.7469    3.6213 H         1 <0>         0.0852
     23 H7          3.6104    0.2945    2.2854 H         1 <0>         0.1319
     24 H8          4.9672    1.4322    2.4677 H         1 <0>         0.1320
     25 H9          4.5384    0.8552   -0.0452 H         1 <0>         0.1321
     26 H10         3.8441    2.2973   -0.8240 H         1 <0>         0.1328
     27 H11         5.3998    3.7421    0.4454 H         1 <0>         0.0860
     28 H12         6.0837    2.3090    1.2498 H         1 <0>         0.0848
     29 H13         6.7904    1.4110   -0.9509 H         1 <0>         0.0666
     30 H14         6.1065    2.8440   -1.7553 H         1 <0>         0.0671
     31 H15         7.4984    3.0179   -0.6594 H         1 <0>         0.0771
     32 H16         2.0788    2.3207   -1.1978 H         1 <0>         0.0936
     33 H17         1.7251    3.6334   -0.0525 H         1 <0>         0.0968
     34 H18        -0.2761    2.8899   -1.4055 H         1 <0>         0.1049
     35 H19        -0.5092    2.7516    0.3563 H         1 <0>         0.0956
     36 H20        -2.6153   -2.5697   -1.8755 H         1 <0>         0.4259
     37 H21        -3.3591   -1.1011   -2.2114 H         1 <0>         0.4221
     38 H22         2.1374   -0.4093    1.2871 H         1 <0>         0.0970
     39 H23         2.8160    0.0604   -0.2933 H         1 <0>         0.0949
     40 N3          3.4110    2.1231    1.2286 N.4       1 <0>        -0.3919
     41 H24         3.4065    3.1201    1.4740 H         1 <0>         0.4278
@<TRIPOS>BOND
     1    1    2 1
     2    1   18 1
     3    1   19 1
     4    1   20 1
     5    2    3 1
     6    2   21 1
     7    2   22 1
     8    3   23 1
     9    3   24 1
    10    3   40 1
    11    4    5 1
    12    4   25 1
    13    4   26 1
    14    4   40 1
    15    5    6 1
    16    5   27 1
    17    5   28 1
    18    6   29 1
    19    6   30 1
    20    6   31 1
    21    7    8 1
    22    7   17 1
    23    7    9 1
    24    7   40 1
    25    9   10 1
    26    9   32 1
    27    9   33 1
    28   10   11 1
    29   10   34 1
    30   10   35 1
    31   11   15 1
    32   11   12 2
    33   12   13 1
    34   12   17 1
    35   13   14 1
    36   14   15 2
    37   14   16 1
    38   16   36 1
    39   16   37 1
    40   17   38 1
    41   17   39 1
    42   40   41 1
@<TRIPOS>MOLECULE
ZINC20358060
   39    41     0     0     0
SMALL
USER_CHARGES
1-benzyl-4-(2-iodopyrrol-1-yl)piperidine
@<TRIPOS>ATOM
      1 C1         -6.3766   -3.2696    3.8374 C.ar      1 <0>        -0.0837
      2 C2         -6.7726   -1.9671    3.5973 C.ar      1 <0>        -0.1136
      3 C3         -6.5464   -1.3928    2.3604 C.ar      1 <0>        -0.0981
      4 C4         -5.9247   -2.1212    1.3634 C.ar      1 <0>        -0.1606
      5 C5         -5.5339   -3.4255    1.6017 C.ar      1 <0>        -0.0939
      6 C6         -5.7553   -3.9981    2.8403 C.ar      1 <0>        -0.1129
      7 C7         -5.6786   -1.4952    0.0148 C.3       1 <0>         0.0468
      8 N1         -4.3655   -0.8366    0.0130 N.4       1 <0>        -0.3985
      9 C8         -4.1890   -0.0180   -1.1933 C.3       1 <0>         0.0005
     10 C9         -2.7621    0.5338   -1.2327 C.3       1 <0>        -0.1569
     11 C10        -2.5115    1.3773    0.0204 C.3       1 <0>         0.1188
     12 C11        -2.7490    0.5144    1.2628 C.3       1 <0>        -0.1548
     13 C12        -4.1762   -0.0368    1.2299 C.3       1 <0>        -0.0060
     14 N2         -1.1284    1.8603    0.0169 N.pl3     1 <0>        -0.4381
     15 C13        -0.0126    1.0758    0.0080 C.2       1 <0>         0.0015
     16 C14         1.0690    1.8810    0.0020 C.2       1 <0>        -0.1814
     17 C15         0.6048    3.2113    0.0130 C.2       1 <0>        -0.1355
     18 C16        -0.7436    3.1684    0.0254 C.2       1 <0>        -0.0106
     19 I1         -2.0251    4.8257    0.0447 I         1 <0>         0.0221
     20 H1         -6.5530   -3.7181    4.8038 H         1 <0>         0.1361
     21 H2         -7.2583   -1.3981    4.3761 H         1 <0>         0.1363
     22 H3         -6.8558   -0.3752    2.1728 H         1 <0>         0.1299
     23 H4         -5.0521   -3.9960    0.8214 H         1 <0>         0.1315
     24 H5         -5.4463   -5.0158    3.0277 H         1 <0>         0.1363
     25 H6         -5.6987   -2.2751   -0.7606 H         1 <0>         0.1403
     26 H7         -6.4621   -0.7515   -0.1928 H         1 <0>         0.1344
     27 H8         -4.3672   -0.6364   -2.0854 H         1 <0>         0.1424
     28 H9         -4.9044    0.8174   -1.1774 H         1 <0>         0.1317
     29 H10        -2.0468   -0.3013   -1.2638 H         1 <0>         0.1008
     30 H11        -2.6353    1.1588   -2.1290 H         1 <0>         0.1222
     31 H12        -3.1610    2.2651    0.0307 H         1 <0>         0.1136
     32 H13        -2.0320   -0.3198    1.2723 H         1 <0>         0.0997
     33 H14        -2.6113    1.1266    2.1663 H         1 <0>         0.1203
     34 H15        -4.8916    0.7987    1.2345 H         1 <0>         0.1297
     35 H16        -4.3451   -0.6689    2.1141 H         1 <0>         0.1437
     36 H17         0.0021   -0.0041    0.0020 H         1 <0>         0.1679
     37 H18         2.1015    1.5644   -0.0090 H         1 <0>         0.1488
     38 H19         1.2160    4.1017    0.0118 H         1 <0>         0.1480
     39 H20        -3.5928   -1.6195    0.0029 H         1 <0>         0.4411
@<TRIPOS>BOND
     1    1    6 ar
     2    1    2 ar
     3    1   20 1
     4    2    3 ar
     5    2   21 1
     6    3    4 ar
     7    3   22 1
     8    4    5 ar
     9    4    7 1
    10    5    6 ar
    11    5   23 1
    12    6   24 1
    13    7    8 1
    14    7   25 1
    15    7   26 1
    16    8   13 1
    17    8    9 1
    18    8   39 1
    19    9   10 1
    20    9   27 1
    21    9   28 1
    22   10   11 1
    23   10   29 1
    24   10   30 1
    25   11   12 1
    26   11   14 1
    27   11   31 1
    28   12   13 1
    29   12   32 1
    30   12   33 1
    31   13   34 1
    32   13   35 1
    33   14   18 1
    34   14   15 1
    35   15   16 2
    36   15   36 1
    37   16   17 1
    38   16   37 1
    39   17   18 2
    40   17   38 1
    41   18   19 1
@<TRIPOS>MOLECULE
ZINC05736728
   41    43     0     0     0
SMALL
USER_CHARGES
4-(1,3-dibenzylhexahydropyrimidin-2-yl)phenol
@<TRIPOS>ATOM
      1 C1         -0.0126    1.0758    0.0080 C.ar      1 <0>        -0.0824
      2 C2         -1.2190    1.7506    0.0173 C.ar      1 <0>        -0.1126
      3 C3         -1.2377    3.1328    0.0299 C.ar      1 <0>        -0.0940
      4 C4         -0.0501    3.8402    0.0223 C.ar      1 <0>        -0.1657
      5 C5          1.1563    3.1654    0.0076 C.ar      1 <0>        -0.0976
      6 C6          1.1750    1.7832    0.0004 C.ar      1 <0>        -0.1131
      7 C7         -0.0705    5.3471    0.0297 C.3       1 <0>         0.0495
      8 C8          1.1581    5.5089   -2.0500 C.3       1 <0>        -0.0027
      9 C9          1.0449    5.9102   -3.5224 C.3       1 <0>        -0.1584
     10 C10         0.7726    7.4140   -3.6170 C.3       1 <0>         0.1221
     11 C11        -0.5066    7.7428   -2.8424 C.3       1 <0>        -0.1602
     12 C12        -0.3485    7.2884   -1.3897 C.3       1 <0>         0.0026
     13 N1          0.6054    7.7939   -5.0220 N.pl3     1 <0>        -0.4248
     14 C13        -0.3280    7.3036   -5.8631 C.2       1 <0>         0.0299
     15 C14        -0.1807    7.8886   -7.0780 C.2       1 <0>        -0.2029
     16 C15         0.8946    8.7752   -6.9998 C.2       1 <0>        -0.0794
     17 C16         1.3799    8.7073   -5.7051 C.2       1 <0>        -0.1122
     18 C17         2.4693    9.4393   -5.1802 C.2       1 <0>         0.3961
     19 O1          3.0749   10.2182   -5.8881 O.2       1 <0>        -0.4449
     20 H1          0.0021   -0.0041    0.0020 H         1 <0>         0.1366
     21 H2         -2.1469    1.1980    0.0187 H         1 <0>         0.1368
     22 H3         -2.1802    3.6600    0.0410 H         1 <0>         0.1314
     23 H4          2.0841    3.7181    0.0014 H         1 <0>         0.1312
     24 H5          2.1175    1.2560   -0.0115 H         1 <0>         0.1367
     25 H6         -0.9604    5.6958    0.5537 H         1 <0>         0.1374
     26 H7          0.8193    5.7200    0.5368 H         1 <0>         0.1386
     27 H8          1.9865    6.0472   -1.5895 H         1 <0>         0.1362
     28 H9          1.3378    4.4362   -1.9787 H         1 <0>         0.1382
     29 H10         0.2254    5.3620   -3.9871 H         1 <0>         0.0980
     30 H11         1.9770    5.6762   -4.0367 H         1 <0>         0.1224
     31 H12         1.6100    7.9636   -3.1873 H         1 <0>         0.1178
     32 H13        -1.3506    7.2235   -3.2964 H         1 <0>         0.0986
     33 H14        -0.6834    8.8180   -2.8702 H         1 <0>         0.1236
     34 H15        -1.2630    7.5081   -0.8388 H         1 <0>         0.1390
     35 H16         0.4870    7.8183   -0.9323 H         1 <0>         0.1370
     36 H17        -1.0748    6.5658   -5.6092 H         1 <0>         0.1688
     37 H18        -0.7855    7.6986   -7.9524 H         1 <0>         0.1505
     38 H19         1.2752    9.3961   -7.7973 H         1 <0>         0.1542
     39 H20         2.7630    9.3059   -4.1495 H         1 <0>         0.0860
     40 N2         -0.1130    5.8290   -1.3664 N.4       1 <0>        -0.3959
     41 H21        -0.8827    5.3596   -1.8578 H         1 <0>         0.4275
@<TRIPOS>BOND
     1    1    6 ar
     2    1    2 ar
     3    1   20 1
     4    2    3 ar
     5    2   21 1
     6    3    4 ar
     7    3   22 1
     8    4    5 ar
     9    4    7 1
    10    5    6 ar
    11    5   23 1
    12    6   24 1
    13    7   25 1
    14    7   26 1
    15    7   40 1
    16    8    9 1
    17    8   27 1
    18    8   28 1
    19    8   40 1
    20    9   10 1
    21    9   29 1
    22    9   30 1
    23   10   11 1
    24   10   13 1
    25   10   31 1
    26   11   12 1
    27   11   32 1
    28   11   33 1
    29   12   34 1
    30   12   35 1
    31   12   40 1
    32   13   17 1
    33   13   14 1
    34   14   15 2
    35   14   36 1
    36   15   16 1
    37   15   37 1
    38   16   17 2
    39   16   38 1
    40   17   18 1
    41   18   19 2
    42   18   39 1
    43   40   41 1
@<TRIPOS>MOLECULE
ZINC02169415
   51    53     0     0     0
SMALL
USER_CHARGES

@<TRIPOS>ATOM
      1 C1          0.1211    1.2205   -3.1182 C.3       1 <0>        -0.1554
      2 C2          0.1212   -0.2930   -2.8943 C.3       1 <0>        -0.1522
      3 C3          0.5756   -0.5972   -1.4653 C.3       1 <0>        -0.0201
      4 N1          0.5307   -2.0474   -1.2355 N.4       1 <0>        -0.3814
      5 C4         -0.8598   -2.5136   -1.3189 C.3       1 <0>        -0.0169
      6 C5         -1.6744   -1.8943   -0.1814 C.3       1 <0>        -0.0968
      7 C6         -3.0637   -2.4784   -0.1827 C.ar      1 <0>        -0.1073
      8 C7         -4.0648   -1.8787   -0.9236 C.ar      1 <0>        -0.1097
      9 C8         -5.3392   -2.4144   -0.9248 C.ar      1 <0>        -0.1136
     10 C9         -5.6122   -3.5500   -0.1855 C.ar      1 <0>        -0.1044
     11 C10        -4.6108   -4.1503    0.5547 C.ar      1 <0>        -0.1137
     12 C11        -3.3354   -3.6170    0.5525 C.ar      1 <0>        -0.1108
     13 C12         1.3381   -2.7300   -2.2553 C.3       1 <0>         0.0202
     14 H1          0.9446   -2.5044   -3.2465 H         1 <0>         0.1445
     15 C13         2.7949   -2.2617   -2.1593 C.3       1 <0>        -0.1386
     16 C14         3.5541   -2.7985   -3.3710 C.3       1 <0>        -0.0685
     17 C15         3.3324   -4.2809   -3.5206 C.ar      1 <0>        -0.1100
     18 C16         2.2929   -4.9405   -2.9056 C.ar      1 <0>        -0.0755
     19 C17         2.1397   -6.3086   -3.0915 C.ar      1 <0>        -0.1201
     20 C18         3.0232   -7.0147   -3.8823 C.ar      1 <0>        -0.0943
     21 C19         4.0710   -6.3578   -4.4975 C.ar      1 <0>        -0.1328
     22 C20         4.2258   -4.9935   -4.3180 C.ar      1 <0>         0.1136
     23 O1          5.2555   -4.3454   -4.9234 O.3       1 <0>        -0.4942
     24 C21         1.2991   -4.2382   -2.0176 C.3       1 <0>        -0.0918
     25 H2         -0.5617    1.6923   -2.4116 H         1 <0>         0.0668
     26 H3          1.1276    1.6103   -2.9662 H         1 <0>         0.0672
     27 H4         -0.2026    1.4372   -4.1362 H         1 <0>         0.0768
     28 H5         -0.8853   -0.6828   -3.0463 H         1 <0>         0.0858
     29 H6          0.8041   -0.7648   -3.6009 H         1 <0>         0.0873
     30 H7          1.5950   -0.2382   -1.3241 H         1 <0>         0.1334
     31 H8         -0.0869   -0.0967   -0.7591 H         1 <0>         0.1340
     32 H9         -1.2865   -2.2144   -2.2762 H         1 <0>         0.1340
     33 H10        -0.8845   -3.6000   -1.2338 H         1 <0>         0.1338
     34 H11        -1.1906   -2.1099    0.7712 H         1 <0>         0.0938
     35 H12        -1.7338   -0.8152   -0.3228 H         1 <0>         0.0953
     36 H13        -3.8515   -0.9914   -1.5013 H         1 <0>         0.1234
     37 H14        -6.1215   -1.9455   -1.5031 H         1 <0>         0.1293
     38 H15        -6.6080   -3.9682   -0.1859 H         1 <0>         0.1296
     39 H16        -4.8242   -5.0373    1.1326 H         1 <0>         0.1293
     40 H17        -2.5522   -4.0881    1.1278 H         1 <0>         0.1236
     41 H18         2.8309   -1.1723   -2.1566 H         1 <0>         0.0944
     42 H19         3.2447   -2.6466   -1.2441 H         1 <0>         0.0924
     43 H20         3.2032   -2.2902   -4.2691 H         1 <0>         0.0891
     44 H21         4.6191   -2.6055   -3.2423 H         1 <0>         0.0953
     45 H22         1.3212   -6.8249   -2.6121 H         1 <0>         0.1287
     46 H23         2.8959   -8.0784   -4.0194 H         1 <0>         0.1355
     47 H24         4.7668   -6.9060   -5.1155 H         1 <0>         0.1369
     48 H25         6.0632   -4.3085   -4.3930 H         1 <0>         0.3953
     49 H26         1.5412   -4.4440   -0.9749 H         1 <0>         0.0972
     50 H27         0.2976   -4.6103   -2.2335 H         1 <0>         0.0996
     51 H28         0.9005   -2.2543   -0.3198 H         1 <0>         0.4223
@<TRIPOS>BOND
     1    1    2 1
     2    1   25 1
     3    1   26 1
     4    1   27 1
     5    2    3 1
     6    2   28 1
     7    2   29 1
     8    3    4 1
     9    3   30 1
    10    3   31 1
    11    4    5 1
    12    4   13 1
    13    4   51 1
    14    5    6 1
    15    5   32 1
    16    5   33 1
    17    6    7 1
    18    6   34 1
    19    6   35 1
    20    7   12 ar
    21    7    8 ar
    22    8    9 ar
    23    8   36 1
    24    9   10 ar
    25    9   37 1
    26   10   11 ar
    27   10   38 1
    28   11   12 ar
    29   11   39 1
    30   12   40 1
    31   13   14 1
    32   13   24 1
    33   13   15 1
    34   15   16 1
    35   15   41 1
    36   15   42 1
    37   16   17 1
    38   16   43 1
    39   16   44 1
    40   17   22 ar
    41   17   18 ar
    42   18   19 ar
    43   18   24 1
    44   19   20 ar
    45   19   45 1
    46   20   21 ar
    47   20   46 1
    48   21   22 ar
    49   21   47 1
    50   22   23 1
    51   23   48 1
    52   24   49 1
    53   24   50 1
@<TRIPOS>MOLECULE
ZINC02169418
   51    53     0     0     0
SMALL
USER_CHARGES

@<TRIPOS>ATOM
      1 C1         -0.1570    1.5040   -0.0065 C.3       1 <0>        -0.1558
      2 C2         -0.1131   -0.0252   -0.0294 C.3       1 <0>        -0.1485
      3 C3          0.6431   -0.4951   -1.2737 C.3       1 <0>        -0.0231
      4 N1          0.8044   -1.9545   -1.2266 N.4       1 <0>        -0.3815
      5 C4         -0.5154   -2.5956   -1.2986 C.3       1 <0>        -0.0142
      6 C5         -1.1513   -2.3024   -2.6589 C.3       1 <0>        -0.0995
      7 C6         -2.5572   -2.8446   -2.6836 C.ar      1 <0>        -0.1068
      8 C7         -2.7912   -4.1397   -3.1064 C.ar      1 <0>        -0.1099
      9 C8         -4.0807   -4.6371   -3.1290 C.ar      1 <0>        -0.1131
     10 C9         -5.1363   -3.8394   -2.7283 C.ar      1 <0>        -0.1045
     11 C10        -4.9022   -2.5446   -2.3046 C.ar      1 <0>        -0.1133
     12 C11        -3.6121   -2.0487   -2.2780 C.ar      1 <0>        -0.1110
     13 C12         1.6246   -2.3934   -2.3635 C.3       1 <0>         0.0189
     14 H1          1.1134   -2.1588   -3.2971 H         1 <0>         0.1441
     15 C13         1.8663   -3.9047   -2.2728 C.3       1 <0>        -0.1380
     16 C14         2.5094   -4.3686   -3.5782 C.3       1 <0>        -0.0721
     17 C15         3.7047   -3.5150   -3.9122 C.ar      1 <0>        -0.1100
     18 C16         3.9158   -2.2801   -3.3428 C.ar      1 <0>        -0.0758
     19 C17         5.0353   -1.5394   -3.7004 C.ar      1 <0>        -0.1203
     20 C18         5.9413   -2.0317   -4.6175 C.ar      1 <0>        -0.0943
     21 C19         5.7364   -3.2728   -5.1880 C.ar      1 <0>        -0.1328
     22 C20         4.6204   -4.0137   -4.8367 C.ar      1 <0>         0.1139
     23 O1          4.4168   -5.2348   -5.3974 O.3       1 <0>        -0.4943
     24 C21         2.9772   -1.6850   -2.3257 C.3       1 <0>        -0.0918
     25 H2          0.8596    1.8964    0.0164 H         1 <0>         0.0669
     26 H3         -0.6663    1.8663   -0.8995 H         1 <0>         0.0668
     27 H4         -0.6957    1.8388    0.8800 H         1 <0>         0.0774
     28 H5          0.3962   -0.3874    0.8637 H         1 <0>         0.0854
     29 H6         -1.1298   -0.4176   -0.0523 H         1 <0>         0.0867
     30 H7          0.0806   -0.2203   -2.1660 H         1 <0>         0.1320
     31 H8          1.6245   -0.0218   -1.3028 H         1 <0>         0.1335
     32 H9         -0.4033   -3.6727   -1.1745 H         1 <0>         0.1341
     33 H10        -1.1536   -2.2031   -0.5070 H         1 <0>         0.1358
     34 H11        -1.1743   -1.2253   -2.8247 H         1 <0>         0.0938
     35 H12        -0.5645   -2.7784   -3.4445 H         1 <0>         0.0952
     36 H13        -1.9665   -4.7629   -3.4194 H         1 <0>         0.1234
     37 H14        -4.2636   -5.6487   -3.4600 H         1 <0>         0.1294
     38 H15        -6.1439   -4.2278   -2.7467 H         1 <0>         0.1296
     39 H16        -5.7269   -1.9213   -1.9919 H         1 <0>         0.1292
     40 H17        -3.4288   -1.0383   -1.9434 H         1 <0>         0.1226
     41 H18         2.5331   -4.1205   -1.4380 H         1 <0>         0.0933
     42 H19         0.9169   -4.4203   -2.1278 H         1 <0>         0.0937
     43 H20         2.8266   -5.4062   -3.4738 H         1 <0>         0.1023
     44 H21         1.7793   -4.2959   -4.3843 H         1 <0>         0.0849
     45 H22         5.1980   -0.5685   -3.2564 H         1 <0>         0.1287
     46 H23         6.8084   -1.4477   -4.8889 H         1 <0>         0.1355
     47 H24         6.4431   -3.6637   -5.9050 H         1 <0>         0.1368
     48 H25         3.9013   -5.2111   -6.2152 H         1 <0>         0.3956
     49 H26         2.8347   -0.6265   -2.5431 H         1 <0>         0.1001
     50 H27         3.4111   -1.7918   -1.3315 H         1 <0>         0.0973
     51 H28         1.2583   -2.2150   -0.3640 H         1 <0>         0.4235
@<TRIPOS>BOND
     1    1    2 1
     2    1   25 1
     3    1   26 1
     4    1   27 1
     5    2    3 1
     6    2   28 1
     7    2   29 1
     8    3    4 1
     9    3   30 1
    10    3   31 1
    11    4    5 1
    12    4   13 1
    13    4   51 1
    14    5    6 1
    15    5   32 1
    16    5   33 1
    17    6    7 1
    18    6   34 1
    19    6   35 1
    20    7   12 ar
    21    7    8 ar
    22    8    9 ar
    23    8   36 1
    24    9   10 ar
    25    9   37 1
    26   10   11 ar
    27   10   38 1
    28   11   12 ar
    29   11   39 1
    30   12   40 1
    31   13   14 1
    32   13   24 1
    33   13   15 1
    34   15   16 1
    35   15   41 1
    36   15   42 1
    37   16   17 1
    38   16   43 1
    39   16   44 1
    40   17   22 ar
    41   17   18 ar
    42   18   19 ar
    43   18   24 1
    44   19   20 ar
    45   19   45 1
    46   20   21 ar
    47   20   46 1
    48   21   22 ar
    49   21   47 1
    50   22   23 1
    51   23   48 1
    52   24   49 1
    53   24   50 1
@<TRIPOS>MOLECULE
ZINC00020245
   46    48     0     0     0
SMALL
USER_CHARGES

@<TRIPOS>ATOM
      1 C1         -5.6836    1.3838    0.0162 C.3       1 <0>        -0.0473
      2 N1         -5.6620   -0.0833   -0.0564 N.4       1 <0>        -0.3868
      3 C2         -6.3713   -0.5242   -1.2649 C.3       1 <0>        -0.0522
      4 C3         -4.2702   -0.5505   -0.1076 C.3       1 <0>        -0.0086
      5 C4         -4.2434   -2.0795   -0.0575 C.3       1 <0>        -0.1781
      6 C5         -2.7938   -2.5661   -0.1108 C.3       1 <0>         0.1490
      7 N2         -2.7704   -4.0309   -0.1190 N.pl3     1 <0>        -0.6108
      8 C6         -2.7295   -4.7451   -1.3212 C.ar      1 <0>         0.1758
      9 C7         -1.6865   -4.4783   -2.2022 C.ar      1 <0>        -0.1411
     10 C8         -1.5734   -5.1772   -3.3856 C.ar      1 <0>        -0.1022
     11 C9         -2.5089   -6.1508   -3.6854 C.ar      1 <0>        -0.1266
     12 C10        -3.5489   -6.4041   -2.8209 C.ar      1 <0>        -0.1101
     13 C11        -3.6933   -5.6947   -1.6266 C.ar      1 <0>        -0.0998
     14 C12        -4.9357   -6.0340   -0.8354 C.3       1 <0>        -0.0687
     15 C13        -5.1005   -5.1892    0.4158 C.3       1 <0>        -0.0773
     16 C14        -3.9592   -5.4030    1.3779 C.ar      1 <0>        -0.0996
     17 C15        -2.7824   -4.7590    1.0748 C.ar      1 <0>         0.1523
     18 C16        -1.6837   -4.8488    1.9126 C.ar      1 <0>        -0.1184
     19 C17        -1.7825   -5.6251    3.0560 C.ar      1 <0>        -0.1094
     20 C18        -2.9565   -6.2950    3.3488 C.ar      1 <0>        -0.1165
     21 C19        -4.0679   -6.1865    2.5030 C.ar      1 <0>        -0.1028
     22 H1         -6.7163    1.7305    0.0542 H         1 <0>         0.1245
     23 H2         -5.1573    1.7109    0.9129 H         1 <0>         0.1235
     24 H3         -5.1933    1.7984   -0.8646 H         1 <0>         0.1221
     25 H4         -6.3552   -1.6128   -1.3188 H         1 <0>         0.1231
     26 H5         -7.4040   -0.1775   -1.2269 H         1 <0>         0.1246
     27 H6         -5.8810   -0.1096   -2.1457 H         1 <0>         0.1227
     28 H7         -3.8061   -0.2091   -1.0329 H         1 <0>         0.1308
     29 H8         -3.7207   -0.1494    0.7440 H         1 <0>         0.1320
     30 H9         -4.7075   -2.4209    0.8678 H         1 <0>         0.0908
     31 H10        -4.7929   -2.4806   -0.9091 H         1 <0>         0.0915
     32 H11        -2.3174   -2.1901   -1.0161 H         1 <0>         0.0824
     33 H12        -2.2550   -2.1990    0.7627 H         1 <0>         0.0801
     34 H13        -0.9599   -3.7176   -1.9576 H         1 <0>         0.1215
     35 H14        -0.7646   -4.9667   -4.0697 H         1 <0>         0.1276
     36 H15        -2.4229   -6.7145   -4.6025 H         1 <0>         0.1250
     37 H16        -4.2693   -7.1687   -3.0712 H         1 <0>         0.1222
     38 H17        -5.8074   -5.8880   -1.4734 H         1 <0>         0.0793
     39 H18        -4.8898   -7.0837   -0.5452 H         1 <0>         0.0765
     40 H19        -5.1365   -4.1371    0.1334 H         1 <0>         0.0724
     41 H20        -6.0358   -5.4578    0.9068 H         1 <0>         0.0709
     42 H21        -0.7686   -4.3248    1.6795 H         1 <0>         0.1257
     43 H22        -0.9372   -5.7074    3.7231 H         1 <0>         0.1275
     44 H23        -3.0178   -6.9071    4.2365 H         1 <0>         0.1269
     45 H24        -4.9880   -6.7067    2.7249 H         1 <0>         0.1290
     46 H25        -6.1159   -0.4671    0.7589 H         1 <0>         0.4268
@<TRIPOS>BOND
     1    1    2 1
     2    1   22 1
     3    1   23 1
     4    1   24 1
     5    2    3 1
     6    2    4 1
     7    2   46 1
     8    3   25 1
     9    3   26 1
    10    3   27 1
    11    4    5 1
    12    4   28 1
    13    4   29 1
    14    5    6 1
    15    5   30 1
    16    5   31 1
    17    6    7 1
    18    6   32 1
    19    6   33 1
    20    7   17 1
    21    7    8 1
    22    8   13 ar
    23    8    9 ar
    24    9   10 ar
    25    9   34 1
    26   10   11 ar
    27   10   35 1
    28   11   12 ar
    29   11   36 1
    30   12   13 ar
    31   12   37 1
    32   13   14 1
    33   14   15 1
    34   14   38 1
    35   14   39 1
    36   15   16 1
    37   15   40 1
    38   15   41 1
    39   16   21 ar
    40   16   17 ar
    41   17   18 ar
    42   18   19 ar
    43   18   42 1
    44   19   20 ar
    45   19   43 1
    46   20   21 ar
    47   20   44 1
    48   21   45 1
@<TRIPOS>MOLECULE
ZINC26966311
   48    51     0     0     0
SMALL
USER_CHARGES
methyl 4-[(E)-2-[1-[(4-chlorophenyl)methyl]benzimidazol-2-yl]vinyl]benzoate
@<TRIPOS>ATOM
      1 C1         -7.3620   -3.2135    0.0187 C.3       1 <0>         0.0326
      2 O1         -6.0773   -2.5368    0.0168 O.3       1 <0>        -0.3552
      3 C2         -6.0956   -1.1895    0.0241 C.2       1 <0>         0.5062
      4 O2         -7.1559   -0.5964    0.0320 O.2       1 <0>        -0.5023
      5 C3         -4.8277   -0.4344    0.0227 C.ar      1 <0>        -0.1232
      6 C4         -4.8470    0.9638    0.0303 C.ar      1 <0>        -0.0513
      7 C5         -3.6740    1.6633    0.0285 C.ar      1 <0>        -0.1089
      8 C6         -2.4523    0.9804    0.0190 C.ar      1 <0>        -0.0260
      9 C7         -2.4337   -0.4190    0.0055 C.ar      1 <0>        -0.1242
     10 C8         -3.6076   -1.1173    0.0132 C.ar      1 <0>        -0.0586
     11 C9         -1.1881    1.7334    0.0171 C.2       1 <0>        -0.0522
     12 C10        -0.0126    1.0758    0.0080 C.2       1 <0>        -0.1005
     13 C11         1.2477    1.8265   -0.0000 C.2       1 <0>         0.3124
     14 N1          1.3487    3.1367    0.0003 N.2       1 <0>        -0.4795
     15 C12         2.6486    3.4933   -0.0045 C.ar      1 <0>         0.0520
     16 C13         3.3049    4.7300   -0.0045 C.ar      1 <0>        -0.0630
     17 C14         4.6695    4.7762   -0.0177 C.ar      1 <0>        -0.1272
     18 C15         5.4181    3.6072   -0.0311 C.ar      1 <0>        -0.0978
     19 C16         4.7945    2.3773   -0.0313 C.ar      1 <0>        -0.1131
     20 C17         3.4082    2.3086   -0.0181 C.ar      1 <0>         0.0554
     21 N2          2.5009    1.2677   -0.0150 N.pl3     1 <0>        -0.4805
     22 C18         2.8166   -0.1629   -0.0253 C.3       1 <0>         0.1498
     23 C19         2.9116   -0.6461   -1.4495 C.ar      1 <0>        -0.1152
     24 C20         1.7872   -1.1310   -2.0912 C.ar      1 <0>        -0.0860
     25 C21         1.8726   -1.5690   -3.3993 C.ar      1 <0>        -0.1088
     26 C22         3.0860   -1.5327   -4.0628 C.ar      1 <0>        -0.0238
     27 C23         4.2122   -1.0527   -3.4183 C.ar      1 <0>        -0.1092
     28 C24         4.1244   -0.6096   -2.1121 C.ar      1 <0>        -0.0835
     29 Cl1         3.1954   -2.0889   -5.7037 Cl        1 <0>        -0.0619
     30 H1         -7.2031   -4.3019    0.0122 H         1 <0>         0.1063
     31 H2         -7.9319   -2.9208   -0.8755 H         1 <0>         0.0663
     32 H3         -7.9242   -2.9304    0.9208 H         1 <0>         0.0663
     33 H4         -5.7898    1.4906    0.0373 H         1 <0>         0.1420
     34 H5         -3.6891    2.7432    0.0341 H         1 <0>         0.1406
     35 H6         -1.4915   -0.9465   -0.0067 H         1 <0>         0.1328
     36 H7         -3.5934   -2.1972    0.0069 H         1 <0>         0.1415
     37 H8         -1.2030    2.8333    0.0231 H         1 <0>         0.1473
     38 H9          0.0023   -0.0241    0.0066 H         1 <0>         0.1374
     39 H10         2.7328    5.6459    0.0062 H         1 <0>         0.1299
     40 H11         5.1717    5.7323   -0.0180 H         1 <0>         0.1304
     41 H12         6.4967    3.6614   -0.0417 H         1 <0>         0.1308
     42 H13         5.3823    1.4713   -0.0414 H         1 <0>         0.1202
     43 H14         3.7775   -0.3300    0.4835 H         1 <0>         0.1054
     44 H15         2.0235   -0.7172    0.4978 H         1 <0>         0.1067
     45 H16         0.8409   -1.1633   -1.5716 H         1 <0>         0.1316
     46 H17         0.9931   -1.9437   -3.9019 H         1 <0>         0.1383
     47 H18         5.1596   -1.0238   -3.9359 H         1 <0>         0.1377
     48 H19         5.0033   -0.2345   -1.6089 H         1 <0>         0.1322
@<TRIPOS>BOND
     1    1    2 1
     2    1   30 1
     3    1   31 1
     4    1   32 1
     5    2    3 1
     6    3    4 2
     7    3    5 1
     8    5   10 ar
     9    5    6 ar
    10    6    7 ar
    11    6   33 1
    12    7    8 ar
    13    7   34 1
    14    8    9 ar
    15    8   11 1
    16    9   10 ar
    17    9   35 1
    18   10   36 1
    19   11   12 2
    20   11   37 1
    21   12   13 1
    22   12   38 1
    23   13   21 1
    24   13   14 2
    25   14   15 1
    26   15   20 ar
    27   15   16 ar
    28   16   17 ar
    29   16   39 1
    30   17   18 ar
    31   17   40 1
    32   18   19 ar
    33   18   41 1
    34   19   20 ar
    35   19   42 1
    36   20   21 1
    37   21   22 1
    38   22   23 1
    39   22   43 1
    40   22   44 1
    41   23   28 ar
    42   23   24 ar
    43   24   25 ar
    44   24   45 1
    45   25   26 ar
    46   25   46 1
    47   26   27 ar
    48   26   29 1
    49   27   28 ar
    50   27   47 1
    51   28   48 1
@<TRIPOS>MOLECULE
ZINC26966311
   49    52     0     0     0
SMALL
USER_CHARGES
methyl 4-[(E)-2-[1-[(4-chlorophenyl)methyl]benzimidazol-2-yl]vinyl]benzoate
@<TRIPOS>ATOM
      1 C1         -7.3620   -3.2135    0.0187 C.3       1 <0>         0.0316
      2 O1         -6.0773   -2.5368    0.0168 O.3       1 <0>        -0.3535
      3 C2         -6.0956   -1.1895    0.0241 C.2       1 <0>         0.4990
      4 O2         -7.1559   -0.5964    0.0320 O.2       1 <0>        -0.4900
      5 C3         -4.8277   -0.4344    0.0227 C.ar      1 <0>        -0.0867
      6 C4         -4.8470    0.9638    0.0303 C.ar      1 <0>        -0.0576
      7 C5         -3.6740    1.6633    0.0285 C.ar      1 <0>        -0.0865
      8 C6         -2.4523    0.9804    0.0190 C.ar      1 <0>        -0.0731
      9 C7         -2.4337   -0.4190    0.0055 C.ar      1 <0>        -0.0995
     10 C8         -3.6076   -1.1173    0.0132 C.ar      1 <0>        -0.0644
     11 C9         -1.1881    1.7334    0.0171 C.2       1 <0>         0.0213
     12 C10        -0.0126    1.0758    0.0080 C.2       1 <0>        -0.1790
     13 C11         1.2477    1.8265   -0.0000 C.cat     1 <0>         0.4233
     14 N1          1.3487    3.1367    0.0003 N.pl3     1 <0>        -0.5127
     15 C12         2.6486    3.4933   -0.0045 C.ar      1 <0>         0.0656
     16 C13         3.3049    4.7300   -0.0045 C.ar      1 <0>        -0.0802
     17 C14         4.6695    4.7762   -0.0177 C.ar      1 <0>        -0.0810
     18 C15         5.4181    3.6072   -0.0311 C.ar      1 <0>        -0.0674
     19 C16         4.7945    2.3773   -0.0313 C.ar      1 <0>        -0.0923
     20 C17         3.4082    2.3086   -0.0181 C.ar      1 <0>         0.0836
     21 N2          2.5009    1.2677   -0.0150 N.pl3     1 <0>        -0.4267
     22 C18         2.8166   -0.1629   -0.0253 C.3       1 <0>         0.1422
     23 C19         2.9116   -0.6461   -1.4495 C.ar      1 <0>        -0.1411
     24 C20         1.7872   -1.1310   -2.0912 C.ar      1 <0>        -0.0832
     25 C21         1.8726   -1.5690   -3.3993 C.ar      1 <0>        -0.1076
     26 C22         3.0860   -1.5327   -4.0628 C.ar      1 <0>        -0.0128
     27 C23         4.2122   -1.0527   -3.4183 C.ar      1 <0>        -0.1068
     28 C24         4.1244   -0.6096   -2.1121 C.ar      1 <0>        -0.0776
     29 Cl1         3.1954   -2.0889   -5.7037 Cl        1 <0>        -0.0444
     30 H1         -7.2031   -4.3019    0.0122 H         1 <0>         0.1107
     31 H2         -7.9319   -2.9208   -0.8755 H         1 <0>         0.0696
     32 H3         -7.9242   -2.9304    0.9208 H         1 <0>         0.0696
     33 H4         -5.7898    1.4906    0.0373 H         1 <0>         0.1505
     34 H5         -3.6891    2.7432    0.0341 H         1 <0>         0.1444
     35 H6         -1.4915   -0.9465   -0.0067 H         1 <0>         0.1369
     36 H7         -3.5934   -2.1972    0.0069 H         1 <0>         0.1505
     37 H8         -1.2030    2.8333    0.0231 H         1 <0>         0.1375
     38 H9          0.0023   -0.0241    0.0066 H         1 <0>         0.1735
     39 H10         2.7328    5.6459    0.0062 H         1 <0>         0.1509
     40 H11         5.1717    5.7323   -0.0180 H         1 <0>         0.1551
     41 H12         6.4967    3.6614   -0.0417 H         1 <0>         0.1555
     42 H13         5.3823    1.4713   -0.0414 H         1 <0>         0.1481
     43 H14         3.7775   -0.3300    0.4835 H         1 <0>         0.1311
     44 H15         2.0235   -0.7172    0.4978 H         1 <0>         0.1277
     45 H16         0.8409   -1.1633   -1.5716 H         1 <0>         0.1333
     46 H17         0.9931   -1.9437   -3.9019 H         1 <0>         0.1441
     47 H18         5.1596   -1.0238   -3.9359 H         1 <0>         0.1443
     48 H19         5.0033   -0.2345   -1.6089 H         1 <0>         0.1354
     49 H20         0.4412    3.7583    0.0041 H         1 <0>         0.4887
@<TRIPOS>BOND
     1    1    2 1
     2    1   30 1
     3    1   31 1
     4    1   32 1
     5    2    3 1
     6    3    4 2
     7    3    5 1
     8    5   10 ar
     9    5    6 ar
    10    6    7 ar
    11    6   33 1
    12    7    8 ar
    13    7   34 1
    14    8    9 ar
    15    8   11 1
    16    9   10 ar
    17    9   35 1
    18   10   36 1
    19   11   12 2
    20   11   37 1
    21   12   13 1
    22   12   38 1
    23   13   21 1
    24   13   14 2
    25   14   15 1
    26   14   49 1
    27   15   20 ar
    28   15   16 ar
    29   16   17 ar
    30   16   39 1
    31   17   18 ar
    32   17   40 1
    33   18   19 ar
    34   18   41 1
    35   19   20 ar
    36   19   42 1
    37   20   21 1
    38   21   22 1
    39   22   23 1
    40   22   43 1
    41   22   44 1
    42   23   28 ar
    43   23   24 ar
    44   24   25 ar
    45   24   45 1
    46   25   26 ar
    47   25   46 1
    48   26   27 ar
    49   26   29 1
    50   27   28 ar
    51   27   47 1
    52   28   48 1
@<TRIPOS>MOLECULE
ZINC01851149
   58    61     0     0     0
SMALL
USER_CHARGES

@<TRIPOS>ATOM
      1 C1         -0.0167    1.3781    0.0096 C.ar      1 <0>        -0.0896
      2 C2          1.1690    2.0873    0.0021 C.ar      1 <0>        -0.1006
      3 C3          2.3816    1.4109   -0.0131 C.ar      1 <0>         0.1668
      4 C4          2.3986    0.0211   -0.0208 C.ar      1 <0>        -0.0379
      5 C5          1.2084   -0.6828   -0.0132 C.ar      1 <0>        -0.0271
      6 C6          0.0021   -0.0041    0.0020 C.ar      1 <0>        -0.0892
      7 Cl1         1.2271   -2.4187   -0.0233 Cl        1 <0>        -0.0322
      8 Cl2         3.9117   -0.8297   -0.0404 Cl        1 <0>        -0.0503
      9 N1          3.5822    2.1260   -0.0212 N.pl3     1 <0>        -0.6733
     10 C7          4.2166    2.5248   -1.2872 C.3       1 <0>         0.1212
     11 C8          5.6874    2.0967   -1.2494 C.3       1 <0>        -0.0255
     12 N2          6.3270    2.6517   -0.0498 N.4       1 <0>        -0.3792
     13 C9          5.7166    2.0749    1.1547 C.3       1 <0>        -0.0318
     14 C10         4.2444    2.5067    1.2361 C.3       1 <0>         0.1223
     15 C11         7.7610    2.3338   -0.0701 C.3       1 <0>        -0.0093
     16 C12         8.4515    3.0158    1.1127 C.3       1 <0>        -0.1453
     17 C13         9.9450    2.6847    1.0915 C.3       1 <0>        -0.1184
     18 C14        10.6355    3.3667    2.2743 C.3       1 <0>         0.0595
     19 O1         12.0305    3.0574    2.2545 O.3       1 <0>        -0.3124
     20 C15        12.7944    3.5890    3.2448 C.ar      1 <0>         0.1559
     21 C16        12.2111    4.3876    4.2189 C.ar      1 <0>        -0.2294
     22 C17        12.9865    4.9295    5.2261 C.ar      1 <0>        -0.0411
     23 C18        14.3441    4.6777    5.2669 C.ar      1 <0>        -0.1551
     24 C19        14.9331    3.8788    4.2952 C.ar      1 <0>         0.2059
     25 C20        14.1552    3.3295    3.2858 C.ar      1 <0>        -0.1852
     26 N3         16.3074    3.6248    4.3397 N.am      1 <0>        -0.6651
     27 C21        17.0003    3.8176    5.4770 C.2       1 <0>         0.5216
     28 O2         18.1945    3.6066    5.4945 O.2       1 <0>        -0.5157
     29 C22        16.3105    4.2925    6.7275 C.3       1 <0>        -0.1402
     30 C23        15.1900    5.2680    6.3653 C.3       1 <0>        -0.0752
     31 H1         -0.9596    1.9044    0.0260 H         1 <0>         0.1477
     32 H2          1.1527    3.1672    0.0077 H         1 <0>         0.1420
     33 H3         -0.9265   -0.5556    0.0083 H         1 <0>         0.1502
     34 H4          3.7134    2.0333   -2.1198 H         1 <0>         0.1171
     35 H5          4.1529    3.6066   -1.4040 H         1 <0>         0.0851
     36 H6          5.7487    1.0088   -1.2236 H         1 <0>         0.1293
     37 H7          6.1971    2.4687   -2.1381 H         1 <0>         0.1401
     38 H8          5.7771    0.9876    1.1077 H         1 <0>         0.1300
     39 H9          6.2479    2.4307    2.0374 H         1 <0>         0.1398
     40 H10         4.1834    3.5868    1.3697 H         1 <0>         0.0853
     41 H11         3.7595    2.0032    2.0724 H         1 <0>         0.1165
     42 H12         7.8950    1.2546    0.0040 H         1 <0>         0.1305
     43 H13         8.1993    2.6912   -1.0020 H         1 <0>         0.1352
     44 H14         8.3175    4.0950    1.0386 H         1 <0>         0.0923
     45 H15         8.0132    2.6584    2.0445 H         1 <0>         0.0907
     46 H16        10.0790    1.6055    1.1656 H         1 <0>         0.0866
     47 H17        10.3833    3.0420    0.1597 H         1 <0>         0.0875
     48 H18        10.5015    4.4459    2.2002 H         1 <0>         0.0675
     49 H19        10.1972    3.0093    3.2062 H         1 <0>         0.0669
     50 H20        11.1499    4.5859    4.1893 H         1 <0>         0.1286
     51 H21        12.5305    5.5511    5.9824 H         1 <0>         0.1354
     52 H22        14.6099    2.7045    2.5314 H         1 <0>         0.1380
     53 H23        16.7645    3.3072    3.5453 H         1 <0>         0.4136
     54 H24        15.8894    3.4371    7.2558 H         1 <0>         0.1060
     55 H25        17.0331    4.7940    7.3713 H         1 <0>         0.1134
     56 H26        15.6229    6.2086    6.0246 H         1 <0>         0.0845
     57 H27        14.5699    5.4506    7.2429 H         1 <0>         0.0936
     58 H28         6.2073    3.6535   -0.0392 H         1 <0>         0.4226
@<TRIPOS>BOND
     1    1    6 ar
     2    1    2 ar
     3    1   31 1
     4    2    3 ar
     5    2   32 1
     6    3    4 ar
     7    3    9 1
     8    4    5 ar
     9    4    8 1
    10    5    6 ar
    11    5    7 1
    12    6   33 1
    13    9   14 1
    14    9   10 1
    15   10   11 1
    16   10   34 1
    17   10   35 1
    18   11   12 1
    19   11   36 1
    20   11   37 1
    21   12   13 1
    22   12   15 1
    23   12   58 1
    24   13   14 1
    25   13   38 1
    26   13   39 1
    27   14   40 1
    28   14   41 1
    29   15   16 1
    30   15   42 1
    31   15   43 1
    32   16   17 1
    33   16   44 1
    34   16   45 1
    35   17   18 1
    36   17   46 1
    37   17   47 1
    38   18   19 1
    39   18   48 1
    40   18   49 1
    41   19   20 1
    42   20   25 ar
    43   20   21 ar
    44   21   22 ar
    45   21   50 1
    46   22   23 ar
    47   22   51 1
    48   23   30 1
    49   23   24 ar
    50   24   25 ar
    51   24   26 1
    52   25   52 1
    53   26   27 am
    54   26   53 1
    55   27   28 2
    56   27   29 1
    57   29   30 1
    58   29   54 1
    59   29   55 1
    60   30   56 1
    61   30   57 1
@<TRIPOS>MOLECULE
ZINC01851149
   57    60     0     0     0
SMALL
USER_CHARGES

@<TRIPOS>ATOM
      1 C1         -0.0167    1.3781    0.0096 C.ar      1 <0>        -0.0962
      2 C2          1.1690    2.0873    0.0021 C.ar      1 <0>        -0.1094
      3 C3          2.3816    1.4109   -0.0131 C.ar      1 <0>         0.1932
      4 C4          2.3986    0.0211   -0.0208 C.ar      1 <0>        -0.0428
      5 C5          1.2084   -0.6828   -0.0132 C.ar      1 <0>        -0.0286
      6 C6          0.0021   -0.0041    0.0020 C.ar      1 <0>        -0.1045
      7 Cl1         1.2271   -2.4187   -0.0233 Cl        1 <0>        -0.0488
      8 Cl2         3.9117   -0.8297   -0.0404 Cl        1 <0>        -0.0433
      9 N1          3.5822    2.1260   -0.0212 N.pl3     1 <0>        -0.6753
     10 C7          4.2154    2.5239   -1.2877 C.3       1 <0>         0.1522
     11 C8          5.6814    2.0786   -1.2601 C.3       1 <0>         0.0390
     12 N2          6.3271    2.6054   -0.0504 N.3       1 <0>        -0.5335
     13 C9          5.7110    2.0562    1.1648 C.3       1 <0>         0.0352
     14 C10         4.2431    2.5059    1.2366 C.3       1 <0>         0.1520
     15 C11         7.7731    2.3471   -0.0705 C.3       1 <0>         0.0570
     16 C12         8.4448    3.1181    1.0676 C.3       1 <0>        -0.1122
     17 C13         9.9508    2.8491    1.0467 C.3       1 <0>        -0.1185
     18 C14        10.6225    3.6201    2.1847 C.3       1 <0>         0.0609
     19 O1         12.0291    3.3688    2.1652 O.3       1 <0>        -0.3131
     20 C15        12.7788    3.9828    3.1179 C.ar      1 <0>         0.1632
     21 C16        12.1712    4.8060    4.0560 C.ar      1 <0>        -0.2281
     22 C17        12.9321    5.4316    5.0250 C.ar      1 <0>        -0.0412
     23 C18        14.2995    5.2392    5.0634 C.ar      1 <0>        -0.1625
     24 C19        14.9129    4.4161    4.1277 C.ar      1 <0>         0.2001
     25 C20        14.1497    3.7829    3.1569 C.ar      1 <0>        -0.1880
     26 N3         16.2971    4.2225    4.1697 N.am      1 <0>        -0.6633
     27 C21        16.9915    4.5031    5.2876 C.2       1 <0>         0.5225
     28 O2         18.1937    4.3433    5.3024 O.2       1 <0>        -0.5237
     29 C22        16.2937    5.0132    6.5196 C.3       1 <0>        -0.1395
     30 C23        15.1296    5.9209    6.1201 C.3       1 <0>        -0.0723
     31 H1         -0.9596    1.9044    0.0260 H         1 <0>         0.1404
     32 H2          1.1527    3.1672    0.0077 H         1 <0>         0.1387
     33 H3         -0.9265   -0.5556    0.0083 H         1 <0>         0.1426
     34 H4          3.7022    2.0431   -2.1205 H         1 <0>         0.0715
     35 H5          4.1638    3.6071   -1.3984 H         1 <0>         0.0629
     36 H6          5.7306    0.9897   -1.2538 H         1 <0>         0.0403
     37 H7          6.1944    2.4613   -2.1423 H         1 <0>         0.0804
     38 H8          5.7599    0.9676    1.1373 H         1 <0>         0.0406
     39 H9          6.2457    2.4226    2.0412 H         1 <0>         0.0819
     40 H10         4.1941    3.5874    1.3639 H         1 <0>         0.0629
     41 H11         3.7483    2.0131    2.0736 H         1 <0>         0.0709
     42 H12         7.9533    1.2798    0.0578 H         1 <0>         0.0339
     43 H13         8.1873    2.6734   -1.0245 H         1 <0>         0.0769
     44 H14         8.2646    4.1855    0.9393 H         1 <0>         0.0762
     45 H15         8.0306    2.7918    2.0216 H         1 <0>         0.0660
     46 H16        10.1310    1.7817    1.1750 H         1 <0>         0.0732
     47 H17        10.3650    3.1754    0.0927 H         1 <0>         0.0761
     48 H18        10.4423    4.6874    2.0565 H         1 <0>         0.0659
     49 H19        10.2083    3.2938    3.1387 H         1 <0>         0.0641
     50 H20        11.1023    4.9580    4.0282 H         1 <0>         0.1320
     51 H21        12.4571    6.0722    5.7533 H         1 <0>         0.1337
     52 H22        14.6236    3.1389    2.4308 H         1 <0>         0.1367
     53 H23        16.7599    3.8832    3.3877 H         1 <0>         0.4126
     54 H24        15.9140    4.1697    7.0961 H         1 <0>         0.1050
     55 H25        17.0002    5.5774    7.1284 H         1 <0>         0.1106
     56 H26        15.5192    6.8597    5.7264 H         1 <0>         0.0818
     57 H27        14.5104    6.1229    6.9941 H         1 <0>         0.0917
@<TRIPOS>BOND
     1    1    6 ar
     2    1    2 ar
     3    1   31 1
     4    2    3 ar
     5    2   32 1
     6    3    4 ar
     7    3    9 1
     8    4    5 ar
     9    4    8 1
    10    5    6 ar
    11    5    7 1
    12    6   33 1
    13    9   14 1
    14    9   10 1
    15   10   11 1
    16   10   34 1
    17   10   35 1
    18   11   12 1
    19   11   36 1
    20   11   37 1
    21   12   13 1
    22   12   15 1
    23   13   14 1
    24   13   38 1
    25   13   39 1
    26   14   40 1
    27   14   41 1
    28   15   16 1
    29   15   42 1
    30   15   43 1
    31   16   17 1
    32   16   44 1
    33   16   45 1
    34   17   18 1
    35   17   46 1
    36   17   47 1
    37   18   19 1
    38   18   48 1
    39   18   49 1
    40   19   20 1
    41   20   25 ar
    42   20   21 ar
    43   21   22 ar
    44   21   50 1
    45   22   23 ar
    46   22   51 1
    47   23   30 1
    48   23   24 ar
    49   24   25 ar
    50   24   26 1
    51   25   52 1
    52   26   27 am
    53   26   53 1
    54   27   28 2
    55   27   29 1
    56   29   30 1
    57   29   54 1
    58   29   55 1
    59   30   56 1
    60   30   57 1
@<TRIPOS>MOLECULE
ZINC22055590
   40    43     0     0     0
SMALL
USER_CHARGES
2-methyl-4-piperazin-1-yl-10H-thieno[2,3-b][1,5]benzodiazepine
@<TRIPOS>ATOM
      1 C1          2.9000    6.4909    5.1733 C.3       1 <0>        -0.0794
      2 C2          2.5815    5.9866    3.7894 C.2       1 <0>        -0.1487
      3 C3          1.6183    6.4056    2.9486 C.2       1 <0>        -0.1359
      4 C4          1.5178    5.7559    1.6564 C.2       1 <0>        -0.2219
      5 C5          2.4395    4.7328    1.4394 C.2       1 <0>         0.1326
      6 S1          3.3891    4.6898    2.8707 S.3       1 <0>         0.1175
      7 N1          2.5084    3.9288    0.3158 N.pl3     1 <0>        -0.6794
      8 C6          1.3322    3.2144   -0.0160 C.ar      1 <0>         0.1140
      9 C7          1.3818    1.8365   -0.0931 C.ar      1 <0>        -0.1132
     10 C8          0.2296    1.1109   -0.3542 C.ar      1 <0>        -0.1125
     11 C9         -0.9694    1.7704   -0.5428 C.ar      1 <0>        -0.1069
     12 C10        -1.0287    3.1477   -0.4744 C.ar      1 <0>        -0.1040
     13 C11         0.1275    3.8975   -0.2233 C.ar      1 <0>         0.1419
     14 N2          0.0194    5.2532   -0.2098 N.2       1 <0>        -0.5947
     15 C12         0.5397    6.1123    0.6013 C.2       1 <0>         0.5251
     16 N3          0.1661    7.4315    0.4793 N.pl3     1 <0>        -0.6143
     17 C13        -0.9003    7.8310   -0.4516 C.3       1 <0>         0.0945
     18 C14        -0.3858    8.9721   -1.3278 C.3       1 <0>        -0.0147
     19 N4          0.1296   10.0500   -0.4732 N.4       1 <0>        -0.5347
     20 C15         1.2772    9.5959    0.3235 C.3       1 <0>        -0.0188
     21 C16         0.8267    8.4796    1.2719 C.3       1 <0>         0.0827
     22 H1          2.2045    7.3011    5.4374 H         1 <0>         0.0840
     23 H2          3.9319    6.8713    5.1964 H         1 <0>         0.0821
     24 H3          2.7962    5.6683    5.8962 H         1 <0>         0.0829
     25 H4          0.9422    7.2004    3.2271 H         1 <0>         0.1391
     26 H5          3.4417    3.8721   -0.2636 H         1 <0>         0.4455
     27 H6          2.3208    1.3226    0.0501 H         1 <0>         0.1291
     28 H7          0.2702    0.0334   -0.4145 H         1 <0>         0.1328
     29 H8         -1.8675    1.2043   -0.7411 H         1 <0>         0.1317
     30 H9         -1.9729    3.6514   -0.6202 H         1 <0>         0.1285
     31 H10        -1.1776    6.9729   -1.0815 H         1 <0>         0.1410
     32 H11        -1.7789    8.1660    0.1193 H         1 <0>         0.0882
     33 H12         0.4208    8.6008   -1.9770 H         1 <0>         0.1293
     34 H13        -1.2082    9.3572   -1.9486 H         1 <0>         0.1436
     35 H14         0.4513   10.8938   -1.1013 H         1 <0>         0.4556
     36 H15         2.0613    9.2147   -0.3472 H         1 <0>         0.1293
     37 H16         1.6735   10.4385    0.9091 H         1 <0>         0.1449
     38 H17         0.1191    8.8797    2.0130 H         1 <0>         0.0936
     39 H18         1.6982    8.0530    1.7901 H         1 <0>         0.1398
     40 H19        -0.6625   10.3846    0.2128 H         1 <0>         0.4497
@<TRIPOS>BOND
     1    1    2 1
     2    1   22 1
     3    1   23 1
     4    1   24 1
     5    2    6 1
     6    2    3 2
     7    3    4 1
     8    3   25 1
     9    4   15 1
    10    4    5 2
    11    5    6 1
    12    5    7 1
    13    7    8 1
    14    7   26 1
    15    8   13 ar
    16    8    9 ar
    17    9   10 ar
    18    9   27 1
    19   10   11 ar
    20   10   28 1
    21   11   12 ar
    22   11   29 1
    23   12   13 ar
    24   12   30 1
    25   13   14 1
    26   14   15 2
    27   15   16 1
    28   16   21 1
    29   16   17 1
    30   17   18 1
    31   17   31 1
    32   17   32 1
    33   18   19 1
    34   18   33 1
    35   18   34 1
    36   19   20 1
    37   19   35 1
    38   19   40 1
    39   20   21 1
    40   20   36 1
    41   20   37 1
    42   21   38 1
    43   21   39 1
@<TRIPOS>MOLECULE
ZINC22055590
   39    42     0     0     0
SMALL
USER_CHARGES
2-methyl-4-piperazin-1-yl-10H-thieno[2,3-b][1,5]benzodiazepine
@<TRIPOS>ATOM
      1 C1          2.9000    6.4909    5.1733 C.3       1 <0>        -0.0731
      2 C2          2.5815    5.9866    3.7894 C.2       1 <0>        -0.1595
      3 C3          1.6183    6.4056    2.9486 C.2       1 <0>        -0.1197
      4 C4          1.5178    5.7559    1.6564 C.2       1 <0>        -0.2090
      5 C5          2.4395    4.7328    1.4394 C.2       1 <0>         0.1289
      6 S1          3.3891    4.6898    2.8707 S.3       1 <0>         0.0909
      7 N1          2.5084    3.9288    0.3158 N.pl3     1 <0>        -0.6777
      8 C6          1.3322    3.2144   -0.0160 C.ar      1 <0>         0.1017
      9 C7          1.3818    1.8365   -0.0931 C.ar      1 <0>        -0.1111
     10 C8          0.2296    1.1109   -0.3542 C.ar      1 <0>        -0.1312
     11 C9         -0.9694    1.7704   -0.5428 C.ar      1 <0>        -0.1060
     12 C10        -1.0287    3.1477   -0.4744 C.ar      1 <0>        -0.1167
     13 C11         0.1275    3.8975   -0.2233 C.ar      1 <0>         0.1681
     14 N2          0.0194    5.2532   -0.2098 N.2       1 <0>        -0.6216
     15 C12         0.5397    6.1123    0.6013 C.2       1 <0>         0.5340
     16 N3          0.1661    7.4315    0.4793 N.pl3     1 <0>        -0.5933
     17 C13        -0.9003    7.8310   -0.4516 C.3       1 <0>         0.1226
     18 C14        -0.3858    8.9721   -1.3278 C.3       1 <0>         0.0334
     19 N4          0.1296   10.0500   -0.4732 N.3       1 <0>        -0.6705
     20 C15         1.2772    9.5959    0.3235 C.3       1 <0>         0.0314
     21 C16         0.8267    8.4796    1.2719 C.3       1 <0>         0.1111
     22 H1          2.2045    7.3011    5.4374 H         1 <0>         0.0832
     23 H2          3.9319    6.8713    5.1964 H         1 <0>         0.0780
     24 H3          2.7962    5.6683    5.8962 H         1 <0>         0.0776
     25 H4          0.9422    7.2004    3.2271 H         1 <0>         0.1418
     26 H5          3.4417    3.8721   -0.2636 H         1 <0>         0.4407
     27 H6          2.3208    1.3226    0.0501 H         1 <0>         0.1233
     28 H7          0.2702    0.0334   -0.4145 H         1 <0>         0.1260
     29 H8         -1.8675    1.2043   -0.7411 H         1 <0>         0.1256
     30 H9         -1.9729    3.6514   -0.6202 H         1 <0>         0.1265
     31 H10        -1.1776    6.9729   -1.0815 H         1 <0>         0.1044
     32 H11        -1.7789    8.1660    0.1193 H         1 <0>         0.0695
     33 H12         0.4208    8.6008   -1.9770 H         1 <0>         0.0349
     34 H13        -1.2082    9.3572   -1.9486 H         1 <0>         0.0894
     35 H14         2.0613    9.2147   -0.3472 H         1 <0>         0.0352
     36 H15         1.6735   10.4385    0.9091 H         1 <0>         0.0904
     37 H16         0.1191    8.8797    2.0130 H         1 <0>         0.0755
     38 H17         1.6982    8.0530    1.7901 H         1 <0>         0.0999
     39 H18         0.4513   10.8938   -1.1013 H         1 <0>         0.3455
@<TRIPOS>BOND
     1    1    2 1
     2    1   22 1
     3    1   23 1
     4    1   24 1
     5    2    6 1
     6    2    3 2
     7    3    4 1
     8    3   25 1
     9    4   15 1
    10    4    5 2
    11    5    6 1
    12    5    7 1
    13    7    8 1
    14    7   26 1
    15    8   13 ar
    16    8    9 ar
    17    9   10 ar
    18    9   27 1
    19   10   11 ar
    20   10   28 1
    21   11   12 ar
    22   11   29 1
    23   12   13 ar
    24   12   30 1
    25   13   14 1
    26   14   15 2
    27   15   16 1
    28   16   21 1
    29   16   17 1
    30   17   18 1
    31   17   31 1
    32   17   32 1
    33   18   19 1
    34   18   33 1
    35   18   34 1
    36   19   20 1
    37   19   39 1
    38   20   21 1
    39   20   35 1
    40   20   36 1
    41   21   37 1
    42   21   38 1
@<TRIPOS>MOLECULE
ZINC03783980
   37    39     0     0     0
SMALL
USER_CHARGES

@<TRIPOS>ATOM
      1 C1         -0.0174    1.3767    0.0136 C.ar      1 <0>        -0.1012
      2 C2          0.1526    0.2844   -0.8163 C.ar      1 <0>        -0.1081
      3 C3          1.3592   -0.3899   -0.8330 C.ar      1 <0>        -0.1177
      4 C4          2.3960    0.0285   -0.0201 C.ar      1 <0>        -0.1160
      5 C5          2.2264    1.1215    0.8091 C.ar      1 <0>        -0.1149
      6 C6          1.0193    1.7948    0.8268 C.ar      1 <0>        -0.1076
      7 C7          3.7036   -0.7029   -0.0375 C.3       1 <0>        -0.0193
      8 H1          4.4826    0.1015   -0.1363 H         1 <0>         0.1314
      9 C8          4.0133   -1.4150    1.2578 C.3       1 <0>        -0.0003
     10 N1          2.9533   -2.2867    1.7589 N.4       1 <0>        -0.5013
     11 C9          2.2323   -2.9643    0.6691 C.3       1 <0>        -0.0182
     12 C10         3.2963   -3.7442   -0.1278 C.3       1 <0>        -0.1086
     13 C11         3.7124   -2.9112   -1.3184 C.ar      1 <0>        -0.0822
     14 C12         3.8718   -1.5473   -1.2686 C.ar      1 <0>        -0.0654
     15 C13         4.2291   -0.8619   -2.4308 C.ar      1 <0>        -0.1150
     16 C14         4.4388   -1.5334   -3.6188 C.ar      1 <0>         0.1126
     17 C15         4.2953   -2.9160   -3.6595 C.ar      1 <0>         0.1098
     18 C16         3.9333   -3.5957   -2.5105 C.ar      1 <0>        -0.0507
     19 Cl1         3.7549   -5.3223   -2.5580 Cl        1 <0>        -0.0292
     20 O1          4.5096   -3.5937   -4.8188 O.3       1 <0>        -0.4704
     21 O2          4.7849   -0.8492   -4.7424 O.3       1 <0>        -0.4769
     22 H2         -0.9586    1.9062    0.0233 H         1 <0>         0.1319
     23 H3         -0.6575   -0.0425   -1.4514 H         1 <0>         0.1312
     24 H4          1.4917   -1.2437   -1.4809 H         1 <0>         0.1270
     25 H5          3.0363    1.4481    1.4445 H         1 <0>         0.1285
     26 H6          0.8866    2.6485    1.4750 H         1 <0>         0.1324
     27 H7          4.9274   -2.0197    1.1363 H         1 <0>         0.1363
     28 H8          4.2410   -0.6707    2.0397 H         1 <0>         0.1409
     29 H9          3.3634   -2.9917    2.3592 H         1 <0>         0.4335
     30 H10         1.5479   -3.6975    1.1177 H         1 <0>         0.1375
     31 H11         1.6793   -2.3098    0.0317 H         1 <0>         0.1480
     32 H12         4.1531   -3.9294    0.5095 H         1 <0>         0.1044
     33 H13         2.8603   -4.6785   -0.4650 H         1 <0>         0.1240
     34 H14         4.3443    0.2118   -2.3936 H         1 <0>         0.1453
     35 H15         5.4237   -3.8844   -4.9413 H         1 <0>         0.3999
     36 H16         5.7390   -0.7470   -4.8625 H         1 <0>         0.4003
     37 H17         2.2972   -1.7463    2.3026 H         1 <0>         0.4284
@<TRIPOS>BOND
     1    1    6 ar
     2    1    2 ar
     3    1   22 1
     4    2    3 ar
     5    2   23 1
     6    3    4 ar
     7    3   24 1
     8    4    5 ar
     9    4    7 1
    10    5    6 ar
    11    5   25 1
    12    6   26 1
    13    7    8 1
    14    7   14 1
    15    7    9 1
    16    9   10 1
    17    9   27 1
    18    9   28 1
    19   10   11 1
    20   10   29 1
    21   10   37 1
    22   11   12 1
    23   11   30 1
    24   11   31 1
    25   12   13 1
    26   12   32 1
    27   12   33 1
    28   13   18 ar
    29   13   14 ar
    30   14   15 ar
    31   15   16 ar
    32   15   34 1
    33   16   17 ar
    34   16   21 1
    35   17   18 ar
    36   17   20 1
    37   18   19 1
    38   20   35 1
    39   21   36 1
@<TRIPOS>MOLECULE
ZINC10450796
   49    51     0     0     0
SMALL
USER_CHARGES
N-(1-benzyl-4-piperidyl)-3-phenyl-prop-2-enamide
@<TRIPOS>ATOM
      1 C1         -4.6524   -4.8307    5.0881 C.ar      1 <0>        -0.0837
      2 C2         -5.2476   -3.7292    4.5021 C.ar      1 <0>        -0.1134
      3 C3         -5.0134   -3.4439    3.1700 C.ar      1 <0>        -0.0967
      4 C4         -4.1844   -4.2603    2.4236 C.ar      1 <0>        -0.1638
      5 C5         -3.5937   -5.3651    3.0081 C.ar      1 <0>        -0.0944
      6 C6         -3.8234   -5.6471    4.3417 C.ar      1 <0>        -0.1135
      7 C7         -3.9295   -3.9496    0.9712 C.3       1 <0>         0.0490
      8 C8         -2.3354   -2.9364   -0.5430 C.3       1 <0>         0.0035
      9 C9         -1.0327   -2.1360   -0.6095 C.3       1 <0>        -0.1568
     10 C10        -1.2565   -0.7538    0.0100 C.3       1 <0>         0.1369
     11 C11        -1.7427   -0.9221    1.4522 C.3       1 <0>        -0.1599
     12 C12        -3.0248   -1.7577    1.4589 C.3       1 <0>        -0.0026
     13 N1          0.0021   -0.0041    0.0020 N.am      1 <0>        -0.7288
     14 C13        -0.0162    1.3436    0.0094 C.2       1 <0>         0.5579
     15 O1         -1.0783    1.9376    0.0177 O.2       1 <0>        -0.5377
     16 C14         1.2418    2.0929    0.0014 C.2       1 <0>        -0.2407
     17 C15         1.2235    3.4408    0.0089 C.2       1 <0>         0.0116
     18 C16         2.4882    4.1941    0.0008 C.ar      1 <0>        -0.0939
     19 C17         3.7106    3.5151   -0.0087 C.ar      1 <0>        -0.0968
     20 C18         4.8910    4.2278   -0.0220 C.ar      1 <0>        -0.1237
     21 C19         4.8680    5.6116   -0.0139 C.ar      1 <0>        -0.0983
     22 C20         3.6623    6.2909    0.0008 C.ar      1 <0>        -0.1218
     23 C21         2.4734    5.5924    0.0085 C.ar      1 <0>        -0.0884
     24 H1         -4.8347   -5.0531    6.1291 H         1 <0>         0.1359
     25 H2         -5.8953   -3.0913    5.0852 H         1 <0>         0.1363
     26 H3         -5.4784   -2.5833    2.7122 H         1 <0>         0.1314
     27 H4         -2.9495   -6.0054    2.4238 H         1 <0>         0.1310
     28 H5         -3.3581   -6.5075    4.7996 H         1 <0>         0.1361
     29 H6         -4.8012   -3.4505    0.5480 H         1 <0>         0.1375
     30 H7         -3.7424   -4.8763    0.4288 H         1 <0>         0.1360
     31 H8         -3.1097   -2.4177   -1.1082 H         1 <0>         0.1349
     32 H9         -2.1756   -3.9264   -0.9704 H         1 <0>         0.1350
     33 H10        -0.7275   -2.0235   -1.6498 H         1 <0>         0.1200
     34 H11        -0.2543   -2.6612   -0.0560 H         1 <0>         0.0941
     35 H12        -2.0064   -0.2129   -0.5674 H         1 <0>         0.1054
     36 H13        -0.9755   -1.4282    2.0381 H         1 <0>         0.0893
     37 H14        -1.9447    0.0577    1.8848 H         1 <0>         0.1163
     38 H15        -3.7958   -1.2444    0.8843 H         1 <0>         0.1333
     39 H16        -3.3657   -1.8915    2.4855 H         1 <0>         0.1321
     40 H17         0.8486   -0.4776   -0.0086 H         1 <0>         0.4072
     41 H18         2.1843    1.5657   -0.0104 H         1 <0>         0.1318
     42 H19         0.2810    3.9680    0.0207 H         1 <0>         0.1371
     43 H20         3.7301    2.4353   -0.0098 H         1 <0>         0.1260
     44 H21         5.8358    3.7049   -0.0339 H         1 <0>         0.1286
     45 H22         5.7959    6.1643   -0.0195 H         1 <0>         0.1286
     46 H23         3.6525    7.3708    0.0067 H         1 <0>         0.1304
     47 H24         1.5333    6.1238    0.0200 H         1 <0>         0.1299
     48 N2         -2.7364   -3.0837    0.8724 N.4       1 <0>        -0.3940
     49 H25        -1.9655   -3.5177    1.3935 H         1 <0>         0.4259
@<TRIPOS>BOND
     1    1    6 ar
     2    1    2 ar
     3    1   24 1
     4    2    3 ar
     5    2   25 1
     6    3    4 ar
     7    3   26 1
     8    4    5 ar
     9    4    7 1
    10    5    6 ar
    11    5   27 1
    12    6   28 1
    13    7   29 1
    14    7   30 1
    15    7   48 1
    16    8    9 1
    17    8   31 1
    18    8   32 1
    19    8   48 1
    20    9   10 1
    21    9   33 1
    22    9   34 1
    23   10   11 1
    24   10   13 1
    25   10   35 1
    26   11   12 1
    27   11   36 1
    28   11   37 1
    29   12   38 1
    30   12   39 1
    31   12   48 1
    32   13   14 am
    33   13   40 1
    34   14   15 2
    35   14   16 1
    36   16   17 2
    37   16   41 1
    38   17   18 1
    39   17   42 1
    40   18   23 ar
    41   18   19 ar
    42   19   20 ar
    43   19   43 1
    44   20   21 ar
    45   20   44 1
    46   21   22 ar
    47   21   45 1
    48   22   23 ar
    49   22   46 1
    50   23   47 1
    51   48   49 1
@<TRIPOS>MOLECULE
ZINC01640539
   54    58     0     0     0
SMALL
USER_CHARGES
8-(benzothiophen-3-ylmethyl)-3-methyl-1-phenyl-1,3,8-triazaspiro[4.5]decan-4-one
@<TRIPOS>ATOM
      1 C1          4.8033    5.2887    2.4855 C.3       1 <0>         0.0915
      2 N1          3.7169    5.0562    1.5306 N.am      1 <0>        -0.6138
      3 C2          3.0521    3.7669    1.3018 C.3       1 <0>         0.2399
      4 N2          2.3532    3.8878    0.0009 N.pl3     1 <0>        -0.4405
      5 C3          2.1010    5.3397   -0.1092 C.3       1 <0>         0.0528
      6 C4          3.1737    5.9941    0.7261 C.2       1 <0>         0.5255
      7 O1          3.4932    7.1632    0.6823 O.2       1 <0>        -0.5127
      8 C5          0.7176    5.6756    0.4412 C.3       1 <0>        -0.1630
      9 C6          0.4583    7.1759    0.2779 C.3       1 <0>        -0.0165
     10 C7          1.9072    7.2804   -1.6636 C.3       1 <0>        -0.0147
     11 C8          2.2145    5.7835   -1.5651 C.3       1 <0>        -0.1193
     12 C9          0.1704    8.9387   -1.3563 C.3       1 <0>         0.0630
     13 C10        -1.2927    9.1085   -1.0374 C.2       1 <0>        -0.1831
     14 C11        -2.2006    9.1464   -2.0232 C.2       1 <0>        -0.1094
     15 S1         -3.7460    9.3526   -1.1590 S.3       1 <0>         0.1055
     16 C12        -3.1283    9.3920    0.5037 C.ar      1 <0>        -0.1170
     17 C13        -1.7338    9.2391    0.3435 C.ar      1 <0>        -0.0960
     18 C14        -0.9570    9.2329    1.5259 C.ar      1 <0>        -0.1041
     19 C15        -1.5450    9.3689    2.7444 C.ar      1 <0>        -0.1040
     20 C16        -2.9190    9.5175    2.8748 C.ar      1 <0>        -0.0828
     21 C17        -3.7124    9.5286    1.7445 C.ar      1 <0>        -0.0649
     22 C18         1.1546    3.1707    0.0081 C.ar      1 <0>         0.0817
     23 C19         0.2688    3.2849   -1.0559 C.ar      1 <0>        -0.1416
     24 C20        -0.9152    2.5740   -1.0458 C.ar      1 <0>        -0.0944
     25 C21        -1.2220    1.7538    0.0244 C.ar      1 <0>        -0.1243
     26 C22        -0.3398    1.6335    1.0825 C.ar      1 <0>        -0.0844
     27 C23         0.8459    2.3414    1.0789 C.ar      1 <0>        -0.1597
     28 H1          5.1047    6.3354    2.4452 H         1 <0>         0.0920
     29 H2          4.4604    5.0479    3.4917 H         1 <0>         0.0744
     30 H3          5.6532    4.6558    2.2301 H         1 <0>         0.0762
     31 H4          2.3328    3.5699    2.0968 H         1 <0>         0.0836
     32 H5          3.7910    2.9668    1.2574 H         1 <0>         0.1155
     33 H6         -0.0384    5.1139   -0.1074 H         1 <0>         0.1186
     34 H7          0.6724    5.4115    1.4977 H         1 <0>         0.1123
     35 H8          1.1978    7.7368    0.8494 H         1 <0>         0.1364
     36 H9         -0.5405    7.4140    0.6437 H         1 <0>         0.1455
     37 H10         2.6367    7.8404   -1.0785 H         1 <0>         0.1534
     38 H11         1.9595    7.5943   -2.7061 H         1 <0>         0.1369
     39 H12         3.2261    5.5953   -1.9250 H         1 <0>         0.1239
     40 H13         1.5021    5.2251   -2.1723 H         1 <0>         0.1027
     41 H14         0.7612    9.5835   -0.7058 H         1 <0>         0.1381
     42 H15         0.3494    9.2100   -2.3967 H         1 <0>         0.1399
     43 H16        -2.0352    9.0685   -3.0877 H         1 <0>         0.2021
     44 H17         0.1150    9.1192    1.4599 H         1 <0>         0.1246
     45 H18        -0.9287    9.3608    3.6313 H         1 <0>         0.1356
     46 H19        -3.3643    9.6240    3.8530 H         1 <0>         0.1443
     47 H20        -4.7827    9.6431    1.8323 H         1 <0>         0.1411
     48 H21         0.5059    3.9285   -1.8901 H         1 <0>         0.1255
     49 H22        -1.6044    2.6623   -1.8727 H         1 <0>         0.1317
     50 H23        -2.1508    1.2027    0.0320 H         1 <0>         0.1307
     51 H24        -0.5806    0.9888    1.9149 H         1 <0>         0.1324
     52 H25         1.5323    2.2507    1.9078 H         1 <0>         0.1343
     53 N3          0.5387    7.5218   -1.1576 N.4       1 <0>        -0.3876
     54 H26        -0.1183    6.9303   -1.6797 H         1 <0>         0.4222
@<TRIPOS>BOND
     1    1    2 1
     2    1   28 1
     3    1   29 1
     4    1   30 1
     5    2    6 am
     6    2    3 1
     7    3    4 1
     8    3   31 1
     9    3   32 1
    10    4    5 1
    11    4   22 1
    12    5   11 1
    13    5    6 1
    14    5    8 1
    15    6    7 2
    16    8    9 1
    17    8   33 1
    18    8   34 1
    19    9   35 1
    20    9   36 1
    21    9   53 1
    22   10   11 1
    23   10   37 1
    24   10   38 1
    25   10   53 1
    26   11   39 1
    27   11   40 1
    28   12   13 1
    29   12   41 1
    30   12   42 1
    31   12   53 1
    32   13   17 1
    33   13   14 2
    34   14   15 1
    35   14   43 1
    36   15   16 1
    37   16   21 ar
    38   16   17 ar
    39   17   18 ar
    40   18   19 ar
    41   18   44 1
    42   19   20 ar
    43   19   45 1
    44   20   21 ar
    45   20   46 1
    46   21   47 1
    47   22   27 ar
    48   22   23 ar
    49   23   24 ar
    50   23   48 1
    51   24   25 ar
    52   24   49 1
    53   25   26 ar
    54   25   50 1
    55   26   27 ar
    56   26   51 1
    57   27   52 1
    58   53   54 1
@<TRIPOS>MOLECULE
ZINC23282651
   46    49     0     0     0
SMALL
USER_CHARGES
4-(4-bromophenyl)-1-(1H-indol-3-ylmethyl)piperidin-4-ol
@<TRIPOS>ATOM
      1 C1         -3.6682    0.3380    5.1309 C.ar      1 <0>        -0.1217
      2 C2         -3.8390    1.2807    6.1358 C.ar      1 <0>        -0.0924
      3 C3         -2.9642    2.3370    6.2643 C.ar      1 <0>        -0.1143
      4 C4         -1.8980    2.4628    5.3794 C.ar      1 <0>         0.0875
      5 C5         -1.7294    1.5050    4.3630 C.ar      1 <0>        -0.0993
      6 C6         -2.6283    0.4425    4.2509 C.ar      1 <0>        -0.0989
      7 C7         -0.5382    1.9140    3.6150 C.2       1 <0>        -0.2670
      8 C8         -0.0759    3.0331    4.1946 C.2       1 <0>         0.1342
      9 N1         -0.8789    3.3791    5.2472 N.pl3     1 <0>        -0.5926
     10 H1         -0.8113    4.2304    5.9405 H         1 <0>         0.4586
     11 C9          0.0589    1.2086    2.4247 C.3       1 <0>         0.0881
     12 N2         -0.6996    1.5592    1.2165 N.4       1 <0>        -0.3943
     13 C10        -0.0127    1.0858    0.0080 C.3       1 <0>        -0.0016
     14 C11        -0.7525    1.5926   -1.2322 C.3       1 <0>        -0.1336
     15 C12        -2.1941    1.0772   -1.2067 C.3       1 <0>         0.1848
     16 C13        -2.8718    1.5436    0.0848 C.3       1 <0>        -0.1679
     17 C14        -2.0706    1.0383    1.2868 C.3       1 <0>        -0.0076
     18 C15        -2.9443    1.6207   -2.3953 C.ar      1 <0>        -0.1101
     19 C16        -2.6041    2.8523   -2.9229 C.ar      1 <0>        -0.1100
     20 C17        -3.2887    3.3491   -4.0161 C.ar      1 <0>        -0.0848
     21 C18        -4.3214    2.6183   -4.5755 C.ar      1 <0>        -0.0834
     22 C19        -4.6649    1.3884   -4.0440 C.ar      1 <0>        -0.0828
     23 C20        -3.9763    0.8901   -2.9541 C.ar      1 <0>        -0.0997
     24 Br1        -5.2628    3.3004   -6.0670 Br        1 <0>        -0.0321
     25 O1         -2.1916   -0.3510   -1.2558 O.3       1 <0>        -0.5773
     26 H2         -4.3632   -0.4840    5.0438 H         1 <0>         0.1302
     27 H3         -4.6662    1.1850    6.8235 H         1 <0>         0.1342
     28 H4         -3.1058    3.0653    7.0491 H         1 <0>         0.1288
     29 H5         -2.5019   -0.2944    3.4715 H         1 <0>         0.1202
     30 H6          0.7989    3.5805    3.8760 H         1 <0>         0.1793
     31 H7          1.1071    1.5189    2.3025 H         1 <0>         0.1335
     32 H8          0.0145    0.1209    2.5828 H         1 <0>         0.1287
     33 H9          1.0193    1.4664   -0.0000 H         1 <0>         0.1318
     34 H10         0.0021   -0.0141    0.0017 H         1 <0>         0.1346
     35 H11        -0.7545    2.6926   -1.2340 H         1 <0>         0.1030
     36 H12        -0.2459    1.2254   -2.1369 H         1 <0>         0.1210
     37 H13        -2.9093    2.6428    0.1029 H         1 <0>         0.0957
     38 H14        -3.8946    1.1410    0.1283 H         1 <0>         0.1129
     39 H15        -2.0461   -0.0614    1.2745 H         1 <0>         0.1283
     40 H16        -2.5470    1.3840    2.2160 H         1 <0>         0.1398
     41 H17        -1.8005    3.4246   -2.4835 H         1 <0>         0.1321
     42 H18        -3.0200    4.3093   -4.4310 H         1 <0>         0.1386
     43 H19        -5.4709    0.8174   -4.4807 H         1 <0>         0.1394
     44 H20        -4.2442   -0.0704   -2.5392 H         1 <0>         0.1316
     45 H21        -3.1428   -0.9033   -1.2463 H         1 <0>         0.4209
     46 H22        -0.7603    2.6560    1.1594 H         1 <0>         0.4336
@<TRIPOS>BOND
     1    1    6 ar
     2    1    2 ar
     3    1   26 1
     4    2    3 ar
     5    2   27 1
     6    3    4 ar
     7    3   28 1
     8    4    9 1
     9    4    5 ar
    10    5    6 ar
    11    5    7 1
    12    6   29 1
    13    7    8 2
    14    7   11 1
    15    8    9 1
    16    8   30 1
    17    9   10 1
    18   11   12 1
    19   11   31 1
    20   11   32 1
    21   12   17 1
    22   12   13 1
    23   12   46 1
    24   13   14 1
    25   13   33 1
    26   13   34 1
    27   14   15 1
    28   14   35 1
    29   14   36 1
    30   15   16 1
    31   15   18 1
    32   15   25 1
    33   16   17 1
    34   16   37 1
    35   16   38 1
    36   17   39 1
    37   17   40 1
    38   18   23 ar
    39   18   19 ar
    40   19   20 ar
    41   19   41 1
    42   20   21 ar
    43   20   42 1
    44   21   22 ar
    45   21   24 1
    46   22   23 ar
    47   22   43 1
    48   23   44 1
    49   25   45 1
@<TRIPOS>MOLECULE
ZINC05832987
   45    46     0     0     0
SMALL
USER_CHARGES
6-dipropylaminotetralin-1,2-diol
@<TRIPOS>ATOM
      1 C1          4.0838    6.1486    0.2579 C.3       1 <0>        -0.1561
      2 C2          2.6904    5.5655    0.0144 C.3       1 <0>        -0.1487
      3 C3          2.7901    4.0445   -0.1183 C.3       1 <0>        -0.0174
      4 C4          0.8291    3.7966   -1.5167 C.3       1 <0>        -0.0132
      5 C5          1.5485    3.0281   -2.6270 C.3       1 <0>        -0.1475
      6 C6          1.0032    3.4676   -3.9873 C.3       1 <0>        -0.1559
      7 C7          1.4665    2.0205    0.0004 C.3       1 <0>         0.0259
      8 H1          2.0682    1.5414   -0.7718 H         1 <0>         0.1445
      9 C8          0.0373    1.4667   -0.0408 C.3       1 <0>        -0.1393
     10 C9          0.1120   -0.0588   -0.0496 C.3       1 <0>        -0.0726
     11 C10         0.9935   -0.5526    1.0676 C.ar      1 <0>        -0.0931
     12 C11         1.8938    0.2626    1.7174 C.ar      1 <0>        -0.0866
     13 C12         2.6841   -0.2556    2.7351 C.ar      1 <0>        -0.1013
     14 C13         2.5748   -1.5798    3.1076 C.ar      1 <0>        -0.1245
     15 C14         1.6679   -2.4036    2.4612 C.ar      1 <0>         0.0981
     16 C15         0.8781   -1.8882    1.4413 C.ar      1 <0>         0.0855
     17 O1         -0.0129   -2.6939    0.8037 O.3       1 <0>        -0.4823
     18 O2          1.5511   -3.7093    2.8234 O.3       1 <0>        -0.4841
     19 C16         2.0600    1.7204    1.3753 C.3       1 <0>        -0.0917
     20 H2          4.0128    7.2322    0.3524 H         1 <0>         0.0774
     21 H3          4.4975    5.7302    1.1754 H         1 <0>         0.0668
     22 H4          4.7338    5.8989   -0.5807 H         1 <0>         0.0668
     23 H5          2.2766    5.9839   -0.9031 H         1 <0>         0.0857
     24 H6          2.0404    5.8152    0.8530 H         1 <0>         0.0847
     25 H7          3.2923    3.6355    0.7584 H         1 <0>         0.1312
     26 H8          3.3600    3.7945   -1.0131 H         1 <0>         0.1325
     27 H9         -0.2235    3.5139   -1.5024 H         1 <0>         0.1303
     28 H10         0.9152    4.8674   -1.7014 H         1 <0>         0.1313
     29 H11         2.6173    3.2367   -2.5795 H         1 <0>         0.0836
     30 H12         1.3807    1.9591   -2.4965 H         1 <0>         0.0861
     31 H13         1.5157    2.9201   -4.7783 H         1 <0>         0.0768
     32 H14        -0.0656    3.2591   -4.0349 H         1 <0>         0.0674
     33 H15         1.1710    4.5366   -4.1179 H         1 <0>         0.0665
     34 H16        -0.4655    1.8149   -0.9430 H         1 <0>         0.0950
     35 H17        -0.5119    1.8023    0.8389 H         1 <0>         0.0932
     36 H18        -0.8903   -0.4684    0.0755 H         1 <0>         0.1038
     37 H19         0.5197   -0.3931   -1.0036 H         1 <0>         0.0867
     38 H20         3.3924    0.3846    3.2400 H         1 <0>         0.1339
     39 H21         3.1940   -1.9725    3.9007 H         1 <0>         0.1418
     40 H22         0.3494   -3.1455    0.0292 H         1 <0>         0.3916
     41 H23         2.1368   -4.3061    2.3377 H         1 <0>         0.3954
     42 H24         1.5521    2.3259    2.1260 H         1 <0>         0.0977
     43 H25         3.1210    1.9699    1.3710 H         1 <0>         0.1003
     44 N1          1.4248    3.4843   -0.2006 N.4       1 <0>        -0.3928
     45 H26         0.8464    3.9057    0.5357 H         1 <0>         0.4265
@<TRIPOS>BOND
     1    1    2 1
     2    1   20 1
     3    1   21 1
     4    1   22 1
     5    2    3 1
     6    2   23 1
     7    2   24 1
     8    3   25 1
     9    3   26 1
    10    3   44 1
    11    4    5 1
    12    4   27 1
    13    4   28 1
    14    4   44 1
    15    5    6 1
    16    5   29 1
    17    5   30 1
    18    6   31 1
    19    6   32 1
    20    6   33 1
    21    7    8 1
    22    7   19 1
    23    7    9 1
    24    7   44 1
    25    9   10 1
    26    9   34 1
    27    9   35 1
    28   10   11 1
    29   10   36 1
    30   10   37 1
    31   11   16 ar
    32   11   12 ar
    33   12   13 ar
    34   12   19 1
    35   13   14 ar
    36   13   38 1
    37   14   15 ar
    38   14   39 1
    39   15   16 ar
    40   15   18 1
    41   16   17 1
    42   17   40 1
    43   18   41 1
    44   19   42 1
    45   19   43 1
    46   44   45 1
@<TRIPOS>MOLECULE
ZINC05833076
   45    46     0     0     0
SMALL
USER_CHARGES
6-dipropylaminotetralin-1,2-diol
@<TRIPOS>ATOM
      1 C1         -0.1778    6.7385   -1.2871 C.3       1 <0>        -0.1561
      2 C2          0.7374    5.9534   -0.3453 C.3       1 <0>        -0.1504
      3 C3          0.6496    4.4619   -0.6748 C.3       1 <0>        -0.0141
      4 C4          1.0503    3.7883    1.6161 C.3       1 <0>        -0.0141
      5 C5          2.1955    3.4456    2.5710 C.3       1 <0>        -0.1499
      6 C6          1.7348    3.6532    4.0152 C.3       1 <0>        -0.1558
      7 C7          1.6549    2.3101   -0.2037 C.3       1 <0>         0.0261
      8 H1          2.1625    1.7308    0.5675 H         1 <0>         0.1420
      9 C8          0.2628    1.7208   -0.4599 C.3       1 <0>        -0.1333
     10 C9          0.4086    0.2153   -0.6716 C.3       1 <0>        -0.0702
     11 C10         1.4632   -0.0744   -1.7074 C.ar      1 <0>        -0.0927
     12 C11         2.4072    0.8552   -2.0847 C.ar      1 <0>        -0.0865
     13 C12         3.3585    0.5236   -3.0407 C.ar      1 <0>        -0.1009
     14 C13         3.3670   -0.7278   -3.6222 C.ar      1 <0>        -0.1247
     15 C14         2.4176   -1.6656   -3.2504 C.ar      1 <0>         0.0985
     16 C15         1.4667   -1.3372   -2.2924 C.ar      1 <0>         0.0851
     17 O1          0.5337   -2.2554   -1.9237 O.3       1 <0>        -0.4820
     18 O2          2.4163   -2.9004   -3.8201 O.3       1 <0>        -0.4843
     19 C16         2.4526    2.2448   -1.5044 C.3       1 <0>        -0.0930
     20 H2         -0.1153    7.8011   -1.0523 H         1 <0>         0.0775
     21 H3          0.1357    6.5751   -2.3182 H         1 <0>         0.0669
     22 H4         -1.2058    6.3986   -1.1617 H         1 <0>         0.0667
     23 H5          0.4239    6.1167    0.6858 H         1 <0>         0.0858
     24 H6          1.7654    6.2933   -0.4707 H         1 <0>         0.0856
     25 H7          0.9631    4.2985   -1.7059 H         1 <0>         0.1296
     26 H8         -0.3784    4.1220   -0.5494 H         1 <0>         0.1325
     27 H9          0.6967    4.7989    1.8207 H         1 <0>         0.1328
     28 H10         0.2332    3.0814    1.7602 H         1 <0>         0.1317
     29 H11         2.4880    2.4053    2.4290 H         1 <0>         0.0850
     30 H12         3.0471    4.0940    2.3645 H         1 <0>         0.0849
     31 H13         2.5507    3.4091    4.6955 H         1 <0>         0.0774
     32 H14         1.4423    4.6936    4.1572 H         1 <0>         0.0668
     33 H15         0.8833    3.0049    4.2217 H         1 <0>         0.0671
     34 H16        -0.1707    2.1765   -1.3501 H         1 <0>         0.0924
     35 H17        -0.3799    1.9101    0.4000 H         1 <0>         0.0917
     36 H18         0.6914   -0.2544    0.2704 H         1 <0>         0.0919
     37 H19        -0.5448   -0.1947   -1.0050 H         1 <0>         0.0965
     38 H20         4.1001    1.2528   -3.3316 H         1 <0>         0.1342
     39 H21         4.1109   -0.9750   -4.3650 H         1 <0>         0.1418
     40 H22        -0.2754   -2.2280   -2.4525 H         1 <0>         0.3912
     41 H23         1.8772   -2.9638   -4.6204 H         1 <0>         0.3956
     42 H24         3.4889    2.5171   -1.3044 H         1 <0>         0.1005
     43 H25         2.0289    2.9478   -2.2216 H         1 <0>         0.0975
     44 N1          1.5544    3.7200    0.2284 N.4       1 <0>        -0.3932
     45 H26         2.4871    4.1476    0.1910 H         1 <0>         0.4261
@<TRIPOS>BOND
     1    1    2 1
     2    1   20 1
     3    1   21 1
     4    1   22 1
     5    2    3 1
     6    2   23 1
     7    2   24 1
     8    3   25 1
     9    3   26 1
    10    3   44 1
    11    4    5 1
    12    4   27 1
    13    4   28 1
    14    4   44 1
    15    5    6 1
    16    5   29 1
    17    5   30 1
    18    6   31 1
    19    6   32 1
    20    6   33 1
    21    7    8 1
    22    7   19 1
    23    7    9 1
    24    7   44 1
    25    9   10 1
    26    9   34 1
    27    9   35 1
    28   10   11 1
    29   10   36 1
    30   10   37 1
    31   11   16 ar
    32   11   12 ar
    33   12   13 ar
    34   12   19 1
    35   13   14 ar
    36   13   38 1
    37   14   15 ar
    38   14   39 1
    39   15   16 ar
    40   15   18 1
    41   16   17 1
    42   17   40 1
    43   18   41 1
    44   19   42 1
    45   19   43 1
    46   44   45 1
@<TRIPOS>MOLECULE
ZINC01530688
   45    48     0     0     0
SMALL
USER_CHARGES

@<TRIPOS>ATOM
      1 C1         -4.7096    1.3430    2.2454 C.3       1 <0>        -0.0476
      2 N1         -4.6828   -0.1254    2.2123 N.4       1 <0>        -0.5103
      3 C2         -3.7697   -0.5747    1.1528 C.3       1 <0>        -0.0122
      4 C3         -3.7417   -2.1040    1.1183 C.3       1 <0>        -0.1635
      5 C4         -2.7907   -2.5720    0.0149 C.3       1 <0>        -0.0969
      6 C5         -2.6597   -4.0954    0.0667 C.3       1 <0>         0.0263
      7 C6         -4.0215   -4.8232    0.0106 C.3       1 <0>        -0.1040
      8 C7         -3.8423   -6.3391    0.0533 C.3       1 <0>        -0.1129
      9 C8         -2.3488   -6.7253    0.1407 C.3       1 <0>        -0.0103
     10 C9         -1.6882   -6.0486   -1.0501 C.ar      1 <0>        -0.0804
     11 C10        -1.8517   -4.6645   -1.0890 C.ar      1 <0>        -0.0813
     12 C11        -1.3264   -3.9281   -2.1114 C.ar      1 <0>        -0.1094
     13 C12        -0.6062   -4.5800   -3.1047 C.ar      1 <0>        -0.1189
     14 C13        -0.4268   -5.9496   -3.0553 C.ar      1 <0>        -0.1139
     15 C14        -0.9845   -6.6958   -2.0246 C.ar      1 <0>        -0.1023
     16 C15        -1.8144   -5.9955    1.3627 C.ar      1 <0>        -0.0777
     17 C16        -1.9635   -4.5918    1.3239 C.ar      1 <0>        -0.0757
     18 C17        -1.5329   -3.7937    2.3445 C.ar      1 <0>        -0.1206
     19 C18        -0.9095   -4.3826    3.4374 C.ar      1 <0>        -0.1235
     20 C19        -0.7301   -5.7522    3.4874 C.ar      1 <0>        -0.1148
     21 C20        -1.2169   -6.5979    2.4324 C.ar      1 <0>        -0.1003
     22 H1         -5.3871    1.6763    3.0315 H         1 <0>         0.1266
     23 H2         -3.7068    1.7202    2.4459 H         1 <0>         0.1236
     24 H3         -5.0547    1.7219    1.2835 H         1 <0>         0.1237
     25 H4         -4.3633   -0.4762    3.1027 H         1 <0>         0.4303
     26 H5         -4.1148   -0.1957    0.1909 H         1 <0>         0.1331
     27 H6         -2.7669   -0.1974    1.3534 H         1 <0>         0.1321
     28 H7         -3.3966   -2.4829    2.0803 H         1 <0>         0.0978
     29 H8         -4.7445   -2.4813    0.9178 H         1 <0>         0.0924
     30 H9         -3.1863   -2.2741   -0.9562 H         1 <0>         0.0849
     31 H10        -1.8110   -2.1178    0.1629 H         1 <0>         0.0828
     32 H11        -4.6281   -4.5114    0.8609 H         1 <0>         0.0659
     33 H12        -4.5344   -4.5501   -0.9116 H         1 <0>         0.0712
     34 H13        -4.3652   -6.7360    0.9235 H         1 <0>         0.0720
     35 H14        -4.2715   -6.7748   -0.8490 H         1 <0>         0.0737
     36 H15        -2.1865   -7.8028    0.1645 H         1 <0>         0.1072
     37 H16        -1.4684   -2.8581   -2.1478 H         1 <0>         0.1223
     38 H17        -0.1840   -4.0128   -3.9210 H         1 <0>         0.1245
     39 H18         0.1348   -6.4454   -3.8333 H         1 <0>         0.1261
     40 H19        -0.8596   -7.7681   -1.9924 H         1 <0>         0.1279
     41 H20        -1.6741   -2.7238    2.3027 H         1 <0>         0.1202
     42 H21        -0.5623   -3.7660    4.2534 H         1 <0>         0.1230
     43 H22        -0.2442   -6.1987    4.3423 H         1 <0>         0.1258
     44 H23        -1.0918   -7.6703    2.4602 H         1 <0>         0.1327
     45 H24        -5.6110   -0.4746    2.0266 H         1 <0>         0.4305
@<TRIPOS>BOND
     1    1    2 1
     2    1   22 1
     3    1   23 1
     4    1   24 1
     5    2    3 1
     6    2   25 1
     7    2   45 1
     8    3    4 1
     9    3   26 1
    10    3   27 1
    11    4    5 1
    12    4   28 1
    13    4   29 1
    14    5    6 1
    15    5   30 1
    16    5   31 1
    17    6   11 1
    18    6   17 1
    19    6    7 1
    20    7    8 1
    21    7   32 1
    22    7   33 1
    23    8    9 1
    24    8   34 1
    25    8   35 1
    26    9   10 1
    27    9   16 1
    28    9   36 1
    29   10   15 ar
    30   10   11 ar
    31   11   12 ar
    32   12   13 ar
    33   12   37 1
    34   13   14 ar
    35   13   38 1
    36   14   15 ar
    37   14   39 1
    38   15   40 1
    39   16   21 ar
    40   16   17 ar
    41   17   18 ar
    42   18   19 ar
    43   18   41 1
    44   19   20 ar
    45   19   42 1
    46   20   21 ar
    47   20   43 1
    48   21   44 1
@<TRIPOS>MOLECULE
ZINC56965850
   56    59     0     0     0
SMALL
USER_CHARGES

@<TRIPOS>ATOM
      1 C1         -0.0173    1.4248    0.0099 C.3       1 <0>         0.0251
      2 O1          0.0021   -0.0041    0.0020 O.3       1 <0>        -0.3038
      3 C2         -1.2013   -0.6380    0.0101 C.ar      1 <0>         0.1201
      4 C3         -2.3740    0.0989    0.0195 C.ar      1 <0>        -0.2065
      5 C4         -3.5967   -0.5469    0.0283 C.ar      1 <0>        -0.0833
      6 C5         -3.6532   -1.9283    0.0271 C.ar      1 <0>        -0.1524
      7 C6         -2.4875   -2.6710    0.0173 C.ar      1 <0>        -0.0880
      8 C7         -1.2572   -2.0300    0.0032 C.ar      1 <0>         0.1385
      9 N1         -0.0754   -2.7797   -0.0127 N.pl3     1 <0>        -0.6683
     10 C8          0.5713   -3.1961    1.2410 C.3       1 <0>         0.1532
     11 C9          0.8354   -4.7041    1.1750 C.3       1 <0>         0.0428
     12 N2          1.5913   -5.0126   -0.0462 N.3       1 <0>        -0.5298
     13 C10         0.8175   -4.6811   -1.2500 C.3       1 <0>         0.0354
     14 C11         0.5494   -3.1773   -1.2834 C.3       1 <0>         0.1531
     15 C12         2.0135   -6.4196   -0.0626 C.3       1 <0>         0.0450
     16 C13         2.9994   -6.6428   -1.2111 C.3       1 <0>         0.1217
     17 N3          3.4204   -8.0459   -1.2276 N.am      1 <0>        -0.7270
     18 C14         4.2932   -8.4767   -2.1598 C.2       1 <0>         0.5607
     19 O2          4.7311   -7.7010   -2.9870 O.2       1 <0>        -0.5331
     20 C15         4.7179   -9.8920   -2.1764 C.ar      1 <0>        -0.1389
     21 C16         4.2035  -10.7862   -1.2203 C.ar      1 <0>        -0.0930
     22 C17         4.5782  -12.0907   -1.2150 C.ar      1 <0>        -0.1082
     23 C18         5.4927  -12.5644   -2.1737 C.ar      1 <0>        -0.0338
     24 C19         5.8953  -13.9102   -2.1881 C.ar      1 <0>        -0.1133
     25 C20         6.7814  -14.3396   -3.1282 C.ar      1 <0>        -0.1033
     26 C21         7.2988  -13.4634   -4.0805 C.ar      1 <0>        -0.1183
     27 C22         6.9324  -12.1529   -4.0981 C.ar      1 <0>        -0.0954
     28 C23         6.0185  -11.6727   -3.1428 C.ar      1 <0>        -0.0640
     29 C24         5.6150  -10.3291   -3.1366 C.ar      1 <0>        -0.0299
     30 H1          1.0053    1.8021    0.0021 H         1 <0>         0.0994
     31 H2         -0.5445    1.7859   -0.8732 H         1 <0>         0.0538
     32 H3         -0.5275    1.7763    0.9067 H         1 <0>         0.0537
     33 H4         -2.3335    1.1781    0.0204 H         1 <0>         0.1277
     34 H5         -4.5101    0.0293    0.0363 H         1 <0>         0.1245
     35 H6         -4.6104   -2.4284    0.0343 H         1 <0>         0.1238
     36 H7         -2.5344   -3.7500    0.0168 H         1 <0>         0.1250
     37 H8          1.5150   -2.6639    1.3604 H         1 <0>         0.0593
     38 H9         -0.0855   -2.9758    2.0825 H         1 <0>         0.0705
     39 H10         1.4125   -5.0108    2.0473 H         1 <0>         0.0812
     40 H11        -0.1140   -5.2393    1.1600 H         1 <0>         0.0363
     41 H12         1.3817   -4.9710   -2.1364 H         1 <0>         0.0843
     42 H13        -0.1317   -5.2166   -1.2312 H         1 <0>         0.0364
     43 H14        -0.1219   -2.9447   -2.1101 H         1 <0>         0.0703
     44 H15         1.4910   -2.6433   -1.4113 H         1 <0>         0.0593
     45 H16         2.4960   -6.6652    0.8834 H         1 <0>         0.0821
     46 H17         1.1418   -7.0588   -0.2026 H         1 <0>         0.0399
     47 H18         2.5169   -6.3971   -2.1571 H         1 <0>         0.0703
     48 H19         3.8711   -6.0035   -1.0711 H         1 <0>         0.0802
     49 H20         3.0710   -8.6649   -0.5675 H         1 <0>         0.3994
     50 H21         3.5016  -10.4302   -0.4807 H         1 <0>         0.1250
     51 H22         4.1745  -12.7653   -0.4744 H         1 <0>         0.1335
     52 H23         5.5038  -14.6013   -1.4563 H         1 <0>         0.1303
     53 H24         7.0884  -15.3750   -3.1360 H         1 <0>         0.1265
     54 H25         8.0009  -13.8296   -4.8149 H         1 <0>         0.1272
     55 H26         7.3415  -11.4849   -4.8416 H         1 <0>         0.1319
     56 H27         6.0043   -9.6402   -3.8717 H         1 <0>         0.1431
@<TRIPOS>BOND
     1    1    2 1
     2    1   30 1
     3    1   31 1
     4    1   32 1
     5    2    3 1
     6    3    8 ar
     7    3    4 ar
     8    4    5 ar
     9    4   33 1
    10    5    6 ar
    11    5   34 1
    12    6    7 ar
    13    6   35 1
    14    7    8 ar
    15    7   36 1
    16    8    9 1
    17    9   14 1
    18    9   10 1
    19   10   11 1
    20   10   37 1
    21   10   38 1
    22   11   12 1
    23   11   39 1
    24   11   40 1
    25   12   13 1
    26   12   15 1
    27   13   14 1
    28   13   41 1
    29   13   42 1
    30   14   43 1
    31   14   44 1
    32   15   16 1
    33   15   45 1
    34   15   46 1
    35   16   17 1
    36   16   47 1
    37   16   48 1
    38   17   18 am
    39   17   49 1
    40   18   19 2
    41   18   20 1
    42   20   29 ar
    43   20   21 ar
    44   21   22 ar
    45   21   50 1
    46   22   23 ar
    47   22   51 1
    48   23   28 ar
    49   23   24 ar
    50   24   25 ar
    51   24   52 1
    52   25   26 ar
    53   25   53 1
    54   26   27 ar
    55   26   54 1
    56   27   28 ar
    57   27   55 1
    58   28   29 ar
    59   29   56 1
@<TRIPOS>MOLECULE
ZINC00007275
   54    55     0     0     0
SMALL
USER_CHARGES

@<TRIPOS>ATOM
      1 C1         -0.0184    1.5028    0.0103 C.3       1 <0>        -0.1254
      2 C2          0.0021   -0.0041    0.0020 C.ar      1 <0>        -0.0948
      3 C3          0.0057   -0.6888   -1.1991 C.ar      1 <0>        -0.0651
      4 C4          0.0245   -2.0707   -1.2067 C.ar      1 <0>        -0.1388
      5 C5          0.0400   -2.7685   -0.0132 C.ar      1 <0>        -0.0439
      6 C6          0.0373   -2.0840    1.1875 C.ar      1 <0>        -0.6797
      7 C7          0.0229   -0.7015    1.1951 C.ar      1 <0>        -0.0214
      8 S1          0.0566   -2.9732    2.7086 S.o2      1 <0>         2.6793
      9 O1         -0.5005   -2.1103    3.6906 O.2       1 <0>        -0.9372
     10 O2         -0.4791   -4.2603    2.4334 O.2       1 <0>        -0.9424
     11 N1          1.6437   -3.1998    3.1232 N.pl3     1 <0>        -1.0026
     12 C8          2.3349   -2.2048    3.9470 C.3       1 <0>         0.0839
     13 C9          2.3567   -4.3952    2.6662 C.3       1 <0>         0.1495
     14 H1          1.6849   -5.0135    2.0707 H         1 <0>         0.1127
     15 C10         2.8442   -5.1926    3.8776 C.3       1 <0>        -0.1638
     16 C11         3.5567   -3.9785    1.8134 C.3       1 <0>        -0.1626
     17 C12         3.0626   -3.2902    0.5395 C.3       1 <0>        -0.0272
     18 N2          4.2148   -2.8901   -0.2793 N.4       1 <0>        -0.3789
     19 C13         4.9969   -1.8780    0.4407 C.3       1 <0>        -0.0126
     20 C14         6.2421   -1.5169   -0.3720 C.3       1 <0>        -0.1419
     21 C15         5.8132   -0.9601   -1.7327 C.3       1 <0>        -0.1038
     22 C16         4.9363   -1.9951   -2.4433 C.3       1 <0>        -0.1418
     23 C17         3.7395   -2.3385   -1.5538 C.3       1 <0>        -0.0087
     24 C18         7.0532   -0.6711   -2.5811 C.3       1 <0>        -0.1539
     25 H2          1.0042    1.8801    0.0026 H         1 <0>         0.0761
     26 H3         -0.5455    1.8639   -0.8728 H         1 <0>         0.0759
     27 H4         -0.5286    1.8543    0.9071 H         1 <0>         0.0768
     28 H5         -0.0064   -0.1437   -2.1314 H         1 <0>         0.1355
     29 H6          0.0266   -2.6056   -2.1449 H         1 <0>         0.1368
     30 H7          0.0540   -3.8484   -0.0191 H         1 <0>         0.1406
     31 H8          0.0246   -0.1666    2.1333 H         1 <0>         0.1430
     32 H9          2.2132   -2.4575    5.0003 H         1 <0>         0.0727
     33 H10         3.3954   -2.1980    3.6951 H         1 <0>         0.0735
     34 H11         1.9103   -1.2188    3.7584 H         1 <0>         0.0772
     35 H12         1.9893   -5.4895    4.4851 H         1 <0>         0.0751
     36 H13         3.3746   -6.0820    3.5375 H         1 <0>         0.0762
     37 H14         3.5159   -4.5744    4.4731 H         1 <0>         0.0683
     38 H15         4.1828   -3.2889    2.3796 H         1 <0>         0.0983
     39 H16         4.1375   -4.8617    1.5473 H         1 <0>         0.1056
     40 H17         2.4365   -3.9798   -0.0267 H         1 <0>         0.1332
     41 H18         2.4818   -2.4070    0.8056 H         1 <0>         0.1297
     42 H19         4.3882   -0.9858    0.5876 H         1 <0>         0.1268
     43 H20         5.2987   -2.2745    1.4101 H         1 <0>         0.1320
     44 H21         6.8206   -0.7640    0.1634 H         1 <0>         0.1124
     45 H22         6.8518   -2.4083   -0.5194 H         1 <0>         0.0892
     46 H23         5.2467   -0.0402   -1.5879 H         1 <0>         0.0873
     47 H24         4.5814   -1.5841   -3.3884 H         1 <0>         0.1124
     48 H25         5.5189   -2.8965   -2.6336 H         1 <0>         0.0893
     49 H26         3.1130   -3.0751   -2.0568 H         1 <0>         0.1305
     50 H27         3.1576   -1.4365   -1.3644 H         1 <0>         0.1265
     51 H28         7.6162   -1.5928   -2.7275 H         1 <0>         0.0624
     52 H29         6.7467   -0.2749   -3.5492 H         1 <0>         0.0673
     53 H30         7.6800    0.0604   -2.0711 H         1 <0>         0.0675
     54 H31         4.7950   -3.6960   -0.4582 H         1 <0>         0.4230
@<TRIPOS>BOND
     1    1    2 1
     2    1   25 1
     3    1   26 1
     4    1   27 1
     5    2    7 ar
     6    2    3 ar
     7    3    4 ar
     8    3   28 1
     9    4    5 ar
    10    4   29 1
    11    5    6 ar
    12    5   30 1
    13    6    7 ar
    14    6    8 1
    15    7   31 1
    16    8    9 2
    17    8   10 2
    18    8   11 1
    19   11   12 1
    20   11   13 1
    21   12   32 1
    22   12   33 1
    23   12   34 1
    24   13   14 1
    25   13   15 1
    26   13   16 1
    27   15   35 1
    28   15   36 1
    29   15   37 1
    30   16   17 1
    31   16   38 1
    32   16   39 1
    33   17   18 1
    34   17   40 1
    35   17   41 1
    36   18   23 1
    37   18   19 1
    38   18   54 1
    39   19   20 1
    40   19   42 1
    41   19   43 1
    42   20   21 1
    43   20   44 1
    44   20   45 1
    45   21   22 1
    46   21   24 1
    47   21   46 1
    48   22   23 1
    49   22   47 1
    50   22   48 1
    51   23   49 1
    52   23   50 1
    53   24   51 1
    54   24   52 1
    55   24   53 1
@<TRIPOS>MOLECULE
ZINC02022527
   54    55     0     0     0
SMALL
USER_CHARGES

@<TRIPOS>ATOM
      1 C1         -3.0730    2.2881   -4.2693 C.3       1 <0>        -0.1569
      2 C2         -2.3049    1.5870   -3.1471 C.3       1 <0>        -0.1270
      3 C3         -2.8110    2.0874   -1.7927 C.3       1 <0>        -0.1231
      4 C4         -2.0429    1.3862   -0.6705 C.3       1 <0>        -0.1174
      5 C5         -2.5490    1.8867    0.6839 C.3       1 <0>        -0.1006
      6 C6         -2.2117    3.3722    0.8391 C.3       1 <0>        -0.1451
      7 C7         -2.6658    3.8518    2.2196 C.3       1 <0>        -0.0114
      8 C8         -2.3347    1.6429    3.1595 C.3       1 <0>        -0.0001
      9 C9         -1.8707    1.0973    1.8070 C.3       1 <0>        -0.1442
     10 C10        -2.2939    3.5901    4.5974 C.3       1 <0>        -0.0052
     11 C11        -2.1583    5.1140    4.5919 C.3       1 <0>        -0.1459
     12 C12        -2.4764    5.6593    5.9856 C.3       1 <0>        -0.1543
     13 C13        -2.3428    7.1604    5.9803 C.2       1 <0>         0.3987
     14 O1         -2.0245    7.7371    4.9623 O.2       1 <0>        -0.4456
     15 C14        -2.5986    7.9263    7.2106 C.ar      1 <0>        -0.1885
     16 C15        -3.0878    7.2813    8.3513 C.ar      1 <0>        -0.0705
     17 C16        -3.3195    8.0047    9.5018 C.ar      1 <0>        -0.1389
     18 C17        -3.0801    9.3679    9.5265 C.ar      1 <0>        -0.0729
     19 C18        -2.6016   10.0143    8.4004 C.ar      1 <0>        -0.1345
     20 C19        -2.3594    9.3036    7.2436 C.ar      1 <0>        -0.0178
     21 C20        -1.8387   10.0095    6.0182 C.3       1 <0>        -0.1264
     22 H1         -4.1363    2.0676   -4.1746 H         1 <0>         0.0549
     23 H2         -2.9175    3.3647   -4.1985 H         1 <0>         0.0540
     24 H3         -2.7125    1.9316   -5.2342 H         1 <0>         0.0581
     25 H4         -1.2417    1.8075   -3.2417 H         1 <0>         0.0621
     26 H5         -2.4605    0.5104   -3.2179 H         1 <0>         0.0631
     27 H6         -3.8743    1.8669   -1.6981 H         1 <0>         0.0644
     28 H7         -2.6555    3.1639   -1.7219 H         1 <0>         0.0632
     29 H8         -2.1984    0.3097   -0.7413 H         1 <0>         0.0733
     30 H9         -0.9796    1.6067   -0.7651 H         1 <0>         0.0688
     31 H10        -3.6287    1.7492    0.7427 H         1 <0>         0.0884
     32 H11        -1.1354    3.5132    0.7407 H         1 <0>         0.0881
     33 H12        -2.7264    3.9447    0.0675 H         1 <0>         0.1133
     34 H13        -3.7442    3.7233    2.3122 H         1 <0>         0.1295
     35 H14        -2.4142    4.9057    2.3388 H         1 <0>         0.1342
     36 H15        -3.4146    1.5248    3.2476 H         1 <0>         0.1293
     37 H16        -1.8426    1.0924    3.9613 H         1 <0>         0.1282
     38 H17        -2.1418    0.0446    1.7270 H         1 <0>         0.1118
     39 H18        -0.7890    1.2025    1.7239 H         1 <0>         0.0880
     40 H19        -3.3133    3.3170    4.8704 H         1 <0>         0.1315
     41 H20        -1.5979    3.1659    5.3211 H         1 <0>         0.1302
     42 H21        -1.1389    5.3871    4.3190 H         1 <0>         0.0944
     43 H22        -2.8542    5.5382    3.8682 H         1 <0>         0.0968
     44 H23        -3.4115    5.4088    6.2361 H         1 <0>         0.0981
     45 H24        -1.7805    5.2352    6.7093 H         1 <0>         0.1100
     46 H25        -3.2793    6.2186    8.3321 H         1 <0>         0.1290
     47 H26        -3.6933    7.5074   10.3846 H         1 <0>         0.1322
     48 H27        -3.2682    9.9300   10.4293 H         1 <0>         0.1326
     49 H28        -2.4176   11.0782    8.4274 H         1 <0>         0.1332
     50 H29        -2.6709   10.2515    5.3572 H         1 <0>         0.0784
     51 H30        -1.3321   10.9277    6.3156 H         1 <0>         0.0652
     52 H31        -1.1365    9.3600    5.4956 H         1 <0>         0.0893
     53 N1         -1.9588    3.0696    3.2558 N.4       1 <0>        -0.3931
     54 H32        -0.9467    3.1581    3.1071 H         1 <0>         0.4272
@<TRIPOS>BOND
     1    1    2 1
     2    1   22 1
     3    1   23 1
     4    1   24 1
     5    2    3 1
     6    2   25 1
     7    2   26 1
     8    3    4 1
     9    3   27 1
    10    3   28 1
    11    4    5 1
    12    4   29 1
    13    4   30 1
    14    5    9 1
    15    5    6 1
    16    5   31 1
    17    6    7 1
    18    6   32 1
    19    6   33 1
    20    7   34 1
    21    7   35 1
    22    7   53 1
    23    8    9 1
    24    8   36 1
    25    8   37 1
    26    8   53 1
    27    9   38 1
    28    9   39 1
    29   10   11 1
    30   10   40 1
    31   10   41 1
    32   10   53 1
    33   11   12 1
    34   11   42 1
    35   11   43 1
    36   12   13 1
    37   12   44 1
    38   12   45 1
    39   13   14 2
    40   13   15 1
    41   15   20 ar
    42   15   16 ar
    43   16   17 ar
    44   16   46 1
    45   17   18 ar
    46   17   47 1
    47   18   19 ar
    48   18   48 1
    49   19   20 ar
    50   19   49 1
    51   20   21 1
    52   21   50 1
    53   21   51 1
    54   21   52 1
    55   53   54 1
@<TRIPOS>MOLECULE
ZINC01481744
   59    63     0     0     0
SMALL
USER_CHARGES
tert-butylBLAHol
@<TRIPOS>ATOM
      1 C1          7.4021    8.7034   -0.7443 C.3       1 <0>        -0.1466
      2 C2          7.5600    7.3733   -0.0048 C.3       1 <0>        -0.0472
      3 C3          8.5881    6.5044   -0.7320 C.3       1 <0>        -0.1553
      4 C4          8.0362    7.6381    1.4249 C.3       1 <0>        -0.1470
      5 C5          6.2137    6.6474    0.0323 C.3       1 <0>         0.1386
      6 C6          5.7356    6.3816   -1.3980 C.3       1 <0>        -0.1808
      7 C7          4.4166    5.6077   -1.3542 C.3       1 <0>        -0.0052
      8 C8          3.3652    3.5592   -0.6154 C.3       1 <0>        -0.0027
      9 C9          3.6680    2.1410   -0.1452 C.3       1 <0>        -0.0191
     10 H1          4.2105    1.6604   -0.9594 H         1 <0>         0.1021
     11 C10         2.3734    1.3946   -0.0260 C.ar      1 <0>        -0.0842
     12 C11         1.1723    2.0854    0.0021 C.ar      1 <0>        -0.1223
     13 C12        -0.0167    1.3784    0.0096 C.ar      1 <0>        -0.1108
     14 C13         0.0021   -0.0041    0.0020 C.ar      1 <0>        -0.1048
     15 C14         1.2071   -0.6813    0.0133 C.ar      1 <0>        -0.1051
     16 C15         2.3948    0.0364    0.0071 C.ar      1 <0>        -0.0695
     17 C16         3.7024   -0.6896    0.1021 C.3       1 <0>        -0.0845
     18 C17         4.3272   -0.4713    1.4512 C.3       1 <0>        -0.0850
     19 C18         4.8103    0.9217    1.7463 C.ar      1 <0>        -0.0444
     20 C19         4.5590    2.0827    1.0479 C.ar      1 <0>        -0.0603
     21 C20         5.1779    3.2568    1.4753 C.ar      1 <0>        -0.1299
     22 C21         5.9679    3.2844    2.6137 C.ar      1 <0>        -0.0975
     23 C22         6.1786    2.1330    3.3379 C.ar      1 <0>        -0.0990
     24 C23         5.6072    0.9672    2.8970 C.ar      1 <0>        -0.1046
     25 C24         5.0337    4.5665    0.7444 C.3       1 <0>         0.0810
     26 H2          4.2805    5.1671    1.2544 H         1 <0>         0.1391
     27 C25         6.3702    5.3111    0.7637 C.3       1 <0>        -0.1720
     28 O1          5.2533    7.4561    0.7147 O.3       1 <0>        -0.5331
     29 H3          6.6697    9.3225   -0.2261 H         1 <0>         0.0690
     30 H4          8.3612    9.2205   -0.7707 H         1 <0>         0.0638
     31 H5          7.0629    8.5148   -1.7628 H         1 <0>         0.0556
     32 H6          8.2488    6.3158   -1.7506 H         1 <0>         0.0600
     33 H7          9.5472    7.0215   -0.7584 H         1 <0>         0.0731
     34 H8          8.7006    5.5568   -0.2052 H         1 <0>         0.0598
     35 H9          8.1487    6.6905    1.9518 H         1 <0>         0.0543
     36 H10         8.9953    8.1552    1.3985 H         1 <0>         0.0641
     37 H11         7.3038    8.2571    1.9431 H         1 <0>         0.0692
     38 H12         6.4847    5.7942   -1.9288 H         1 <0>         0.1035
     39 H13         5.5840    7.3302   -1.9132 H         1 <0>         0.1274
     40 H14         4.0813    5.4044   -2.3713 H         1 <0>         0.1398
     41 H15         3.6639    6.2024   -0.8366 H         1 <0>         0.1295
     42 H16         2.9358    3.5269   -1.6168 H         1 <0>         0.1429
     43 H17         2.6573    4.0264    0.0692 H         1 <0>         0.1364
     44 H18         1.1646    3.1652    0.0175 H         1 <0>         0.1229
     45 H19        -0.9590    1.9060    0.0169 H         1 <0>         0.1296
     46 H20        -0.9263   -0.5557   -0.0124 H         1 <0>         0.1306
     47 H21         1.2241   -1.7611    0.0273 H         1 <0>         0.1320
     48 H22         3.5343   -1.7559   -0.0490 H         1 <0>         0.0895
     49 H23         4.3776   -0.3184   -0.6689 H         1 <0>         0.0749
     50 H24         3.5946   -0.7431    2.2111 H         1 <0>         0.0852
     51 H25         5.1749   -1.1501    1.5451 H         1 <0>         0.0900
     52 H26         6.4197    4.2119    2.9332 H         1 <0>         0.1353
     53 H27         6.7814    2.1475    4.2340 H         1 <0>         0.1400
     54 H28         5.7764    0.0573    3.4536 H         1 <0>         0.1328
     55 H29         7.1294    4.7094    0.2640 H         1 <0>         0.1055
     56 H30         6.6704    5.4938    1.7955 H         1 <0>         0.1265
     57 H31         4.3755    7.0555    0.7778 H         1 <0>         0.3658
     58 N1          4.6164    4.3231   -0.6385 N.4       1 <0>        -0.3871
     59 H32         5.3405    3.7791   -1.1223 H         1 <0>         0.4282
@<TRIPOS>BOND
     1    1    2 1
     2    1   29 1
     3    1   30 1
     4    1   31 1
     5    2    3 1
     6    2    4 1
     7    2    5 1
     8    3   32 1
     9    3   33 1
    10    3   34 1
    11    4   35 1
    12    4   36 1
    13    4   37 1
    14    5   27 1
    15    5    6 1
    16    5   28 1
    17    6    7 1
    18    6   38 1
    19    6   39 1
    20    7   40 1
    21    7   41 1
    22    7   58 1
    23    8    9 1
    24    8   42 1
    25    8   43 1
    26    8   58 1
    27    9   10 1
    28    9   20 1
    29    9   11 1
    30   11   16 ar
    31   11   12 ar
    32   12   13 ar
    33   12   44 1
    34   13   14 ar
    35   13   45 1
    36   14   15 ar
    37   14   46 1
    38   15   16 ar
    39   15   47 1
    40   16   17 1
    41   17   18 1
    42   17   48 1
    43   17   49 1
    44   18   19 1
    45   18   50 1
    46   18   51 1
    47   19   24 ar
    48   19   20 ar
    49   20   21 ar
    50   21   22 ar
    51   21   25 1
    52   22   23 ar
    53   22   52 1
    54   23   24 ar
    55   23   53 1
    56   24   54 1
    57   25   26 1
    58   25   27 1
    59   25   58 1
    60   27   55 1
    61   27   56 1
    62   28   57 1
    63   58   59 1
@<TRIPOS>MOLECULE
ZINC22459427
   46    49     0     0     0
SMALL
USER_CHARGES

@<TRIPOS>ATOM
      1 C1          1.7166    1.5474    1.0576 C.3       1 <0>        -0.0459
      2 N1          1.8169    0.0824    1.0980 N.4       1 <0>        -0.3883
      3 C2          0.4702   -0.5019    1.0458 C.3       1 <0>        -0.0017
      4 C3          0.5732   -2.0275    1.1068 C.3       1 <0>         0.0180
      5 N2          1.3783   -2.5070   -0.0254 N.3       1 <0>        -0.5312
      6 C4          2.7215   -1.9110   -0.0003 C.3       1 <0>         0.0162
      7 C5          2.6009   -0.3864   -0.0522 C.3       1 <0>        -0.0026
      8 C6          1.4533   -3.9741   -0.0341 C.3       1 <0>         0.1426
      9 H1          0.4366   -4.3615    0.0312 H         1 <0>         0.1066
     10 C7          2.1924   -4.4064    1.1906 C.3       1 <0>        -0.1261
     11 C8          2.0383   -5.8649    1.4730 C.ar      1 <0>        -0.0546
     12 C9          1.1634   -6.2765    2.4715 C.ar      1 <0>        -0.1194
     13 C10         0.9895   -7.6260    2.7150 C.ar      1 <0>        -0.0904
     14 C11         1.6756   -8.5682    1.9699 C.ar      1 <0>        -0.1144
     15 C12         2.5556   -8.1583    0.9852 C.ar      1 <0>        -0.0615
     16 C13         2.7362   -6.7973    0.7639 C.ar      1 <0>        -0.1304
     17 S1          3.9145   -6.2352   -0.4133 S.3       1 <0>         0.0047
     18 C14         3.0143   -5.3283   -1.6186 C.ar      1 <0>        -0.0732
     19 C15         2.0304   -4.4025   -1.3544 C.ar      1 <0>        -0.0710
     20 C16         1.4379   -3.7377   -2.4326 C.ar      1 <0>        -0.0501
     21 C17         1.7957   -3.9996   -3.7481 C.ar      1 <0>        -0.0148
     22 C18         2.7792   -4.9599   -4.0080 C.ar      1 <0>        -0.0577
     23 C19         3.3682   -5.6010   -2.9556 C.ar      1 <0>        -0.0885
     24 C20         1.1659   -3.2963   -4.8249 C.1       1 <0>         0.2426
     25 N3          0.6663   -2.7384   -5.6791 N.1       1 <0>        -0.3961
     26 H2          1.2248    1.8525    0.1340 H         1 <0>         0.1232
     27 H3          1.1349    1.8954    1.9111 H         1 <0>         0.1245
     28 H4          2.7158    1.9812    1.0977 H         1 <0>         0.1247
     29 H5         -0.1146   -0.1430    1.8927 H         1 <0>         0.1374
     30 H6         -0.0177   -0.2076    0.1165 H         1 <0>         0.1384
     31 H7          1.0487   -2.3227    2.0421 H         1 <0>         0.0683
     32 H8         -0.4251   -2.4618    1.0530 H         1 <0>         0.1266
     33 H9          3.2325   -2.2044    0.9167 H         1 <0>         0.0690
     34 H10         3.2906   -2.2604   -0.8618 H         1 <0>         0.1268
     35 H11         2.1020   -0.0927   -0.9758 H         1 <0>         0.1379
     36 H12         3.5956    0.0581   -0.0194 H         1 <0>         0.1373
     37 H13         3.2513   -4.1834    1.0596 H         1 <0>         0.0954
     38 H14         1.8191   -3.8414    2.0447 H         1 <0>         0.0859
     39 H15         0.6225   -5.5457    3.0544 H         1 <0>         0.1267
     40 H16         0.3131   -7.9472    3.4932 H         1 <0>         0.1315
     41 H17         1.5245   -9.6210    2.1570 H         1 <0>         0.1362
     42 H18         3.0956   -8.8851    0.3965 H         1 <0>         0.1407
     43 H19         0.6772   -2.9968   -2.2355 H         1 <0>         0.1427
     44 H20         3.0669   -5.1909   -5.0230 H         1 <0>         0.1457
     45 H21         4.1302   -6.3400   -3.1544 H         1 <0>         0.1455
     46 H22         2.2726   -0.1999    1.9529 H         1 <0>         0.4227
@<TRIPOS>BOND
     1    1    2 1
     2    1   26 1
     3    1   27 1
     4    1   28 1
     5    2    7 1
     6    2    3 1
     7    2   46 1
     8    3    4 1
     9    3   29 1
    10    3   30 1
    11    4    5 1
    12    4   31 1
    13    4   32 1
    14    5    6 1
    15    5    8 1
    16    6    7 1
    17    6   33 1
    18    6   34 1
    19    7   35 1
    20    7   36 1
    21    8    9 1
    22    8   19 1
    23    8   10 1
    24   10   11 1
    25   10   37 1
    26   10   38 1
    27   11   16 ar
    28   11   12 ar
    29   12   13 ar
    30   12   39 1
    31   13   14 ar
    32   13   40 1
    33   14   15 ar
    34   14   41 1
    35   15   16 ar
    36   15   42 1
    37   16   17 1
    38   17   18 1
    39   18   23 ar
    40   18   19 ar
    41   19   20 ar
    42   20   21 ar
    43   20   43 1
    44   21   22 ar
    45   21   24 1
    46   22   23 ar
    47   22   44 1
    48   23   45 1
    49   24   25 3
@<TRIPOS>MOLECULE
ZINC22459431
   46    49     0     0     0
SMALL
USER_CHARGES

@<TRIPOS>ATOM
      1 C1          0.2207    1.5152    1.9057 C.3       1 <0>        -0.0459
      2 N1          0.2517    0.0487    1.9854 N.4       1 <0>        -0.3883
      3 C2          0.6485   -0.5039    0.6836 C.3       1 <0>        -0.0017
      4 C3          0.6992   -2.0308    0.7713 C.3       1 <0>         0.0180
      5 N2         -0.6244   -2.5407    1.1564 N.3       1 <0>        -0.5311
      6 C4         -1.0460   -1.9766    2.4464 C.3       1 <0>         0.0161
      7 C5         -1.0823   -0.4501    2.3448 C.3       1 <0>        -0.0026
      8 C6         -0.6316   -4.0091    1.1963 C.3       1 <0>         0.1426
      9 H1         -0.2338   -4.3715    0.2484 H         1 <0>         0.1066
     10 C7          0.2948   -4.4466    2.2841 C.3       1 <0>        -0.1261
     11 C8          0.6369   -5.8982    2.2018 C.ar      1 <0>        -0.0546
     12 C9          1.8719   -6.2788    1.6903 C.ar      1 <0>        -0.1194
     13 C10         2.1818   -7.6212    1.5787 C.ar      1 <0>        -0.0904
     14 C11         1.2710   -8.5869    1.9679 C.ar      1 <0>        -0.1144
     15 C12         0.0474   -8.2080    2.4888 C.ar      1 <0>        -0.0615
     16 C13        -0.2439   -6.8539    2.6140 C.ar      1 <0>        -0.1305
     17 S1         -1.7488   -6.3319    3.3574 S.3       1 <0>         0.0048
     18 C14        -2.6128   -5.4158    2.1328 C.ar      1 <0>        -0.0732
     19 C15        -2.0601   -4.4644    1.3058 C.ar      1 <0>        -0.0710
     20 C16        -2.8995   -3.7965    0.4086 C.ar      1 <0>        -0.0501
     21 C17        -4.2555   -4.0793    0.3159 C.ar      1 <0>        -0.0149
     22 C18        -4.8034   -5.0654    1.1433 C.ar      1 <0>        -0.0577
     23 C19        -3.9875   -5.7103    2.0286 C.ar      1 <0>        -0.0885
     24 C20        -5.0824   -3.3709   -0.6140 C.1       1 <0>         0.2426
     25 N3         -5.7385   -2.8088   -1.3517 N.1       1 <0>        -0.3961
     26 H2         -0.0725    1.9255    2.8720 H         1 <0>         0.1248
     27 H3          1.2106    1.8855    1.6389 H         1 <0>         0.1246
     28 H4         -0.4989    1.8227    1.1469 H         1 <0>         0.1232
     29 H5         -0.0774   -0.2074   -0.0735 H         1 <0>         0.1384
     30 H6          1.6329   -0.1227    0.4120 H         1 <0>         0.1374
     31 H7          0.9792   -2.4417   -0.1986 H         1 <0>         0.1266
     32 H8          1.4349   -2.3279    1.5187 H         1 <0>         0.0683
     33 H9         -2.0393   -2.3480    2.6985 H         1 <0>         0.1268
     34 H10        -0.3391   -2.2728    3.2214 H         1 <0>         0.0690
     35 H11        -1.3811   -0.0291    3.3048 H         1 <0>         0.1373
     36 H12        -1.7994   -0.1539    1.5792 H         1 <0>         0.1379
     37 H13         1.2139   -3.8643    2.2188 H         1 <0>         0.0859
     38 H14        -0.1760   -4.2502    3.2474 H         1 <0>         0.0954
     39 H15         2.5857   -5.5295    1.3811 H         1 <0>         0.1267
     40 H16         3.1423   -7.9185    1.1845 H         1 <0>         0.1315
     41 H17         1.5147   -9.6339    1.8647 H         1 <0>         0.1362
     42 H18        -0.6722   -8.9533    2.7940 H         1 <0>         0.1407
     43 H19        -2.4794   -3.0358   -0.2327 H         1 <0>         0.1427
     44 H20        -5.8529   -5.3127    1.0825 H         1 <0>         0.1457
     45 H21        -4.4098   -6.4692    2.6706 H         1 <0>         0.1455
     46 H22         0.9175   -0.2358    2.6881 H         1 <0>         0.4227
@<TRIPOS>BOND
     1    1    2 1
     2    1   26 1
     3    1   27 1
     4    1   28 1
     5    2    7 1
     6    2    3 1
     7    2   46 1
     8    3    4 1
     9    3   29 1
    10    3   30 1
    11    4    5 1
    12    4   31 1
    13    4   32 1
    14    5    6 1
    15    5    8 1
    16    6    7 1
    17    6   33 1
    18    6   34 1
    19    7   35 1
    20    7   36 1
    21    8    9 1
    22    8   19 1
    23    8   10 1
    24   10   11 1
    25   10   37 1
    26   10   38 1
    27   11   16 ar
    28   11   12 ar
    29   12   13 ar
    30   12   39 1
    31   13   14 ar
    32   13   40 1
    33   14   15 ar
    34   14   41 1
    35   15   16 ar
    36   15   42 1
    37   16   17 1
    38   17   18 1
    39   18   23 ar
    40   18   19 ar
    41   19   20 ar
    42   20   21 ar
    43   20   43 1
    44   21   22 ar
    45   21   24 1
    46   22   23 ar
    47   22   44 1
    48   23   45 1
    49   24   25 3
@<TRIPOS>MOLECULE
ZINC04364519
   57    59     0     0     0
SMALL
USER_CHARGES
4-chloro-N-[4-[4-(2-methoxyphenyl)piperazin-1-yl]butyl]benzamide
@<TRIPOS>ATOM
      1 C1         -1.1455    3.4824    0.0264 C.3       1 <0>         0.0204
      2 O1         -1.2029    2.0546    0.0189 O.3       1 <0>        -0.2998
      3 C2         -0.0168    1.3889    0.0097 C.ar      1 <0>         0.1642
      4 C3          1.1751    2.0944    0.0021 C.ar      1 <0>        -0.2027
      5 C4          2.3802    1.4164   -0.0135 C.ar      1 <0>        -0.0622
      6 C5          2.3999    0.0340   -0.0207 C.ar      1 <0>        -0.1458
      7 C6          1.2148   -0.6775   -0.0132 C.ar      1 <0>        -0.1060
      8 C7          0.0021   -0.0041    0.0020 C.ar      1 <0>         0.0239
      9 N1         -1.1993   -0.7222    0.0092 N.pl3     1 <0>        -0.4815
     10 C8         -1.3293   -1.5189    1.2371 C.3       1 <0>         0.0300
     11 C9         -2.6874   -2.2247    1.2428 C.3       1 <0>        -0.0034
     12 C10        -2.6684   -2.2806   -1.1770 C.3       1 <0>         0.0051
     13 C11        -1.3103   -1.5748   -1.1826 C.3       1 <0>         0.0290
     14 C12        -4.0593   -3.8310    0.0585 C.3       1 <0>        -0.0022
     15 C13        -4.2778   -4.4456    1.4425 C.3       1 <0>        -0.1490
     16 C14        -5.5911   -5.2306    1.4503 C.3       1 <0>        -0.1308
     17 C15        -5.8097   -5.8451    2.8343 C.3       1 <0>         0.1190
     18 N2         -7.0671   -6.5968    2.8418 N.am      1 <0>        -0.7322
     19 C16        -7.4682   -7.2280    3.9630 C.2       1 <0>         0.5641
     20 O2         -6.7866   -7.1737    4.9680 O.2       1 <0>        -0.5262
     21 C17        -8.7367   -7.9863    3.9705 C.ar      1 <0>        -0.1407
     22 C18        -9.5245   -8.0457    2.8194 C.ar      1 <0>        -0.0743
     23 C19       -10.7040   -8.7600    2.8307 C.ar      1 <0>        -0.1178
     24 C20       -11.1136   -9.4077    3.9845 C.ar      1 <0>        -0.0074
     25 C21       -10.3393   -9.3472    5.1314 C.ar      1 <0>        -0.1153
     26 C22        -9.1548   -8.6413    5.1305 C.ar      1 <0>        -0.0436
     27 Cl1       -12.6031  -10.2994    3.9930 Cl        1 <0>        -0.0511
     28 H1         -0.6217    3.8296   -0.8642 H         1 <0>         0.0590
     29 H2         -2.1577    3.8867    0.0334 H         1 <0>         0.1054
     30 H3         -0.6132    3.8200    0.9157 H         1 <0>         0.0590
     31 H4          1.1633    3.1743    0.0076 H         1 <0>         0.1382
     32 H5          3.3085    1.9682   -0.0198 H         1 <0>         0.1340
     33 H6          3.3435   -0.4913   -0.0325 H         1 <0>         0.1308
     34 H7          1.2330   -1.7573   -0.0195 H         1 <0>         0.1241
     35 H8         -0.5330   -2.2623    1.2743 H         1 <0>         0.0621
     36 H9         -1.2564   -0.8637    2.1052 H         1 <0>         0.1229
     37 H10        -3.4839   -1.4807    1.2331 H         1 <0>         0.1410
     38 H11        -2.7741   -2.8392    2.1389 H         1 <0>         0.1384
     39 H12        -3.4647   -1.5372   -1.2141 H         1 <0>         0.1403
     40 H13        -2.7414   -2.9355   -2.0452 H         1 <0>         0.1351
     41 H14        -1.2235   -0.9603   -2.0787 H         1 <0>         0.1233
     42 H15        -0.5138   -2.3188   -1.1729 H         1 <0>         0.0623
     43 H16        -4.8853   -3.1595   -0.1755 H         1 <0>         0.1331
     44 H17        -4.0130   -4.6239   -0.6880 H         1 <0>         0.1303
     45 H18        -3.4517   -5.1171    1.6765 H         1 <0>         0.0913
     46 H19        -4.3241   -3.6526    2.1890 H         1 <0>         0.0945
     47 H20        -6.4172   -4.5590    1.2164 H         1 <0>         0.0831
     48 H21        -5.5448   -6.0235    0.7039 H         1 <0>         0.0826
     49 H22        -4.9836   -6.5166    3.0683 H         1 <0>         0.0733
     50 H23        -5.8559   -5.0522    3.5808 H         1 <0>         0.0735
     51 H24        -7.6110   -6.6401    2.0398 H         1 <0>         0.4022
     52 H25        -9.2084   -7.5373    1.9206 H         1 <0>         0.1330
     53 H26       -11.3119   -8.8107    1.9395 H         1 <0>         0.1430
     54 H27       -10.6638   -9.8543    6.0281 H         1 <0>         0.1455
     55 H28        -8.5515   -8.5954    6.0251 H         1 <0>         0.1478
     56 N3         -2.7769   -3.0952    0.0514 N.4       1 <0>        -0.3973
     57 H29        -2.0043   -3.7711    0.0731 H         1 <0>         0.4247
@<TRIPOS>BOND
     1    1    2 1
     2    1   28 1
     3    1   29 1
     4    1   30 1
     5    2    3 1
     6    3    8 ar
     7    3    4 ar
     8    4    5 ar
     9    4   31 1
    10    5    6 ar
    11    5   32 1
    12    6    7 ar
    13    6   33 1
    14    7    8 ar
    15    7   34 1
    16    8    9 1
    17    9   13 1
    18    9   10 1
    19   10   11 1
    20   10   35 1
    21   10   36 1
    22   11   37 1
    23   11   38 1
    24   11   56 1
    25   12   13 1
    26   12   39 1
    27   12   40 1
    28   12   56 1
    29   13   41 1
    30   13   42 1
    31   14   15 1
    32   14   43 1
    33   14   44 1
    34   14   56 1
    35   15   16 1
    36   15   45 1
    37   15   46 1
    38   16   17 1
    39   16   47 1
    40   16   48 1
    41   17   18 1
    42   17   49 1
    43   17   50 1
    44   18   19 am
    45   18   51 1
    46   19   20 2
    47   19   21 1
    48   21   26 ar
    49   21   22 ar
    50   22   23 ar
    51   22   52 1
    52   23   24 ar
    53   23   53 1
    54   24   25 ar
    55   24   27 1
    56   25   26 ar
    57   25   54 1
    58   26   55 1
    59   56   57 1
@<TRIPOS>MOLECULE
ZINC01537496
   57    60     0     0     0
SMALL
USER_CHARGES

@<TRIPOS>ATOM
      1 C1         -0.0173    1.4248    0.0099 C.3       1 <0>         0.0229
      2 O1          0.0021   -0.0041    0.0020 O.3       1 <0>        -0.3111
      3 C2          0.6063   -0.6076   -1.0566 C.ar      1 <0>         0.1290
      4 C3          1.1727    0.1584   -2.0619 C.ar      1 <0>        -0.2023
      5 C4          1.7862   -0.4565   -3.1379 C.ar      1 <0>        -0.0670
      6 C5          1.8369   -1.8361   -3.2138 C.ar      1 <0>        -0.1490
      7 C6          1.2745   -2.6077   -2.2144 C.ar      1 <0>        -0.0821
      8 C7          0.6620   -1.9977   -1.1294 C.ar      1 <0>         0.1090
      9 N1          0.0968   -2.7768   -0.1132 N.pl3     1 <0>        -0.6637
     10 C8         -1.3057   -3.2146   -0.1871 C.3       1 <0>         0.1220
     11 C9         -1.3569   -4.7253    0.0636 C.3       1 <0>        -0.0223
     12 N2         -0.6925   -5.0320    1.3366 N.4       1 <0>        -0.3803
     13 C10         0.7338   -4.6939    1.2505 C.3       1 <0>        -0.0277
     14 C11         0.8902   -3.1864    1.0559 C.3       1 <0>         0.1222
     15 C12        -0.8376   -6.4641    1.6301 C.3       1 <0>        -0.0085
     16 C13        -0.2558   -6.7628    3.0132 C.3       1 <0>        -0.1448
     17 C14        -0.4069   -8.2543    3.3189 C.3       1 <0>        -0.1362
     18 C15         0.1750   -8.5530    4.7020 C.3       1 <0>         0.1116
     19 N3          0.0302   -9.9811    4.9947 N.am      1 <0>        -0.5803
     20 C16        -1.0384  -10.5296    5.6004 C.2       1 <0>         0.5775
     21 O2         -2.0207   -9.9284    5.9859 O.2       1 <0>        -0.4596
     22 C17        -0.8170  -11.9863    5.7182 C.ar      1 <0>        -0.1470
     23 C18        -1.5532  -13.0379    6.2398 C.ar      1 <0>        -0.0409
     24 C19        -1.0423  -14.3255    6.1903 C.ar      1 <0>        -0.0904
     25 C20         0.1956  -14.5669    5.6245 C.ar      1 <0>        -0.0905
     26 C21         0.9432  -13.5248    5.0988 C.ar      1 <0>        -0.0408
     27 C22         0.4452  -12.2324    5.1412 C.ar      1 <0>        -0.1471
     28 C23         0.9460  -10.9176    4.6879 C.2       1 <0>         0.5777
     29 O3          2.0074  -10.7163    4.1330 O.2       1 <0>        -0.4601
     30 H1          1.0053    1.8021    0.0021 H         1 <0>         0.0588
     31 H2         -0.5445    1.7859   -0.8732 H         1 <0>         0.0588
     32 H3         -0.5275    1.7763    0.9067 H         1 <0>         0.1035
     33 H4          1.1348    1.2363   -2.0057 H         1 <0>         0.1341
     34 H5          2.2267    0.1425   -3.9212 H         1 <0>         0.1319
     35 H6          2.3168   -2.3119   -4.0562 H         1 <0>         0.1306
     36 H7          1.3151   -3.6852   -2.2764 H         1 <0>         0.1265
     37 H8         -1.8914   -2.6971    0.5728 H         1 <0>         0.0779
     38 H9         -1.7068   -2.9936   -1.1762 H         1 <0>         0.1139
     39 H10        -2.3961   -5.0513    0.1082 H         1 <0>         0.1358
     40 H11        -0.8470   -5.2457   -0.7471 H         1 <0>         0.1296
     41 H12         1.2353   -4.9969    2.1697 H         1 <0>         0.1373
     42 H13         1.1804   -5.2153    0.4039 H         1 <0>         0.1300
     43 H14         1.9402   -2.9468    0.8881 H         1 <0>         0.1137
     44 H15         0.5300   -2.6661    1.9434 H         1 <0>         0.0772
     45 H16        -1.8938   -6.7330    1.6144 H         1 <0>         0.1322
     46 H17        -0.3036   -7.0450    0.8781 H         1 <0>         0.1298
     47 H18         0.8004   -6.4939    3.0289 H         1 <0>         0.0923
     48 H19        -0.7898   -6.1819    3.7652 H         1 <0>         0.0931
     49 H20        -1.4631   -8.5232    3.3032 H         1 <0>         0.0826
     50 H21         0.1271   -8.8352    2.5669 H         1 <0>         0.0821
     51 H22         1.2312   -8.2841    4.7177 H         1 <0>         0.1009
     52 H23        -0.3590   -7.9721    5.4540 H         1 <0>         0.1012
     53 H24        -2.5208  -12.8551    6.6834 H         1 <0>         0.1447
     54 H25        -1.6152  -15.1457    6.5970 H         1 <0>         0.1471
     55 H26         0.5831  -15.5745    5.5922 H         1 <0>         0.1471
     56 H27         1.9099  -13.7192    4.6583 H         1 <0>         0.1446
     57 H28        -1.1202   -4.4947    2.0759 H         1 <0>         0.4225
@<TRIPOS>BOND
     1    1    2 1
     2    1   30 1
     3    1   31 1
     4    1   32 1
     5    2    3 1
     6    3    8 ar
     7    3    4 ar
     8    4    5 ar
     9    4   33 1
    10    5    6 ar
    11    5   34 1
    12    6    7 ar
    13    6   35 1
    14    7    8 ar
    15    7   36 1
    16    8    9 1
    17    9   14 1
    18    9   10 1
    19   10   11 1
    20   10   37 1
    21   10   38 1
    22   11   12 1
    23   11   39 1
    24   11   40 1
    25   12   13 1
    26   12   15 1
    27   12   57 1
    28   13   14 1
    29   13   41 1
    30   13   42 1
    31   14   43 1
    32   14   44 1
    33   15   16 1
    34   15   45 1
    35   15   46 1
    36   16   17 1
    37   16   47 1
    38   16   48 1
    39   17   18 1
    40   17   49 1
    41   17   50 1
    42   18   19 1
    43   18   51 1
    44   18   52 1
    45   19   28 am
    46   19   20 am
    47   20   21 2
    48   20   22 1
    49   22   27 ar
    50   22   23 ar
    51   23   24 ar
    52   23   53 1
    53   24   25 ar
    54   24   54 1
    55   25   26 ar
    56   25   55 1
    57   26   27 ar
    58   26   56 1
    59   27   28 1
    60   28   29 2
@<TRIPOS>MOLECULE
ZINC01537496
   56    59     0     0     0
SMALL
USER_CHARGES

@<TRIPOS>ATOM
      1 C1         -0.0173    1.4248    0.0099 C.3       1 <0>         0.0252
      2 O1          0.0021   -0.0041    0.0020 O.3       1 <0>        -0.3039
      3 C2          0.6063   -0.6076   -1.0566 C.ar      1 <0>         0.1197
      4 C3          1.1727    0.1584   -2.0619 C.ar      1 <0>        -0.2066
      5 C4          1.7862   -0.4565   -3.1379 C.ar      1 <0>        -0.0837
      6 C5          1.8369   -1.8361   -3.2138 C.ar      1 <0>        -0.1522
      7 C6          1.2745   -2.6077   -2.2144 C.ar      1 <0>        -0.0882
      8 C7          0.6620   -1.9977   -1.1294 C.ar      1 <0>         0.1392
      9 N1          0.0968   -2.7768   -0.1132 N.pl3     1 <0>        -0.6684
     10 C8         -1.3056   -3.2137   -0.1884 C.3       1 <0>         0.1536
     11 C9         -1.3570   -4.7276    0.0431 C.3       1 <0>         0.0413
     12 N2         -0.6724   -5.0507    1.3020 N.3       1 <0>        -0.5343
     13 C10         0.7517   -4.6956    1.2405 C.3       1 <0>         0.0376
     14 C11         0.8913   -3.1855    1.0551 C.3       1 <0>         0.1533
     15 C12        -0.8472   -6.4678    1.6476 C.3       1 <0>         0.0572
     16 C13        -0.3417   -6.7116    3.0710 C.3       1 <0>        -0.1116
     17 C14        -0.5237   -8.1875    3.4309 C.3       1 <0>        -0.1352
     18 C15        -0.0183   -8.4314    4.8543 C.3       1 <0>         0.1117
     19 N3         -0.1926   -9.8446    5.1990 N.am      1 <0>        -0.5766
     20 C16        -1.2970  -10.3582    5.7700 C.2       1 <0>         0.5742
     21 O2         -2.2921   -9.7334    6.0773 O.2       1 <0>        -0.4586
     22 C17        -1.0969  -11.8102    5.9608 C.ar      1 <0>        -0.1418
     23 C18        -1.8700  -12.8328    6.4868 C.ar      1 <0>        -0.0442
     24 C19        -1.3702  -14.1253    6.5188 C.ar      1 <0>        -0.0946
     25 C20        -0.1069  -14.4004    6.0299 C.ar      1 <0>        -0.0948
     26 C21         0.6778  -13.3876    5.5008 C.ar      1 <0>        -0.0443
     27 C22         0.1913  -12.0907    5.4623 C.ar      1 <0>        -0.1422
     28 C23         0.7285  -10.8005    4.9808 C.2       1 <0>         0.5745
     29 O3          1.8195  -10.6314    4.4748 O.2       1 <0>        -0.4601
     30 H1          1.0053    1.8021    0.0021 H         1 <0>         0.0536
     31 H2         -0.5445    1.7859   -0.8732 H         1 <0>         0.0536
     32 H3         -0.5275    1.7763    0.9067 H         1 <0>         0.0992
     33 H4          1.1348    1.2363   -2.0057 H         1 <0>         0.1276
     34 H5          2.2267    0.1425   -3.9212 H         1 <0>         0.1245
     35 H6          2.3168   -2.3119   -4.0562 H         1 <0>         0.1238
     36 H7          1.3151   -3.6852   -2.2764 H         1 <0>         0.1250
     37 H8         -1.8890   -2.7058    0.5796 H         1 <0>         0.0582
     38 H9         -1.7097   -2.9800   -1.1734 H         1 <0>         0.0690
     39 H10        -2.3961   -5.0517    0.1006 H         1 <0>         0.0794
     40 H11        -0.8612   -5.2388   -0.7821 H         1 <0>         0.0341
     41 H12         1.2419   -4.9966    2.1663 H         1 <0>         0.0828
     42 H13         1.2181   -5.2073    0.3986 H         1 <0>         0.0336
     43 H14         1.9390   -2.9332    0.8918 H         1 <0>         0.0686
     44 H15         0.5231   -2.6749    1.9450 H         1 <0>         0.0576
     45 H16        -1.9037   -6.7288    1.5875 H         1 <0>         0.0751
     46 H17        -0.2804   -7.0845    0.9501 H         1 <0>         0.0326
     47 H18         0.7149   -6.4507    3.1310 H         1 <0>         0.0675
     48 H19        -0.9085   -6.0950    3.7685 H         1 <0>         0.0776
     49 H20        -1.5803   -8.4485    3.3709 H         1 <0>         0.0712
     50 H21         0.0431   -8.8042    2.7334 H         1 <0>         0.0685
     51 H22         1.0383   -8.1704    4.9144 H         1 <0>         0.0977
     52 H23        -0.5851   -7.8147    5.5518 H         1 <0>         0.0992
     53 H24        -2.8576  -12.6236    6.8705 H         1 <0>         0.1433
     54 H25        -1.9719  -14.9229    6.9289 H         1 <0>         0.1439
     55 H26         0.2716  -15.4114    6.0607 H         1 <0>         0.1438
     56 H27         1.6642  -13.6083    5.1206 H         1 <0>         0.1430
@<TRIPOS>BOND
     1    1    2 1
     2    1   30 1
     3    1   31 1
     4    1   32 1
     5    2    3 1
     6    3    8 ar
     7    3    4 ar
     8    4    5 ar
     9    4   33 1
    10    5    6 ar
    11    5   34 1
    12    6    7 ar
    13    6   35 1
    14    7    8 ar
    15    7   36 1
    16    8    9 1
    17    9   14 1
    18    9   10 1
    19   10   11 1
    20   10   37 1
    21   10   38 1
    22   11   12 1
    23   11   39 1
    24   11   40 1
    25   12   13 1
    26   12   15 1
    27   13   14 1
    28   13   41 1
    29   13   42 1
    30   14   43 1
    31   14   44 1
    32   15   16 1
    33   15   45 1
    34   15   46 1
    35   16   17 1
    36   16   47 1
    37   16   48 1
    38   17   18 1
    39   17   49 1
    40   17   50 1
    41   18   19 1
    42   18   51 1
    43   18   52 1
    44   19   28 am
    45   19   20 am
    46   20   21 2
    47   20   22 1
    48   22   27 ar
    49   22   23 ar
    50   23   24 ar
    51   23   53 1
    52   24   25 ar
    53   24   54 1
    54   25   26 ar
    55   25   55 1
    56   26   27 ar
    57   26   56 1
    58   27   28 1
    59   28   29 2
@<TRIPOS>MOLECULE
ZINC11909395
   63    66     0     0     0
SMALL
USER_CHARGES
N-[3-[4-(2-methoxyphenyl)piperazin-1-yl]propyl]-2-(1-naphthyl)acetamide
@<TRIPOS>ATOM
      1 C1         -1.1455    3.4824    0.0264 C.3       1 <0>         0.0203
      2 O1         -1.2029    2.0546    0.0189 O.3       1 <0>        -0.2997
      3 C2         -0.0168    1.3889    0.0097 C.ar      1 <0>         0.1644
      4 C3          1.1751    2.0944    0.0021 C.ar      1 <0>        -0.2027
      5 C4          2.3802    1.4164   -0.0135 C.ar      1 <0>        -0.0621
      6 C5          2.3999    0.0340   -0.0207 C.ar      1 <0>        -0.1459
      7 C6          1.2148   -0.6775   -0.0132 C.ar      1 <0>        -0.1060
      8 C7          0.0021   -0.0041    0.0020 C.ar      1 <0>         0.0236
      9 N1         -1.1993   -0.7222    0.0092 N.pl3     1 <0>        -0.4814
     10 C8         -1.3293   -1.5189    1.2371 C.3       1 <0>         0.0305
     11 C9         -2.6874   -2.2247    1.2428 C.3       1 <0>        -0.0036
     12 C10        -2.6684   -2.2806   -1.1770 C.3       1 <0>         0.0048
     13 C11        -1.3103   -1.5748   -1.1826 C.3       1 <0>         0.0292
     14 C12        -4.0593   -3.8310    0.0585 C.3       1 <0>         0.0005
     15 C13        -4.2778   -4.4456    1.4425 C.3       1 <0>        -0.1649
     16 C14        -5.5911   -5.2306    1.4503 C.3       1 <0>         0.1236
     17 N2         -5.8004   -5.8190    2.7755 N.am      1 <0>        -0.7410
     18 C15        -6.9003   -6.5591    3.0181 C.2       1 <0>         0.5166
     19 O2         -7.7168   -6.7380    2.1394 O.2       1 <0>        -0.5124
     20 C16        -7.1156   -7.1644    4.3813 C.3       1 <0>        -0.1011
     21 C17        -8.4091   -7.9376    4.3890 C.ar      1 <0>        -0.0673
     22 C18        -9.5554   -7.3492    4.8283 C.ar      1 <0>        -0.0974
     23 C19       -10.7606   -8.0482    4.8427 C.ar      1 <0>        -0.1170
     24 C20       -10.8270   -9.3396    4.4176 C.ar      1 <0>        -0.0974
     25 C21        -9.6646   -9.9804    3.9567 C.ar      1 <0>        -0.0527
     26 C22        -8.4395   -9.2677    3.9374 C.ar      1 <0>        -0.0325
     27 C23        -7.2760   -9.9101    3.4803 C.ar      1 <0>        -0.1136
     28 C24        -7.3423  -11.2015    3.0561 C.ar      1 <0>        -0.1098
     29 C25        -8.5478  -11.9009    3.0711 C.ar      1 <0>        -0.1190
     30 C26        -9.6937  -11.3128    3.5104 C.ar      1 <0>        -0.0997
     31 H1         -2.1577    3.8867    0.0334 H         1 <0>         0.1055
     32 H2         -0.6132    3.8200    0.9157 H         1 <0>         0.0590
     33 H3         -0.6217    3.8296   -0.8642 H         1 <0>         0.0591
     34 H4          1.1633    3.1743    0.0076 H         1 <0>         0.1382
     35 H5          3.3085    1.9682   -0.0198 H         1 <0>         0.1340
     36 H6          3.3435   -0.4913   -0.0325 H         1 <0>         0.1308
     37 H7          1.2330   -1.7573   -0.0195 H         1 <0>         0.1240
     38 H8         -0.5330   -2.2623    1.2743 H         1 <0>         0.0620
     39 H9         -1.2564   -0.8637    2.1052 H         1 <0>         0.1228
     40 H10        -3.4839   -1.4807    1.2331 H         1 <0>         0.1416
     41 H11        -2.7741   -2.8392    2.1389 H         1 <0>         0.1369
     42 H12        -3.4647   -1.5372   -1.2141 H         1 <0>         0.1413
     43 H13        -2.7414   -2.9355   -2.0452 H         1 <0>         0.1364
     44 H14        -1.2235   -0.9603   -2.0787 H         1 <0>         0.1240
     45 H15        -0.5138   -2.3188   -1.1729 H         1 <0>         0.0626
     46 H16        -4.8853   -3.1595   -0.1755 H         1 <0>         0.1367
     47 H17        -4.0130   -4.6239   -0.6880 H         1 <0>         0.1341
     48 H18        -3.4517   -5.1171    1.6765 H         1 <0>         0.0940
     49 H19        -4.3241   -3.6526    2.1890 H         1 <0>         0.0973
     50 H20        -6.4172   -4.5590    1.2164 H         1 <0>         0.0778
     51 H21        -5.5448   -6.0235    0.7039 H         1 <0>         0.0773
     52 H22        -5.1473   -5.6760    3.4783 H         1 <0>         0.4029
     53 H23        -6.2895   -7.8359    4.6153 H         1 <0>         0.1069
     54 H24        -7.1619   -6.3715    5.1278 H         1 <0>         0.1077
     55 H25        -9.5301   -6.3254    5.1711 H         1 <0>         0.1211
     56 H26       -11.6556   -7.5578    5.1962 H         1 <0>         0.1265
     57 H27       -11.7683   -9.8688    4.4342 H         1 <0>         0.1299
     58 H28        -6.3349   -9.3805    3.4623 H         1 <0>         0.1177
     59 H29        -6.4474  -11.6917    2.7022 H         1 <0>         0.1222
     60 H30        -8.5729  -12.9249    2.7287 H         1 <0>         0.1253
     61 H31       -10.6207  -11.8669    3.5156 H         1 <0>         0.1297
     62 N3         -2.7769   -3.0952    0.0514 N.4       1 <0>        -0.3964
     63 H32        -2.0043   -3.7711    0.0731 H         1 <0>         0.4248
@<TRIPOS>BOND
     1    1    2 1
     2    1   31 1
     3    1   32 1
     4    1   33 1
     5    2    3 1
     6    3    8 ar
     7    3    4 ar
     8    4    5 ar
     9    4   34 1
    10    5    6 ar
    11    5   35 1
    12    6    7 ar
    13    6   36 1
    14    7    8 ar
    15    7   37 1
    16    8    9 1
    17    9   13 1
    18    9   10 1
    19   10   11 1
    20   10   38 1
    21   10   39 1
    22   11   40 1
    23   11   41 1
    24   11   62 1
    25   12   13 1
    26   12   42 1
    27   12   43 1
    28   12   62 1
    29   13   44 1
    30   13   45 1
    31   14   15 1
    32   14   46 1
    33   14   47 1
    34   14   62 1
    35   15   16 1
    36   15   48 1
    37   15   49 1
    38   16   17 1
    39   16   50 1
    40   16   51 1
    41   17   18 am
    42   17   52 1
    43   18   19 2
    44   18   20 1
    45   20   21 1
    46   20   53 1
    47   20   54 1
    48   21   26 ar
    49   21   22 ar
    50   22   23 ar
    51   22   55 1
    52   23   24 ar
    53   23   56 1
    54   24   25 ar
    55   24   57 1
    56   25   30 ar
    57   25   26 ar
    58   26   27 ar
    59   27   28 ar
    60   27   58 1
    61   28   29 ar
    62   28   59 1
    63   29   30 ar
    64   29   60 1
    65   30   61 1
    66   62   63 1
@<TRIPOS>MOLECULE
ZINC00538337
   58    62     0     0     0
SMALL
USER_CHARGES

@<TRIPOS>ATOM
      1 C1         -0.0168    1.3842    0.0097 C.ar      1 <0>        -0.0898
      2 C2          1.1703    2.0901    0.0021 C.ar      1 <0>        -0.1344
      3 C3          2.3788    1.4141   -0.0135 C.ar      1 <0>         0.1119
      4 C4          2.3997    0.0295   -0.0216 C.ar      1 <0>        -0.1322
      5 C5          1.2148   -0.6800   -0.0137 C.ar      1 <0>        -0.0888
      6 C6          0.0021   -0.0041    0.0020 C.ar      1 <0>         0.1035
      7 N1         -1.2015   -0.7222    0.0101 N.pl3     1 <0>        -0.4255
      8 C7         -2.2407   -0.5077    0.8765 C.2       1 <0>         0.0751
      9 C8         -3.2397   -1.3652    0.6140 C.2       1 <0>        -0.1721
     10 C9         -2.8068   -2.1974   -0.5117 C.ar      1 <0>        -0.0841
     11 C10        -1.5194   -1.7470   -0.8569 C.ar      1 <0>         0.1032
     12 C11        -0.8430   -2.3517   -1.9103 C.ar      1 <0>        -0.1070
     13 C12        -1.4366   -3.3808   -2.6081 C.ar      1 <0>        -0.0841
     14 C13        -2.7089   -3.8239   -2.2706 C.ar      1 <0>        -0.0491
     15 C14        -3.3935   -3.2441   -1.2250 C.ar      1 <0>        -0.0671
     16 Cl1        -3.4366   -5.1218   -3.1648 Cl        1 <0>        -0.0596
     17 C15        -4.5571   -1.4553    1.3402 C.3       1 <0>        -0.0164
     18 C16        -4.3063   -1.7573    2.8204 C.3       1 <0>        -0.1397
     19 C17        -5.6422   -1.7687    3.5665 C.3       1 <0>        -0.0052
     20 N2         -6.2909   -0.4585    3.4359 N.4       1 <0>        -0.3798
     21 C18        -6.5994   -0.1937    2.0255 C.3       1 <0>        -0.0131
     22 C19        -5.3003   -0.1217    1.2201 C.3       1 <0>        -0.1392
     23 C20        -7.5345   -0.4493    4.2177 C.3       1 <0>        -0.0330
     24 C21        -8.1476    0.9521    4.1845 C.3       1 <0>         0.1326
     25 N3         -9.3878    0.9612    4.9641 N.am      1 <0>        -0.6351
     26 C22       -10.7283    0.6664    4.4362 C.3       1 <0>         0.0898
     27 C23       -11.6494    0.8170    5.6625 C.3       1 <0>         0.0871
     28 N4        -10.7301    1.1807    6.7511 N.am      1 <0>        -0.7327
     29 C24        -9.4802    1.2337    6.2723 C.2       1 <0>         0.7000
     30 O1         -8.5172    1.5083    6.9620 O.2       1 <0>        -0.5776
     31 F1          3.5389    2.1063   -0.0213 F         1 <0>        -0.1276
     32 H1         -0.9590    1.9118    0.0260 H         1 <0>         0.1391
     33 H2          1.1561    3.1700    0.0080 H         1 <0>         0.1488
     34 H3          3.3432   -0.4959   -0.0345 H         1 <0>         0.1499
     35 H4          1.2315   -1.7598   -0.0203 H         1 <0>         0.1411
     36 H5         -2.2541    0.2401    1.6556 H         1 <0>         0.1691
     37 H6          0.1466   -2.0149   -2.1816 H         1 <0>         0.1333
     38 H7         -0.9074   -3.8472   -3.4259 H         1 <0>         0.1426
     39 H8         -4.3833   -3.5900   -0.9659 H         1 <0>         0.1336
     40 H9         -5.1611   -2.2499    0.9021 H         1 <0>         0.0971
     41 H10        -3.8271   -2.7315    2.9171 H         1 <0>         0.1158
     42 H11        -3.6594   -0.9891    3.2440 H         1 <0>         0.0884
     43 H12        -6.2882   -2.5373    3.1423 H         1 <0>         0.1304
     44 H13        -5.4673   -1.9836    4.6207 H         1 <0>         0.1320
     45 H14        -7.2250   -0.9960    1.6341 H         1 <0>         0.1319
     46 H15        -7.1311    0.7541    1.9420 H         1 <0>         0.1316
     47 H16        -4.6740    0.6804    1.6106 H         1 <0>         0.0885
     48 H17        -5.5315    0.0731    0.1729 H         1 <0>         0.1159
     49 H18        -8.2379   -1.1638    3.7899 H         1 <0>         0.1318
     50 H19        -7.3173   -0.7265    5.2492 H         1 <0>         0.1351
     51 H20        -7.4442    1.6665    4.6123 H         1 <0>         0.1060
     52 H21        -8.3648    1.2293    3.1530 H         1 <0>         0.1030
     53 H22       -11.0011    1.3839    3.6624 H         1 <0>         0.0916
     54 H23       -10.7713   -0.3513    4.0481 H         1 <0>         0.0867
     55 H24       -12.3795    1.6093    5.4975 H         1 <0>         0.0926
     56 H25       -12.1498   -0.1259    5.8832 H         1 <0>         0.0914
     57 H26       -10.9875    1.3510    7.6707 H         1 <0>         0.4382
     58 H27        -5.6719    0.2583    3.7840 H         1 <0>         0.4243
@<TRIPOS>BOND
     1    1    6 ar
     2    1    2 ar
     3    1   32 1
     4    2    3 ar
     5    2   33 1
     6    3    4 ar
     7    3   31 1
     8    4    5 ar
     9    4   34 1
    10    5    6 ar
    11    5   35 1
    12    6    7 1
    13    7   11 1
    14    7    8 1
    15    8    9 2
    16    8   36 1
    17    9   10 1
    18    9   17 1
    19   10   15 ar
    20   10   11 ar
    21   11   12 ar
    22   12   13 ar
    23   12   37 1
    24   13   14 ar
    25   13   38 1
    26   14   15 ar
    27   14   16 1
    28   15   39 1
    29   17   22 1
    30   17   18 1
    31   17   40 1
    32   18   19 1
    33   18   41 1
    34   18   42 1
    35   19   20 1
    36   19   43 1
    37   19   44 1
    38   20   21 1
    39   20   23 1
    40   20   58 1
    41   21   22 1
    42   21   45 1
    43   21   46 1
    44   22   47 1
    45   22   48 1
    46   23   24 1
    47   23   49 1
    48   23   50 1
    49   24   25 1
    50   24   51 1
    51   24   52 1
    52   25   29 am
    53   25   26 1
    54   26   27 1
    55   26   53 1
    56   26   54 1
    57   27   28 1
    58   27   55 1
    59   27   56 1
    60   28   29 am
    61   28   57 1
    62   29   30 2
@<TRIPOS>MOLECULE
ZINC13766777
   45    46     0     0     0
SMALL
USER_CHARGES
N-[2-(3-methylphenoxy)ethyl]-3-phenoxy-propan-1-amine
@<TRIPOS>ATOM
      1 C1         -0.0652    5.3506    0.0290 C.3       1 <0>        -0.1233
      2 C2         -0.0492    3.8437    0.0217 C.ar      1 <0>        -0.0400
      3 C3          1.1560    3.1657    0.0071 C.ar      1 <0>        -0.1425
      4 C4          1.1741    1.7834    0.0004 C.ar      1 <0>        -0.0736
      5 C5         -0.0126    1.0758    0.0080 C.ar      1 <0>        -0.2103
      6 C6         -1.2228    1.7536    0.0174 C.ar      1 <0>         0.1151
      7 C7         -1.2382    3.1410    0.0293 C.ar      1 <0>        -0.1453
      8 O1         -2.3914    1.0598    0.0191 O.3       1 <0>        -0.3304
      9 C8         -2.2993   -0.3662    0.0109 C.3       1 <0>         0.0245
     10 C9         -3.7060   -0.9681    0.0143 C.3       1 <0>         0.0056
     11 C10        -5.7491   -1.1780   -1.2679 C.3       1 <0>        -0.0010
     12 C11        -6.4306   -0.7908   -2.5819 C.3       1 <0>        -0.1524
     13 C12        -7.8437   -1.3764   -2.6154 C.3       1 <0>         0.0628
     14 O2         -8.4803   -1.0147   -3.8426 O.3       1 <0>        -0.3142
     15 C13        -9.7506   -1.4584   -4.0329 C.ar      1 <0>         0.1181
     16 C14       -10.3696   -2.2310   -3.0610 C.ar      1 <0>        -0.2082
     17 C15       -11.6629   -2.6765   -3.2545 C.ar      1 <0>        -0.0800
     18 C16       -12.3366   -2.3617   -4.4202 C.ar      1 <0>        -0.1479
     19 C17       -11.7198   -1.5967   -5.3929 C.ar      1 <0>        -0.0771
     20 C18       -10.4285   -1.1444   -5.2018 C.ar      1 <0>        -0.1465
     21 H1         -0.0789    5.7188   -0.9969 H         1 <0>         0.0792
     22 H2         -0.9541    5.7020    0.5529 H         1 <0>         0.0721
     23 H3          0.8257    5.7211    0.5361 H         1 <0>         0.0755
     24 H4          2.0847    3.7171    0.0005 H         1 <0>         0.1315
     25 H5          2.1166    1.2562   -0.0110 H         1 <0>         0.1318
     26 H6          0.0021   -0.0041    0.0020 H         1 <0>         0.1267
     27 H7         -2.1792    3.6709    0.0404 H         1 <0>         0.1324
     28 H8         -1.7674   -0.6908   -0.8833 H         1 <0>         0.0876
     29 H9         -1.7590   -0.7005    0.8966 H         1 <0>         0.1106
     30 H10        -3.6369   -2.0527    0.0977 H         1 <0>         0.1520
     31 H11        -4.2679   -0.5737    0.8609 H         1 <0>         0.1435
     32 H12        -5.6942   -2.2641   -1.1935 H         1 <0>         0.1363
     33 H13        -6.3252   -0.7851   -0.4302 H         1 <0>         0.1364
     34 H14        -6.4856    0.2953   -2.6563 H         1 <0>         0.1003
     35 H15        -5.8545   -1.1837   -3.4196 H         1 <0>         0.0999
     36 H16        -7.7888   -2.4624   -2.5409 H         1 <0>         0.0723
     37 H17        -8.4198   -0.9834   -1.7776 H         1 <0>         0.0725
     38 H18        -9.8424   -2.4806   -2.1521 H         1 <0>         0.1246
     39 H19       -12.1466   -3.2748   -2.4966 H         1 <0>         0.1286
     40 H20       -13.3461   -2.7144   -4.5715 H         1 <0>         0.1294
     41 H21       -12.2481   -1.3522   -6.3026 H         1 <0>         0.1349
     42 H22        -9.9471   -0.5472   -5.9620 H         1 <0>         0.1324
     43 N1         -4.3880   -0.6099   -1.2436 N.4       1 <0>        -0.5191
     44 H23        -3.8520   -0.9808   -2.0370 H         1 <0>         0.4337
     45 H24        -4.4463    0.4125   -1.3180 H         1 <0>         0.4413
@<TRIPOS>BOND
     1    1    2 1
     2    1   21 1
     3    1   22 1
     4    1   23 1
     5    2    7 ar
     6    2    3 ar
     7    3    4 ar
     8    3   24 1
     9    4    5 ar
    10    4   25 1
    11    5    6 ar
    12    5   26 1
    13    6    7 ar
    14    6    8 1
    15    7   27 1
    16    8    9 1
    17    9   10 1
    18    9   28 1
    19    9   29 1
    20   10   30 1
    21   10   31 1
    22   10   43 1
    23   11   12 1
    24   11   32 1
    25   11   33 1
    26   11   43 1
    27   12   13 1
    28   12   34 1
    29   12   35 1
    30   13   14 1
    31   13   36 1
    32   13   37 1
    33   14   15 1
    34   15   20 ar
    35   15   16 ar
    36   16   17 ar
    37   16   38 1
    38   17   18 ar
    39   17   39 1
    40   18   19 ar
    41   18   40 1
    42   19   20 ar
    43   19   41 1
    44   20   42 1
    45   43   44 1
    46   43   45 1
@<TRIPOS>MOLECULE
ZINC13766768
   42    43     0     0     0
SMALL
USER_CHARGES
3-phenoxy-N-(2-phenoxyethyl)propan-1-amine
@<TRIPOS>ATOM
      1 C1         -0.0126    1.0758    0.0080 C.ar      1 <0>        -0.1479
      2 C2         -1.2199    1.7496    0.0174 C.ar      1 <0>        -0.0800
      3 C3         -1.2413    3.1308    0.0307 C.ar      1 <0>        -0.2082
      4 C4         -0.0501    3.8419    0.0227 C.ar      1 <0>         0.1181
      5 C5          1.1599    3.1635    0.0075 C.ar      1 <0>        -0.1465
      6 C6          1.1760    1.7822    0.0004 C.ar      1 <0>        -0.0770
      7 O1         -0.0685    5.2008    0.0293 O.3       1 <0>        -0.3142
      8 C7         -1.3504    5.8322    0.0450 C.3       1 <0>         0.0628
      9 C8         -1.1705    7.3515    0.0503 C.3       1 <0>        -0.1523
     10 C9         -2.5430    8.0275    0.0671 C.3       1 <0>        -0.0010
     11 C10        -3.6703   10.1703    0.0884 C.3       1 <0>         0.0057
     12 C11        -3.4500   11.6843    0.0933 C.3       1 <0>         0.0243
     13 O2         -2.8301   12.0794   -1.1321 O.3       1 <0>        -0.3304
     14 C12        -2.5632   13.4026   -1.2899 C.ar      1 <0>         0.1097
     15 C13        -2.8964   14.3029   -0.2883 C.ar      1 <0>        -0.2033
     16 C14        -2.6192   15.6467   -0.4490 C.ar      1 <0>        -0.0786
     17 C15        -2.0198   16.0961   -1.6111 C.ar      1 <0>        -0.1399
     18 C16        -1.6920   15.2016   -2.6132 C.ar      1 <0>        -0.0772
     19 C17        -1.9623   13.8561   -2.4552 C.ar      1 <0>        -0.1422
     20 H1          0.0021   -0.0041    0.0020 H         1 <0>         0.1294
     21 H2         -2.1470    1.1956    0.0184 H         1 <0>         0.1286
     22 H3         -2.1846    3.6567    0.0422 H         1 <0>         0.1246
     23 H4          2.0886    3.7149    0.0009 H         1 <0>         0.1324
     24 H5          2.1177    1.2536   -0.0114 H         1 <0>         0.1349
     25 H6         -1.9122    5.5359   -0.8409 H         1 <0>         0.0725
     26 H7         -1.8945    5.5275    0.9390 H         1 <0>         0.0723
     27 H8         -0.6088    7.6478    0.9362 H         1 <0>         0.0999
     28 H9         -0.6264    7.6562   -0.8437 H         1 <0>         0.1004
     29 H10        -3.1048    7.7313   -0.8187 H         1 <0>         0.1364
     30 H11        -3.0871    7.7229    0.9611 H         1 <0>         0.1363
     31 H12        -4.2399    9.8889   -0.7973 H         1 <0>         0.1436
     32 H13        -4.2222    9.8805    0.9825 H         1 <0>         0.1520
     33 H14        -4.4098   12.1908    0.1948 H         1 <0>         0.1106
     34 H15        -2.8060   11.9550    0.9301 H         1 <0>         0.0876
     35 H16        -3.3683   13.9530    0.6178 H         1 <0>         0.1272
     36 H17        -2.8750   16.3475    0.3320 H         1 <0>         0.1317
     37 H18        -1.8077   17.1476   -1.7365 H         1 <0>         0.1321
     38 H19        -1.2239   15.5550   -3.5200 H         1 <0>         0.1370
     39 H20        -1.7063   13.1578   -3.2384 H         1 <0>         0.1330
     40 N1         -2.3608    9.4913    0.0722 N.4       1 <0>        -0.5191
     41 H21        -1.8445    9.7713   -0.7699 H         1 <0>         0.4413
     42 H22        -1.8279    9.7633    0.9066 H         1 <0>         0.4337
@<TRIPOS>BOND
     1    1    6 ar
     2    1    2 ar
     3    1   20 1
     4    2    3 ar
     5    2   21 1
     6    3    4 ar
     7    3   22 1
     8    4    5 ar
     9    4    7 1
    10    5    6 ar
    11    5   23 1
    12    6   24 1
    13    7    8 1
    14    8    9 1
    15    8   25 1
    16    8   26 1
    17    9   10 1
    18    9   27 1
    19    9   28 1
    20   10   29 1
    21   10   30 1
    22   10   40 1
    23   11   12 1
    24   11   31 1
    25   11   32 1
    26   11   40 1
    27   12   13 1
    28   12   33 1
    29   12   34 1
    30   13   14 1
    31   14   19 ar
    32   14   15 ar
    33   15   16 ar
    34   15   35 1
    35   16   17 ar
    36   16   36 1
    37   17   18 ar
    38   17   37 1
    39   18   19 ar
    40   18   38 1
    41   19   39 1
    42   40   41 1
    43   40   42 1
@<TRIPOS>MOLECULE
ZINC22064446
   39    41     0     0     0
SMALL
USER_CHARGES
(4aR,10bR)-4-propyl-2,3,4a,5,6,10b-hexahydronaphtho[8,7-b][1,4]oxazin-9-ol
@<TRIPOS>ATOM
      1 C1          8.4964    3.0602    0.8397 C.3       1 <0>        -0.1538
      2 C2          7.2788    3.8820    0.4118 C.3       1 <0>        -0.1209
      3 C3          5.9995    3.1269    0.7783 C.3       1 <0>         0.0479
      4 N1          4.8305    3.9160    0.3676 N.3       1 <0>        -0.5341
      5 C4          4.7163    5.1466    1.1689 C.3       1 <0>         0.0131
      6 C5          3.5049    5.9590    0.7089 C.3       1 <0>         0.0612
      7 O1          2.3295    5.1403    0.7778 O.3       1 <0>        -0.3779
      8 C6          2.4273    3.9685   -0.0287 C.3       1 <0>         0.1438
      9 H1          2.5729    4.3322   -1.0566 H         1 <0>         0.0801
     10 C7          3.5983    3.1294    0.4842 C.3       1 <0>         0.0613
     11 H2          3.5036    2.8763    1.5505 H         1 <0>         0.0544
     12 C8          3.6672    1.8513   -0.3504 C.3       1 <0>        -0.1136
     13 C9          2.4631    0.9816    0.0104 C.3       1 <0>        -0.0751
     14 C10         1.1857    1.7793    0.0003 C.ar      1 <0>        -0.1117
     15 C11         1.1633    3.1593   -0.0016 C.ar      1 <0>        -0.0372
     16 C12        -0.0491    3.8312    0.0172 C.ar      1 <0>        -0.1388
     17 C13        -1.2423    3.1280    0.0295 C.ar      1 <0>         0.1506
     18 C14        -1.2198    1.7410    0.0173 C.ar      1 <0>        -0.2062
     19 C15        -0.0126    1.0758    0.0080 C.ar      1 <0>        -0.0825
     20 O2         -2.4276    3.7926    0.0484 O.3       1 <0>        -0.5097
     21 H3          9.4161    3.6031    0.5762 H         1 <0>         0.0582
     22 H4          8.4831    2.0890    0.3233 H         1 <0>         0.0557
     23 H5          8.4653    2.8977    1.9272 H         1 <0>         0.0529
     24 H6          7.2921    4.8532    0.9282 H         1 <0>         0.0612
     25 H7          7.3099    4.0445   -0.6757 H         1 <0>         0.0716
     26 H8          5.9862    2.1558    0.2618 H         1 <0>         0.0831
     27 H9          5.9685    2.9643    1.8658 H         1 <0>         0.0348
     28 H10         4.5940    4.8832    2.2299 H         1 <0>         0.0436
     29 H11         5.6266    5.7514    1.0438 H         1 <0>         0.0915
     30 H12         3.3815    6.8352    1.3624 H         1 <0>         0.1034
     31 H13         3.6598    6.2935   -0.3275 H         1 <0>         0.0627
     32 H14         3.6409    2.1096   -1.4193 H         1 <0>         0.0775
     33 H15         4.6016    1.3163   -0.1253 H         1 <0>         0.0780
     34 H16         2.3695    0.1640   -0.7195 H         1 <0>         0.0807
     35 H17         2.6034    0.5604    1.0168 H         1 <0>         0.0759
     36 H18        -0.0634    4.9111    0.0218 H         1 <0>         0.1325
     37 H19        -2.1451    1.1842    0.0189 H         1 <0>         0.1275
     38 H20         0.0021   -0.0041    0.0020 H         1 <0>         0.1254
     39 H21        -3.3732    3.2306    0.0581 H         1 <0>         0.4330
@<TRIPOS>BOND
     1    1    2 1
     2    1   21 1
     3    1   22 1
     4    1   23 1
     5    2    3 1
     6    2   24 1
     7    2   25 1
     8    3    4 1
     9    3   26 1
    10    3   27 1
    11    4   10 1
    12    4    5 1
    13    5    6 1
    14    5   28 1
    15    5   29 1
    16    6    7 1
    17    6   30 1
    18    6   31 1
    19    7    8 1
    20    8    9 1
    21    8   15 1
    22    8   10 1
    23   10   11 1
    24   10   12 1
    25   12   13 1
    26   12   32 1
    27   12   33 1
    28   13   14 1
    29   13   34 1
    30   13   35 1
    31   14   19 ar
    32   14   15 ar
    33   15   16 ar
    34   16   17 ar
    35   16   36 1
    36   17   18 ar
    37   17   20 1
    38   18   19 ar
    39   18   37 1
    40   19   38 1
    41   20   39 1
@<TRIPOS>MOLECULE
ZINC04257980
   52    54     0     0     0
SMALL
USER_CHARGES

@<TRIPOS>ATOM
      1 C1         -0.0167    1.3782    0.0096 C.ar      1 <0>        -0.0781
      2 C2          1.1703    2.0860    0.0021 C.ar      1 <0>        -0.1497
      3 C3          2.3786    1.4101   -0.0131 C.ar      1 <0>         0.1095
      4 C4          2.3962    0.0256   -0.0207 C.ar      1 <0>        -0.1491
      5 C5          1.2079   -0.6800   -0.0132 C.ar      1 <0>        -0.0822
      6 C6          0.0021   -0.0041    0.0020 C.ar      1 <0>        -0.1420
      7 C7         -1.2930   -0.7747    0.0103 C.3       1 <0>         0.1541
      8 H1         -2.0956   -0.1325    0.3729 H         1 <0>         0.1125
      9 C8         -1.6168   -1.2431   -1.4098 C.3       1 <0>        -0.1464
     10 C9         -2.9905   -1.9166   -1.4239 C.3       1 <0>        -0.1470
     11 C10        -3.3143   -2.3850   -2.8440 C.3       1 <0>        -0.0097
     12 N1         -4.6332   -3.0316   -2.8576 N.4       1 <0>        -0.3828
     13 C11        -4.5881   -4.2491   -2.0389 C.3       1 <0>        -0.0084
     14 C12        -5.9797   -4.8829   -1.9834 C.3       1 <0>        -0.1328
     15 C13        -6.4303   -5.2372   -3.4035 C.3       1 <0>         0.1746
     16 C14        -6.4022   -3.9732   -4.2677 C.3       1 <0>        -0.1705
     17 C15        -4.9949   -3.3731   -4.2385 C.3       1 <0>        -0.0021
     18 C16        -7.8317   -5.7900   -3.3644 C.ar      1 <0>        -0.1262
     19 C17        -8.7143   -5.3669   -2.3882 C.ar      1 <0>        -0.1006
     20 C18        -9.9997   -5.8735   -2.3518 C.ar      1 <0>        -0.1039
     21 C19       -10.4031   -6.8042   -3.2927 C.ar      1 <0>        -0.0247
     22 C20        -9.5193   -7.2272   -4.2695 C.ar      1 <0>        -0.1015
     23 C21        -8.2359   -6.7157   -4.3082 C.ar      1 <0>        -0.0934
     24 Cl1       -12.0173   -7.4413   -3.2473 Cl        1 <0>        -0.0499
     25 O1         -5.5451   -6.2135   -3.9560 O.3       1 <0>        -0.5475
     26 O2         -1.1663   -1.9098    0.8690 O.3       1 <0>        -0.5520
     27 F1          3.5396    2.1009   -0.0209 F         1 <0>        -0.1327
     28 H2         -0.9592    1.9052    0.0260 H         1 <0>         0.1347
     29 H3          1.1554    3.1659    0.0077 H         1 <0>         0.1411
     30 H4          3.3381   -0.5027   -0.0329 H         1 <0>         0.1406
     31 H5          1.2213   -1.7599   -0.0195 H         1 <0>         0.1298
     32 H6         -1.6258   -0.3852   -2.0822 H         1 <0>         0.0873
     33 H7         -0.8598   -1.9549   -1.7391 H         1 <0>         0.0804
     34 H8         -2.9815   -2.7744   -0.7516 H         1 <0>         0.0957
     35 H9         -3.7475   -1.2048   -1.0947 H         1 <0>         0.0886
     36 H10        -3.3233   -1.5271   -3.5164 H         1 <0>         0.1308
     37 H11        -2.5573   -3.0968   -3.1733 H         1 <0>         0.1301
     38 H12        -3.8846   -4.9561   -2.4785 H         1 <0>         0.1378
     39 H13        -4.2642   -3.9957   -1.0294 H         1 <0>         0.1360
     40 H14        -5.9437   -5.7876   -1.3766 H         1 <0>         0.1236
     41 H15        -6.6840   -4.1767   -1.5437 H         1 <0>         0.1041
     42 H16        -6.6682   -4.2278   -5.2936 H         1 <0>         0.1172
     43 H17        -7.1153   -3.2482   -3.8753 H         1 <0>         0.1007
     44 H18        -4.9714   -2.4731   -4.8530 H         1 <0>         0.1323
     45 H19        -4.2827   -4.0988   -4.6313 H         1 <0>         0.1348
     46 H20        -8.3992   -4.6406   -1.6536 H         1 <0>         0.1333
     47 H21       -10.6891   -5.5431   -1.5889 H         1 <0>         0.1408
     48 H22        -9.8335   -7.9539   -5.0040 H         1 <0>         0.1414
     49 H23        -7.5474   -7.0422   -5.0736 H         1 <0>         0.1323
     50 H24        -5.7714   -6.4850   -4.8561 H         1 <0>         0.3907
     51 H25        -0.4692   -2.5262    0.6060 H         1 <0>         0.3775
     52 H26        -5.3210   -2.3985   -2.4776 H         1 <0>         0.4206
@<TRIPOS>BOND
     1    1    6 ar
     2    1    2 ar
     3    1   28 1
     4    2    3 ar
     5    2   29 1
     6    3    4 ar
     7    3   27 1
     8    4    5 ar
     9    4   30 1
    10    5    6 ar
    11    5   31 1
    12    6    7 1
    13    7    8 1
    14    7    9 1
    15    7   26 1
    16    9   10 1
    17    9   32 1
    18    9   33 1
    19   10   11 1
    20   10   34 1
    21   10   35 1
    22   11   12 1
    23   11   36 1
    24   11   37 1
    25   12   17 1
    26   12   13 1
    27   12   52 1
    28   13   14 1
    29   13   38 1
    30   13   39 1
    31   14   15 1
    32   14   40 1
    33   14   41 1
    34   15   16 1
    35   15   18 1
    36   15   25 1
    37   16   17 1
    38   16   42 1
    39   16   43 1
    40   17   44 1
    41   17   45 1
    42   18   23 ar
    43   18   19 ar
    44   19   20 ar
    45   19   46 1
    46   20   21 ar
    47   20   47 1
    48   21   22 ar
    49   21   24 1
    50   22   23 ar
    51   22   48 1
    52   23   49 1
    53   25   50 1
    54   26   51 1
@<TRIPOS>MOLECULE
ZINC02516030
   52    54     0     0     0
SMALL
USER_CHARGES

@<TRIPOS>ATOM
      1 C1         -0.0167    1.3782    0.0096 C.ar      1 <0>        -0.0790
      2 C2          1.1703    2.0860    0.0021 C.ar      1 <0>        -0.1495
      3 C3          2.3786    1.4101   -0.0131 C.ar      1 <0>         0.1092
      4 C4          2.3962    0.0256   -0.0207 C.ar      1 <0>        -0.1488
      5 C5          1.2079   -0.6800   -0.0132 C.ar      1 <0>        -0.0820
      6 C6          0.0021   -0.0041    0.0020 C.ar      1 <0>        -0.1420
      7 C7         -1.2930   -0.7747    0.0103 C.3       1 <0>         0.1541
      8 H1         -2.0856   -0.1577   -0.4132 H         1 <0>         0.1128
      9 C8         -1.6532   -1.1512    1.4488 C.3       1 <0>        -0.1462
     10 C9         -3.0274   -1.8235    1.4711 C.3       1 <0>        -0.1467
     11 C10        -3.3877   -2.2001    2.9096 C.3       1 <0>        -0.0097
     12 N1         -4.7071   -2.8456    2.9311 N.4       1 <0>        -0.3828
     13 C11        -5.7288   -1.8814    2.5057 C.3       1 <0>        -0.0083
     14 C12        -7.0937   -2.5708    2.4483 C.3       1 <0>        -0.1330
     15 C13        -7.4457   -3.1104    3.8375 C.3       1 <0>         0.1747
     16 C14        -6.3361   -4.0578    4.3026 C.3       1 <0>        -0.1705
     17 C15        -4.9993   -3.3133    4.2913 C.3       1 <0>        -0.0020
     18 C16        -8.7522   -3.8585    3.7714 C.ar      1 <0>        -0.1263
     19 C17        -9.1187   -4.5073    2.6069 C.ar      1 <0>        -0.1006
     20 C18       -10.3168   -5.1936    2.5456 C.ar      1 <0>        -0.1039
     21 C19       -11.1494   -5.2313    3.6499 C.ar      1 <0>        -0.0247
     22 C20       -10.7821   -4.5818    4.8150 C.ar      1 <0>        -0.1015
     23 C21        -9.5811   -3.9006    4.8769 C.ar      1 <0>        -0.0934
     24 Cl1       -12.6547   -6.0927    3.5735 Cl        1 <0>        -0.0499
     25 O1         -7.5621   -2.0229    4.7572 O.3       1 <0>        -0.5476
     26 O2         -1.1454   -1.9625   -0.7703 O.3       1 <0>        -0.5520
     27 F1          3.5396    2.1009   -0.0209 F         1 <0>        -0.1327
     28 H2         -0.9592    1.9052    0.0260 H         1 <0>         0.1345
     29 H3          1.1554    3.1659    0.0077 H         1 <0>         0.1411
     30 H4          3.3381   -0.5027   -0.0329 H         1 <0>         0.1406
     31 H5          1.2213   -1.7599   -0.0195 H         1 <0>         0.1302
     32 H6         -0.9054   -1.8398    1.8423 H         1 <0>         0.0805
     33 H7         -1.6786   -0.2520    2.0642 H         1 <0>         0.0873
     34 H8         -3.7752   -1.1350    1.0776 H         1 <0>         0.0891
     35 H9         -3.0020   -2.7228    0.8556 H         1 <0>         0.0949
     36 H10        -2.6399   -2.8886    3.3031 H         1 <0>         0.1307
     37 H11        -3.4131   -1.3008    3.5251 H         1 <0>         0.1302
     38 H12        -5.7684   -1.0568    3.2175 H         1 <0>         0.1380
     39 H13        -5.4752   -1.4958    1.5182 H         1 <0>         0.1349
     40 H14        -7.8512   -1.8528    2.1340 H         1 <0>         0.1236
     41 H15        -7.0553   -3.3954    1.7365 H         1 <0>         0.1044
     42 H16        -6.5521   -4.4027    5.3138 H         1 <0>         0.1172
     43 H17        -6.2819   -4.9133    3.6294 H         1 <0>         0.1008
     44 H18        -4.2070   -3.9849    4.6221 H         1 <0>         0.1323
     45 H19        -5.0544   -2.4582    4.9651 H         1 <0>         0.1348
     46 H20        -8.4688   -4.4775    1.7449 H         1 <0>         0.1334
     47 H21       -10.6032   -5.7001    1.6358 H         1 <0>         0.1408
     48 H22       -11.4318   -4.6106    5.6773 H         1 <0>         0.1414
     49 H23        -9.2920   -3.3975    5.7879 H         1 <0>         0.1323
     50 H24        -7.7841   -2.2924    5.6589 H         1 <0>         0.3908
     51 H25        -0.4557   -2.5601   -0.4506 H         1 <0>         0.3775
     52 H26        -4.7059   -3.6321    2.2990 H         1 <0>         0.4210
@<TRIPOS>BOND
     1    1    6 ar
     2    1    2 ar
     3    1   28 1
     4    2    3 ar
     5    2   29 1
     6    3    4 ar
     7    3   27 1
     8    4    5 ar
     9    4   30 1
    10    5    6 ar
    11    5   31 1
    12    6    7 1
    13    7    8 1
    14    7    9 1
    15    7   26 1
    16    9   10 1
    17    9   32 1
    18    9   33 1
    19   10   11 1
    20   10   34 1
    21   10   35 1
    22   11   12 1
    23   11   36 1
    24   11   37 1
    25   12   17 1
    26   12   13 1
    27   12   52 1
    28   13   14 1
    29   13   38 1
    30   13   39 1
    31   14   15 1
    32   14   40 1
    33   14   41 1
    34   15   16 1
    35   15   18 1
    36   15   25 1
    37   16   17 1
    38   16   42 1
    39   16   43 1
    40   17   44 1
    41   17   45 1
    42   18   23 ar
    43   18   19 ar
    44   19   20 ar
    45   19   46 1
    46   20   21 ar
    47   20   47 1
    48   21   22 ar
    49   21   24 1
    50   22   23 ar
    51   22   48 1
    52   23   49 1
    53   25   50 1
    54   26   51 1
@<TRIPOS>MOLECULE
ZINC00013635
   48    50     0     0     0
SMALL
USER_CHARGES
1-(4-fluorophenyl)-4-[4-(5-fluoropyrimidin-2-yl)piperazin-1-yl]-butan-1-ol
@<TRIPOS>ATOM
      1 C1          1.0412    1.5837    3.0363 C.ar      1 <0>        -0.0821
      2 C2          1.6394    1.0387    4.1565 C.ar      1 <0>        -0.1487
      3 C3          1.1287   -0.1186    4.7195 C.ar      1 <0>         0.1092
      4 C4          0.0154   -0.7251    4.1629 C.ar      1 <0>        -0.1494
      5 C5         -0.5848   -0.1748    3.0463 C.ar      1 <0>        -0.0791
      6 C6         -0.0738    0.9805    2.4848 C.ar      1 <0>        -0.1421
      7 C7         -0.7288    1.5792    1.2668 C.3       1 <0>         0.1541
      8 H1         -1.7755    1.2768    1.2315 H         1 <0>         0.1127
      9 C8         -0.0127    1.0858    0.0080 C.3       1 <0>        -0.1461
     10 C9         -0.7527    1.5927   -1.2315 C.3       1 <0>        -0.1479
     11 C10        -0.0366    1.0992   -2.4903 C.3       1 <0>        -0.0043
     12 C11        -2.0820    0.9798   -3.7813 C.3       1 <0>         0.0008
     13 C12        -2.8179    1.5708   -4.9862 C.3       1 <0>         0.0351
     14 N1         -2.0359    1.3212   -6.2051 N.pl3     1 <0>        -0.4598
     15 C13        -0.7009    1.9272   -6.1043 C.3       1 <0>         0.0392
     16 C14         0.0349    1.3363   -4.8994 C.3       1 <0>         0.0015
     17 C15        -2.7060    1.7802   -7.3275 C.ar      1 <0>         0.4661
     18 N2         -2.1100    2.6561   -8.1225 N.ar      1 <0>        -0.5236
     19 C16        -2.7192    3.1114   -9.2050 C.ar      1 <0>         0.1560
     20 C17        -4.0015    2.6679   -9.4965 C.ar      1 <0>        -0.0098
     21 C18        -4.5973    1.7540   -8.6388 C.ar      1 <0>         0.1581
     22 N3         -3.9289    1.3363   -7.5762 N.ar      1 <0>        -0.4963
     23 F1         -4.6552    3.1161  -10.5905 F         1 <0>        -0.1081
     24 O1         -0.6468    3.0043    1.3339 O.3       1 <0>        -0.5522
     25 F2          1.7165   -0.6559    5.8109 F         1 <0>        -0.1327
     26 H2          1.4424    2.4836    2.5939 H         1 <0>         0.1302
     27 H3          2.5075    1.5128    4.5901 H         1 <0>         0.1407
     28 H4         -0.3836   -1.6280    4.6010 H         1 <0>         0.1411
     29 H5         -1.4532   -0.6477    2.6119 H         1 <0>         0.1345
     30 H6          0.0021   -0.0041    0.0020 H         1 <0>         0.0879
     31 H7          1.0099    1.4631    0.0003 H         1 <0>         0.0808
     32 H8         -1.7753    1.2154   -1.2238 H         1 <0>         0.0887
     33 H9         -0.7675    2.6825   -1.2255 H         1 <0>         0.0946
     34 H10         0.9860    1.4765   -2.4981 H         1 <0>         0.1312
     35 H11        -0.0218    0.0093   -2.4963 H         1 <0>         0.1334
     36 H12        -1.9834   -0.0982   -3.9084 H         1 <0>         0.1445
     37 H13        -2.6460    1.1891   -2.8723 H         1 <0>         0.1430
     38 H14        -2.9406    2.6448   -4.8464 H         1 <0>         0.0716
     39 H15        -3.7974    1.1020   -5.0802 H         1 <0>         0.1406
     40 H16        -0.7996    3.0053   -5.9772 H         1 <0>         0.0805
     41 H17        -0.1369    1.7180   -7.0132 H         1 <0>         0.1355
     42 H18         1.0143    1.8054   -4.8055 H         1 <0>         0.1423
     43 H19         0.1580    0.2623   -5.0390 H         1 <0>         0.1418
     44 H20        -2.2262    3.8222   -9.8517 H         1 <0>         0.1904
     45 H21        -5.5941    1.3881   -8.8363 H         1 <0>         0.1926
     46 H22         0.2576    3.3450    1.3680 H         1 <0>         0.3776
     47 N4         -0.7508    1.6135   -3.6783 N.4       1 <0>        -0.4002
     48 H23        -0.8709    2.6286   -3.5819 H         1 <0>         0.4263
@<TRIPOS>BOND
     1    1    6 ar
     2    1    2 ar
     3    1   26 1
     4    2    3 ar
     5    2   27 1
     6    3    4 ar
     7    3   25 1
     8    4    5 ar
     9    4   28 1
    10    5    6 ar
    11    5   29 1
    12    6    7 1
    13    7    8 1
    14    7    9 1
    15    7   24 1
    16    9   10 1
    17    9   30 1
    18    9   31 1
    19   10   11 1
    20   10   32 1
    21   10   33 1
    22   11   34 1
    23   11   35 1
    24   11   47 1
    25   12   13 1
    26   12   36 1
    27   12   37 1
    28   12   47 1
    29   13   14 1
    30   13   38 1
    31   13   39 1
    32   14   15 1
    33   14   17 1
    34   15   16 1
    35   15   40 1
    36   15   41 1
    37   16   42 1
    38   16   43 1
    39   16   47 1
    40   17   22 ar
    41   17   18 ar
    42   18   19 ar
    43   19   20 ar
    44   19   44 1
    45   20   21 ar
    46   20   23 1
    47   21   22 ar
    48   21   45 1
    49   24   46 1
    50   47   48 1
@<TRIPOS>MOLECULE
ZINC12355992
   44    45     0     0     0
SMALL
USER_CHARGES
N-(3-phenoxypropyl)-3-phenyl-propan-1-amine
@<TRIPOS>ATOM
      1 C1         -0.0126    1.0758    0.0080 C.ar      1 <0>        -0.1125
      2 C2         -1.2190    1.7506    0.0173 C.ar      1 <0>        -0.1154
      3 C3         -1.2377    3.1328    0.0299 C.ar      1 <0>        -0.1155
      4 C4         -0.0501    3.8402    0.0228 C.ar      1 <0>        -0.1025
      5 C5          1.1563    3.1654    0.0076 C.ar      1 <0>        -0.1155
      6 C6          1.1750    1.7832    0.0004 C.ar      1 <0>        -0.1154
      7 C7         -0.0705    5.3471    0.0311 C.3       1 <0>        -0.0728
      8 C8         -0.0912    5.8648   -1.4085 C.3       1 <0>        -0.1459
      9 C9         -0.1120    7.3946   -1.4000 C.3       1 <0>        -0.0059
     10 C10        -0.1521    9.3603   -2.8132 C.3       1 <0>        -0.0008
     11 C11        -0.1725    9.8394   -4.2661 C.3       1 <0>        -0.1522
     12 C12        -0.1936   11.3689   -4.2985 C.3       1 <0>         0.0624
     13 O1         -0.2126   11.8164   -5.6555 O.3       1 <0>        -0.3144
     14 C13        -0.2328   13.1595   -5.8620 C.ar      1 <0>         0.1180
     15 C14        -0.2401   14.0287   -4.7807 C.ar      1 <0>        -0.2082
     16 C15        -0.2554   15.3936   -4.9934 C.ar      1 <0>        -0.0800
     17 C16        -0.2739   15.8935   -6.2824 C.ar      1 <0>        -0.1478
     18 C17        -0.2725   15.0292   -7.3616 C.ar      1 <0>        -0.0770
     19 C18        -0.2520   13.6636   -7.1544 C.ar      1 <0>        -0.1465
     20 H1          0.0021   -0.0041    0.0020 H         1 <0>         0.1269
     21 H2         -2.1469    1.1980    0.0187 H         1 <0>         0.1265
     22 H3         -2.1802    3.6600    0.0414 H         1 <0>         0.1214
     23 H4          2.0842    3.7181    0.0017 H         1 <0>         0.1215
     24 H5          2.1175    1.2560   -0.0115 H         1 <0>         0.1265
     25 H6         -0.9604    5.6955    0.5554 H         1 <0>         0.0831
     26 H7          0.8193    5.7197    0.5385 H         1 <0>         0.0830
     27 H8          0.7987    5.5164   -1.9327 H         1 <0>         0.0894
     28 H9         -0.9811    5.4922   -1.9158 H         1 <0>         0.0894
     29 H10        -1.0018    7.7430   -0.8757 H         1 <0>         0.1329
     30 H11         0.7779    7.7673   -0.8926 H         1 <0>         0.1329
     31 H12        -1.0423    9.7223   -2.2988 H         1 <0>         0.1352
     32 H13         0.7374    9.7465   -2.3157 H         1 <0>         0.1352
     33 H14         0.7177    9.4774   -4.7806 H         1 <0>         0.0997
     34 H15        -1.0620    9.4531   -4.7637 H         1 <0>         0.0997
     35 H16        -1.0837   11.7310   -3.7840 H         1 <0>         0.0722
     36 H17         0.6960   11.7552   -3.8009 H         1 <0>         0.0722
     37 H18        -0.2298   13.6387   -3.7737 H         1 <0>         0.1246
     38 H19        -0.2573   16.0708   -4.1520 H         1 <0>         0.1286
     39 H20        -0.2900   16.9608   -6.4465 H         1 <0>         0.1295
     40 H21        -0.2870   15.4221   -8.3675 H         1 <0>         0.1349
     41 H22        -0.2512   12.9889   -7.9977 H         1 <0>         0.1324
     42 N1         -0.1319    7.8855   -2.7909 N.4       1 <0>        -0.5184
     43 H23        -0.9700    7.5280   -3.2642 H         1 <0>         0.4344
     44 H24         0.7064    7.5508   -3.2802 H         1 <0>         0.4344
@<TRIPOS>BOND
     1    1    6 ar
     2    1    2 ar
     3    1   20 1
     4    2    3 ar
     5    2   21 1
     6    3    4 ar
     7    3   22 1
     8    4    5 ar
     9    4    7 1
    10    5    6 ar
    11    5   23 1
    12    6   24 1
    13    7    8 1
    14    7   25 1
    15    7   26 1
    16    8    9 1
    17    8   27 1
    18    8   28 1
    19    9   29 1
    20    9   30 1
    21    9   42 1
    22   10   11 1
    23   10   31 1
    24   10   32 1
    25   10   42 1
    26   11   12 1
    27   11   33 1
    28   11   34 1
    29   12   13 1
    30   12   35 1
    31   12   36 1
    32   13   14 1
    33   14   19 ar
    34   14   15 ar
    35   15   16 ar
    36   15   37 1
    37   16   17 ar
    38   16   38 1
    39   17   18 ar
    40   17   39 1
    41   18   19 ar
    42   18   40 1
    43   19   41 1
    44   42   43 1
    45   42   44 1
@<TRIPOS>MOLECULE
ZINC00004028
   48    50     0     0     0
SMALL
USER_CHARGES

@<TRIPOS>ATOM
      1 C1          2.6184    1.2327    1.6979 C.3       1 <0>        -0.1554
      2 C2          2.4485   -0.2812    1.5557 C.3       1 <0>        -0.1529
      3 C3          0.9894   -0.6020    1.2256 C.3       1 <0>        -0.0212
      4 N1          0.8360   -2.0514    1.0424 N.4       1 <0>        -0.3812
      5 C4          1.6121   -2.4819   -0.1282 C.3       1 <0>        -0.0188
      6 C5          1.0259   -1.8464   -1.3906 C.3       1 <0>        -0.0477
      7 C6          1.7319   -2.3952   -2.6036 C.2       1 <0>        -0.1917
      8 C7          1.4198   -3.4790   -3.3554 C.2       1 <0>        -0.1225
      9 C8          2.2198   -3.7976   -4.4367 C.2       1 <0>        -0.1695
     10 C9          3.2928   -3.0169   -4.7132 C.2       1 <0>        -0.1431
     11 S1          3.1920   -1.7820   -3.4279 S.3       1 <0>         0.0577
     12 C10         1.3251   -2.7506    2.2382 C.3       1 <0>         0.0204
     13 H1          2.3765   -2.5120    2.3985 H         1 <0>         0.1452
     14 C11         0.5055   -2.3190    3.4600 C.3       1 <0>        -0.1385
     15 C12         1.1825   -2.8706    4.7131 C.3       1 <0>        -0.0686
     16 C13         1.4456   -4.3464    4.5666 C.ar      1 <0>        -0.1099
     17 C14         1.4438   -4.9820    3.3461 C.ar      1 <0>        -0.0756
     18 C15         1.7023   -6.3452    3.2794 C.ar      1 <0>        -0.1201
     19 C16         1.9552   -7.0706    4.4259 C.ar      1 <0>        -0.0943
     20 C17         1.9532   -6.4380    5.6538 C.ar      1 <0>        -0.1326
     21 C18         1.6995   -5.0785    5.7249 C.ar      1 <0>         0.1136
     22 O1          1.6981   -4.4542    6.9321 O.3       1 <0>        -0.4942
     23 C19         1.1618   -4.2581    2.0553 C.3       1 <0>        -0.0920
     24 H2          1.9760    1.5966    2.4997 H         1 <0>         0.0674
     25 H3          3.6579    1.4612    1.9330 H         1 <0>         0.0772
     26 H4          2.3422    1.7187    0.7621 H         1 <0>         0.0670
     27 H5          3.0909   -0.6452    0.7538 H         1 <0>         0.0859
     28 H6          2.7247   -0.7673    2.4914 H         1 <0>         0.0880
     29 H7          0.3503   -0.2695    2.0436 H         1 <0>         0.1350
     30 H8          0.7028   -0.0875    0.3084 H         1 <0>         0.1340
     31 H9          2.6495   -2.1682   -0.0117 H         1 <0>         0.1360
     32 H10         1.5682   -3.5676   -0.2140 H         1 <0>         0.1367
     33 H11        -0.0374   -2.0776   -1.4535 H         1 <0>         0.1051
     34 H12         1.1609   -0.7656   -1.3495 H         1 <0>         0.1008
     35 H13         0.5591   -4.0847   -3.1131 H         1 <0>         0.1354
     36 H14         1.9935   -4.6560   -5.0518 H         1 <0>         0.1421
     37 H15         4.0181   -3.1143   -5.5075 H         1 <0>         0.1932
     38 H16         0.4685   -1.2308    3.5115 H         1 <0>         0.0948
     39 H17        -0.5059   -2.7180    3.3832 H         1 <0>         0.0927
     40 H18         2.1277   -2.3508    4.8694 H         1 <0>         0.0894
     41 H19         0.5350   -2.7046    5.5741 H         1 <0>         0.0955
     42 H20         1.7050   -6.8425    2.3207 H         1 <0>         0.1286
     43 H21         2.1539   -8.1303    4.3632 H         1 <0>         0.1354
     44 H22         2.1482   -7.0012    6.5544 H         1 <0>         0.1369
     45 H23         0.8341   -4.4392    7.3661 H         1 <0>         0.3954
     46 H24         0.1413   -4.4732    1.7385 H         1 <0>         0.0975
     47 H25         1.8558   -4.6044    1.2895 H         1 <0>         0.0997
     48 H26        -0.1383   -2.2711    0.8992 H         1 <0>         0.4230
@<TRIPOS>BOND
     1    1    2 1
     2    1   24 1
     3    1   25 1
     4    1   26 1
     5    2    3 1
     6    2   27 1
     7    2   28 1
     8    3    4 1
     9    3   29 1
    10    3   30 1
    11    4    5 1
    12    4   12 1
    13    4   48 1
    14    5    6 1
    15    5   31 1
    16    5   32 1
    17    6    7 1
    18    6   33 1
    19    6   34 1
    20    7   11 1
    21    7    8 2
    22    8    9 1
    23    8   35 1
    24    9   10 2
    25    9   36 1
    26   10   11 1
    27   10   37 1
    28   12   13 1
    29   12   23 1
    30   12   14 1
    31   14   15 1
    32   14   38 1
    33   14   39 1
    34   15   16 1
    35   15   40 1
    36   15   41 1
    37   16   21 ar
    38   16   17 ar
    39   17   18 ar
    40   17   23 1
    41   18   19 ar
    42   18   42 1
    43   19   20 ar
    44   19   43 1
    45   20   21 ar
    46   20   44 1
    47   21   22 1
    48   22   45 1
    49   23   46 1
    50   23   47 1
@<TRIPOS>MOLECULE
ZINC13759806
   26    27     0     0     0
SMALL
USER_CHARGES
(3R)-3-aminotetralin-6-ol
@<TRIPOS>ATOM
      1 C1          1.1590    3.1662    0.0083 C.ar      1 <0>        -0.1316
      2 C2         -0.0486    3.8312    0.0267 C.ar      1 <0>        -0.0951
      3 C3         -1.2451    3.1253    0.0356 C.ar      1 <0>        -0.0954
      4 C4         -1.2267    1.7480    0.0174 C.ar      1 <0>        -0.0764
      5 C5         -0.0126    1.0758    0.0080 C.ar      1 <0>        -0.1401
      6 C6          1.1802    1.7792    0.0003 C.ar      1 <0>         0.1183
      7 O1          2.3652    1.1142   -0.0144 O.3       1 <0>        -0.4960
      8 C7         -2.4855    0.9206    0.0161 C.3       1 <0>        -0.0960
      9 C8         -3.6812    1.7583    0.4645 C.3       1 <0>         0.0308
     10 H1         -3.5820    2.0031    1.5221 H         1 <0>         0.1486
     11 C9         -3.7058    3.0482   -0.3639 C.3       1 <0>        -0.1409
     12 C10        -2.5257    3.9183    0.0637 C.3       1 <0>        -0.0773
     13 H2          2.0845    3.7227    0.0006 H         1 <0>         0.1377
     14 H3         -0.0646    4.9110    0.0346 H         1 <0>         0.1340
     15 H4          0.0021   -0.0041    0.0020 H         1 <0>         0.1325
     16 H5          2.6998    0.9264   -0.9020 H         1 <0>         0.3991
     17 H6         -2.3640    0.0758    0.6941 H         1 <0>         0.1008
     18 H7         -2.6656    0.5482   -0.9924 H         1 <0>         0.0979
     19 H8         -4.6392    3.5819   -0.1846 H         1 <0>         0.0948
     20 H9         -3.6189    2.8065   -1.4232 H         1 <0>         0.0933
     21 H10        -2.6984    4.2863    1.0750 H         1 <0>         0.0902
     22 H11        -2.4390    4.7651   -0.6171 H         1 <0>         0.0980
     23 H12        -4.9284    0.1515    0.7822 H         1 <0>         0.4393
     24 H13        -5.7315    1.5714    0.4587 H         1 <0>         0.4402
     25 N1         -4.9216    1.0012    0.2205 N.4       1 <0>        -0.6443
     26 H14        -4.9717    0.7466   -0.7729 H         1 <0>         0.4377
@<TRIPOS>BOND
     1    1    6 ar
     2    1    2 ar
     3    1   13 1
     4    2    3 ar
     5    2   14 1
     6    3   12 1
     7    3    4 ar
     8    4    5 ar
     9    4    8 1
    10    5    6 ar
    11    5   15 1
    12    6    7 1
    13    7   16 1
    14    8    9 1
    15    8   17 1
    16    8   18 1
    17    9   10 1
    18    9   11 1
    19    9   25 1
    20   11   12 1
    21   11   19 1
    22   11   20 1
    23   12   21 1
    24   12   22 1
    25   23   25 1
    26   24   25 1
    27   25   26 1
@<TRIPOS>MOLECULE
ZINC13759807
   26    27     0     0     0
SMALL
USER_CHARGES
(3S)-3-aminotetralin-6-ol
@<TRIPOS>ATOM
      1 C1          1.8648    1.8234    1.1934 C.ar      1 <0>        -0.1316
      2 C2          3.1199    2.3940    1.1734 C.ar      1 <0>        -0.0951
      3 C3          3.7432    2.6905   -0.0321 C.ar      1 <0>        -0.0957
      4 C4          3.1032    2.4122   -1.2198 C.ar      1 <0>        -0.0760
      5 C5          1.8432    1.8305   -1.2029 C.ar      1 <0>        -0.1402
      6 C6          1.2228    1.5324   -0.0014 C.ar      1 <0>         0.1184
      7 O1         -0.0110    0.9628    0.0073 O.3       1 <0>        -0.4960
      8 C7          3.7134    2.7226   -2.5616 C.3       1 <0>        -0.0930
      9 C8          5.2190    2.9428   -2.4293 C.3       1 <0>         0.0309
     10 H1          5.7075    2.0014   -2.1778 H         1 <0>         0.1452
     11 C9          5.4623    3.9651   -1.3128 C.3       1 <0>        -0.1413
     12 C10         5.1148    3.3112    0.0230 C.3       1 <0>        -0.0771
     13 H2          1.3854    1.6003    2.1350 H         1 <0>         0.1378
     14 H3          3.6215    2.6159    2.1037 H         1 <0>         0.1340
     15 H4          1.3430    1.6084   -2.1339 H         1 <0>         0.1326
     16 H5          0.0021   -0.0041    0.0020 H         1 <0>         0.3990
     17 H6          3.5303    1.8901   -3.2409 H         1 <0>         0.1002
     18 H7          3.2526    3.6238   -2.9661 H         1 <0>         0.0984
     19 H8          4.8288    4.8381   -1.4700 H         1 <0>         0.0938
     20 H9          6.5097    4.2668   -1.3125 H         1 <0>         0.0946
     21 H10         5.1365    4.0660    0.8091 H         1 <0>         0.0981
     22 H11         5.8504    2.5384    0.2464 H         1 <0>         0.0897
     23 H12         5.6073    2.7979   -4.4459 H         1 <0>         0.4391
     24 H13         5.3586    4.3559   -3.9199 H         1 <0>         0.4361
     25 N1          5.7815    3.4582   -3.6900 N.4       1 <0>        -0.6445
     26 H14         6.7948    3.5832   -3.5812 H         1 <0>         0.4426
@<TRIPOS>BOND
     1    1    6 ar
     2    1    2 ar
     3    1   13 1
     4    2    3 ar
     5    2   14 1
     6    3   12 1
     7    3    4 ar
     8    4    5 ar
     9    4    8 1
    10    5    6 ar
    11    5   15 1
    12    6    7 1
    13    7   16 1
    14    8    9 1
    15    8   17 1
    16    8   18 1
    17    9   10 1
    18    9   11 1
    19    9   25 1
    20   11   12 1
    21   11   19 1
    22   11   20 1
    23   12   21 1
    24   12   22 1
    25   23   25 1
    26   24   25 1
    27   25   26 1
@<TRIPOS>MOLECULE
ZINC13759785
   35    36     0     0     0
SMALL
USER_CHARGES
(2R)-N-ethyl-5-methoxy-tetralin-2-amine
@<TRIPOS>ATOM
      1 C1         -0.0127    1.0858    0.0080 C.3       1 <0>        -0.1900
      2 C2         -0.7288    1.5792    1.2668 C.3       1 <0>        -0.0070
      3 C3         -1.4302    3.5588    2.4719 C.3       1 <0>         0.0276
      4 H1         -2.2562    2.8977    2.7342 H         1 <0>         0.1439
      5 C4         -1.9638    4.9701    2.1997 C.3       1 <0>        -0.1384
      6 C5         -2.8656    5.3767    3.3635 C.3       1 <0>        -0.0664
      7 C6         -2.1616    5.1648    4.6782 C.ar      1 <0>        -0.1169
      8 C7         -1.0534    4.3586    4.8040 C.ar      1 <0>        -0.0559
      9 C8         -0.4593    4.1943    6.0488 C.ar      1 <0>        -0.1502
     10 C9         -0.9667    4.8347    7.1610 C.ar      1 <0>        -0.0701
     11 C10        -2.0761    5.6487    7.0388 C.ar      1 <0>        -0.1986
     12 C11        -2.6728    5.8142    5.8002 C.ar      1 <0>         0.1364
     13 O1         -3.7637    6.6153    5.6781 O.3       1 <0>        -0.3144
     14 C12        -4.2374    7.2520    6.8665 C.3       1 <0>         0.0237
     15 C13        -0.4419    3.6331    3.6340 C.3       1 <0>        -0.0899
     16 H2          0.0021   -0.0041    0.0020 H         1 <0>         0.1066
     17 H3          1.0099    1.4631    0.0003 H         1 <0>         0.0805
     18 H4         -0.5399    1.4469   -0.8751 H         1 <0>         0.0807
     19 H5         -1.7514    1.2020    1.2746 H         1 <0>         0.1303
     20 H6         -0.2017    1.2182    2.1499 H         1 <0>         0.1293
     21 H7         -1.1307    5.6684    2.1193 H         1 <0>         0.0928
     22 H8         -2.5370    4.9735    1.2726 H         1 <0>         0.0936
     23 H9         -3.7742    4.7751    3.3413 H         1 <0>         0.0862
     24 H10        -3.1297    6.4294    3.2628 H         1 <0>         0.0985
     25 H11         0.4087    3.5593    6.1473 H         1 <0>         0.1274
     26 H12        -0.4975    4.7001    8.1244 H         1 <0>         0.1334
     27 H13        -2.4765    6.1535    7.9056 H         1 <0>         0.1360
     28 H14        -4.5113    6.4941    7.6003 H         1 <0>         0.0603
     29 H15        -3.4520    7.8872    7.2761 H         1 <0>         0.0603
     30 H16        -5.1101    7.8605    6.6295 H         1 <0>         0.1073
     31 H17        -0.1701    2.6228    3.9399 H         1 <0>         0.0995
     32 H18         0.4539    4.1633    3.3107 H         1 <0>         0.0988
     33 N1         -0.7445    3.0543    1.2672 N.4       1 <0>        -0.5181
     34 H19        -1.2388    3.3880    0.4314 H         1 <0>         0.4326
     35 H20         0.2210    3.4033    1.2559 H         1 <0>         0.4301
@<TRIPOS>BOND
     1    1    2 1
     2    1   16 1
     3    1   17 1
     4    1   18 1
     5    2   19 1
     6    2   20 1
     7    2   33 1
     8    3    4 1
     9    3   15 1
    10    3    5 1
    11    3   33 1
    12    5    6 1
    13    5   21 1
    14    5   22 1
    15    6    7 1
    16    6   23 1
    17    6   24 1
    18    7   12 ar
    19    7    8 ar
    20    8    9 ar
    21    8   15 1
    22    9   10 ar
    23    9   25 1
    24   10   11 ar
    25   10   26 1
    26   11   12 ar
    27   11   27 1
    28   12   13 1
    29   13   14 1
    30   14   28 1
    31   14   29 1
    32   14   30 1
    33   15   31 1
    34   15   32 1
    35   33   34 1
    36   33   35 1
@<TRIPOS>MOLECULE
ZINC13759786
   35    36     0     0     0
SMALL
USER_CHARGES
(2S)-N-ethyl-5-methoxy-tetralin-2-amine
@<TRIPOS>ATOM
      1 C1          2.0293    9.8836    1.0446 C.3       1 <0>        -0.1900
      2 C2          1.9729    8.3800    1.3217 C.3       1 <0>        -0.0070
      3 C3          1.2751    6.2465    0.4140 C.3       1 <0>         0.0274
      4 H1          1.1065    6.0511    1.4730 H         1 <0>         0.1434
      5 C4          0.1291    5.6480   -0.4103 C.3       1 <0>        -0.1380
      6 C5         -0.0733    4.1988    0.0273 C.3       1 <0>        -0.0665
      7 C6          1.2339    3.4509    0.0030 C.ar      1 <0>        -0.1169
      8 C7          2.4529    4.0894   -0.0062 C.ar      1 <0>        -0.0557
      9 C8          3.6226    3.3402   -0.0176 C.ar      1 <0>        -0.1501
     10 C9          3.5749    1.9610   -0.0216 C.ar      1 <0>        -0.0701
     11 C10         2.3537    1.3155   -0.0134 C.ar      1 <0>        -0.1985
     12 C11         1.1850    2.0582    0.0018 C.ar      1 <0>         0.1364
     13 O1         -0.0173    1.4248    0.0099 O.3       1 <0>        -0.3144
     14 C12         0.0021   -0.0041    0.0020 C.3       1 <0>         0.0237
     15 C13         2.5813    5.5903   -0.0184 C.3       1 <0>        -0.0901
     16 H2          2.6159   10.0654    0.1441 H         1 <0>         0.0805
     17 H3          1.0182   10.2651    0.9029 H         1 <0>         0.0807
     18 H4          2.4941   10.3916    1.8897 H         1 <0>         0.1066
     19 H5          1.3864    8.1982    2.2222 H         1 <0>         0.1303
     20 H6          2.9841    7.9985    1.4635 H         1 <0>         0.1293
     21 H7          0.3835    5.6795   -1.4697 H         1 <0>         0.0927
     22 H8         -0.7847    6.2156   -0.2346 H         1 <0>         0.0938
     23 H9         -0.7774    3.7141   -0.6490 H         1 <0>         0.0986
     24 H10        -0.4782    4.1820    1.0392 H         1 <0>         0.0862
     25 H11         4.5788    3.8421   -0.0238 H         1 <0>         0.1274
     26 H12         4.4902    1.3878   -0.0307 H         1 <0>         0.1334
     27 H13         2.3106    0.2364   -0.0183 H         1 <0>         0.1360
     28 H14         0.5293   -0.3651    0.8851 H         1 <0>         0.0603
     29 H15        -1.0205   -0.3814    0.0098 H         1 <0>         0.1073
     30 H16         0.5123   -0.3556   -0.8948 H         1 <0>         0.0603
     31 H17         3.3827    5.8878    0.6578 H         1 <0>         0.1004
     32 H18         2.8223    5.9221   -1.0283 H         1 <0>         0.0975
     33 N1          1.3429    7.7003    0.1740 N.4       1 <0>        -0.5180
     34 H19         1.8978    7.8785   -0.6714 H         1 <0>         0.4301
     35 H20         0.3927    8.0667    0.0433 H         1 <0>         0.4327
@<TRIPOS>BOND
     1    1    2 1
     2    1   16 1
     3    1   17 1
     4    1   18 1
     5    2   19 1
     6    2   20 1
     7    2   33 1
     8    3    4 1
     9    3   15 1
    10    3    5 1
    11    3   33 1
    12    5    6 1
    13    5   21 1
    14    5   22 1
    15    6    7 1
    16    6   23 1
    17    6   24 1
    18    7   12 ar
    19    7    8 ar
    20    8    9 ar
    21    8   15 1
    22    9   10 ar
    23    9   25 1
    24   10   11 ar
    25   10   26 1
    26   11   12 ar
    27   11   27 1
    28   12   13 1
    29   13   14 1
    30   14   28 1
    31   14   29 1
    32   14   30 1
    33   15   31 1
    34   15   32 1
    35   33   34 1
    36   33   35 1
@<TRIPOS>MOLECULE
ZINC13759783
   32    33     0     0     0
SMALL
USER_CHARGES
(2R)-5-methoxy-N-methyl-tetralin-2-amine
@<TRIPOS>ATOM
      1 C1         -0.0127    1.0858    0.0080 C.3       1 <0>        -0.0444
      2 C2         -2.0844    1.0695    1.2612 C.3       1 <0>         0.0259
      3 H1         -2.4951    1.0375    0.2520 H         1 <0>         0.1442
      4 C3         -2.9336    1.9994    2.1358 C.3       1 <0>        -0.1387
      5 C4         -4.4008    1.6083    1.9711 C.3       1 <0>        -0.0666
      6 C5         -4.5822    0.1288    2.1875 C.ar      1 <0>        -0.1171
      7 C6         -3.5344   -0.7618    2.1356 C.ar      1 <0>        -0.0563
      8 C7         -3.7719   -2.1165    2.3303 C.ar      1 <0>        -0.1502
      9 C8         -5.0481   -2.5787    2.5795 C.ar      1 <0>        -0.0700
     10 C9         -6.1024   -1.6881    2.6373 C.ar      1 <0>        -0.1985
     11 C10        -5.8708   -0.3368    2.4421 C.ar      1 <0>         0.1364
     12 O1         -6.9067    0.5409    2.4995 O.3       1 <0>        -0.3144
     13 C11        -8.2022   -0.0009    2.7644 C.3       1 <0>         0.0236
     14 C12        -2.1154   -0.3293    1.8737 C.3       1 <0>        -0.0901
     15 H2          0.0021   -0.0041    0.0020 H         1 <0>         0.1220
     16 H3          1.0099    1.4631    0.0003 H         1 <0>         0.1261
     17 H4         -0.5399    1.4469   -0.8751 H         1 <0>         0.1231
     18 H5         -2.6396    1.8911    3.1798 H         1 <0>         0.0927
     19 H6         -2.7912    3.0326    1.8191 H         1 <0>         0.0938
     20 H7         -4.7312    1.8676    0.9652 H         1 <0>         0.0862
     21 H8         -5.0016    2.1543    2.6985 H         1 <0>         0.0985
     22 H9         -2.9494   -2.8151    2.2867 H         1 <0>         0.1275
     23 H10        -5.2221   -3.6340    2.7293 H         1 <0>         0.1335
     24 H11        -7.1030   -2.0441    2.8335 H         1 <0>         0.1361
     25 H12        -8.1937   -0.5075    3.7295 H         1 <0>         0.0603
     26 H13        -8.9361    0.8047    2.7834 H         1 <0>         0.1074
     27 H14        -8.4649   -0.7134    1.9825 H         1 <0>         0.0603
     28 H15        -1.6462   -1.0331    1.1862 H         1 <0>         0.0998
     29 H16        -1.5631   -0.3225    2.8134 H         1 <0>         0.0989
     30 N1         -0.6958    1.5658    1.2241 N.4       1 <0>        -0.5179
     31 H17        -0.7030    2.5925    1.2256 H         1 <0>         0.4352
     32 H18        -0.1924    1.2258    2.0519 H         1 <0>         0.4326
@<TRIPOS>BOND
     1    1   15 1
     2    1   16 1
     3    1   17 1
     4    1   30 1
     5    2    3 1
     6    2   14 1
     7    2    4 1
     8    2   30 1
     9    4    5 1
    10    4   18 1
    11    4   19 1
    12    5    6 1
    13    5   20 1
    14    5   21 1
    15    6   11 ar
    16    6    7 ar
    17    7    8 ar
    18    7   14 1
    19    8    9 ar
    20    8   22 1
    21    9   10 ar
    22    9   23 1
    23   10   11 ar
    24   10   24 1
    25   11   12 1
    26   12   13 1
    27   13   25 1
    28   13   26 1
    29   13   27 1
    30   14   28 1
    31   14   29 1
    32   30   31 1
    33   30   32 1
@<TRIPOS>MOLECULE
ZINC13759784
   32    33     0     0     0
SMALL
USER_CHARGES
(2S)-5-methoxy-N-methyl-tetralin-2-amine
@<TRIPOS>ATOM
      1 C1          1.9729    8.3800    1.3217 C.3       1 <0>        -0.0444
      2 C2          1.2751    6.2465    0.4140 C.3       1 <0>         0.0258
      3 H1          1.1065    6.0511    1.4730 H         1 <0>         0.1436
      4 C3          0.1291    5.6480   -0.4103 C.3       1 <0>        -0.1383
      5 C4         -0.0733    4.1988    0.0273 C.3       1 <0>        -0.0666
      6 C5          1.2339    3.4509    0.0030 C.ar      1 <0>        -0.1171
      7 C6          2.4529    4.0894   -0.0053 C.ar      1 <0>        -0.0561
      8 C7          3.6226    3.3402   -0.0176 C.ar      1 <0>        -0.1501
      9 C8          3.5749    1.9610   -0.0216 C.ar      1 <0>        -0.0700
     10 C9          2.3537    1.3155   -0.0134 C.ar      1 <0>        -0.1985
     11 C10         1.1850    2.0582    0.0018 C.ar      1 <0>         0.1364
     12 O1         -0.0173    1.4248    0.0099 O.3       1 <0>        -0.3144
     13 C11         0.0021   -0.0041    0.0020 C.3       1 <0>         0.0236
     14 C12         2.5814    5.5903   -0.0165 C.3       1 <0>        -0.0903
     15 H2          2.0131    9.4512    1.1243 H         1 <0>         0.1261
     16 H3          1.3864    8.1982    2.2222 H         1 <0>         0.1231
     17 H4          2.9841    7.9985    1.4635 H         1 <0>         0.1220
     18 H5          0.3835    5.6795   -1.4697 H         1 <0>         0.0927
     19 H6         -0.7847    6.2156   -0.2346 H         1 <0>         0.0940
     20 H7         -0.7774    3.7141   -0.6490 H         1 <0>         0.0986
     21 H8         -0.4782    4.1820    1.0392 H         1 <0>         0.0862
     22 H9          4.5788    3.8421   -0.0238 H         1 <0>         0.1275
     23 H10         4.4902    1.3878   -0.0307 H         1 <0>         0.1335
     24 H11         2.3106    0.2364   -0.0191 H         1 <0>         0.1361
     25 H12        -1.0205   -0.3814    0.0098 H         1 <0>         0.1074
     26 H13         0.5123   -0.3556   -0.8948 H         1 <0>         0.0603
     27 H14         0.5293   -0.3651    0.8851 H         1 <0>         0.0603
     28 H15         3.3830    5.8874    0.6596 H         1 <0>         0.1008
     29 H16         2.8220    5.9228   -1.0263 H         1 <0>         0.0974
     30 N1          1.3429    7.7003    0.1740 N.4       1 <0>        -0.5178
     31 H17         1.8978    7.8785   -0.6714 H         1 <0>         0.4326
     32 H18         0.3927    8.0667    0.0433 H         1 <0>         0.4353
@<TRIPOS>BOND
     1    1   15 1
     2    1   16 1
     3    1   17 1
     4    1   30 1
     5    2    3 1
     6    2   14 1
     7    2    4 1
     8    2   30 1
     9    4    5 1
    10    4   18 1
    11    4   19 1
    12    5    6 1
    13    5   20 1
    14    5   21 1
    15    6   11 ar
    16    6    7 ar
    17    7    8 ar
    18    7   14 1
    19    8    9 ar
    20    8   22 1
    21    9   10 ar
    22    9   23 1
    23   10   11 ar
    24   10   24 1
    25   11   12 1
    26   12   13 1
    27   13   25 1
    28   13   26 1
    29   13   27 1
    30   14   28 1
    31   14   29 1
    32   30   31 1
    33   30   32 1
@<TRIPOS>MOLECULE
ZINC13759787
   38    39     0     0     0
SMALL
USER_CHARGES
(2R)-5-methoxy-N-propyl-tetralin-2-amine
@<TRIPOS>ATOM
      1 C1         -4.3057   -1.1970   -2.0529 C.3       1 <0>        -0.1571
      2 C2         -3.5165   -1.1260   -0.7441 C.3       1 <0>        -0.1513
      3 C3         -2.1122   -0.5868   -1.0240 C.3       1 <0>        -0.0078
      4 C4          0.0021   -0.0041    0.0020 C.3       1 <0>         0.0277
      5 H1          0.3723   -0.3610   -0.9591 H         1 <0>         0.1440
      6 C5          0.9328   -0.4808    1.1234 C.3       1 <0>        -0.1383
      7 C6          2.3697   -0.1383    0.7348 C.3       1 <0>        -0.0663
      8 C7          2.4799    1.3101    0.3364 C.ar      1 <0>        -0.1168
      9 C8          1.3843    2.0718   -0.0000 C.ar      1 <0>        -0.0557
     10 C9          1.5556    3.4010   -0.3656 C.ar      1 <0>        -0.1502
     11 C10         2.8139    3.9671   -0.3918 C.ar      1 <0>        -0.0700
     12 C11         3.9163    3.2077   -0.0509 C.ar      1 <0>        -0.1986
     13 C12         3.7505    1.8819    0.3126 C.ar      1 <0>         0.1364
     14 O1          4.8341    1.1333    0.6480 O.3       1 <0>        -0.3144
     15 C13         6.1079    1.7793    0.6032 C.3       1 <0>         0.0237
     16 C14        -0.0186    1.5231    0.0104 C.3       1 <0>        -0.0899
     17 H2         -5.3061   -1.5811   -1.8535 H         1 <0>         0.0775
     18 H3         -4.3793   -0.2000   -2.4874 H         1 <0>         0.0670
     19 H4         -3.7941   -1.8604   -2.7502 H         1 <0>         0.0671
     20 H5         -3.4429   -2.1229   -0.3097 H         1 <0>         0.0862
     21 H6         -4.0281   -0.4626   -0.0468 H         1 <0>         0.0861
     22 H7         -2.1858    0.4102   -1.4585 H         1 <0>         0.1300
     23 H8         -1.6006   -1.2502   -1.7213 H         1 <0>         0.1309
     24 H9          0.6742    0.0234    2.0545 H         1 <0>         0.0928
     25 H10         0.8332   -1.5589    1.2497 H         1 <0>         0.0936
     26 H11         3.0266   -0.3286    1.5836 H         1 <0>         0.0986
     27 H12         2.6748   -0.7657   -0.1027 H         1 <0>         0.0862
     28 H13         0.6955    3.9972   -0.6323 H         1 <0>         0.1274
     29 H14         2.9364    5.0013   -0.6778 H         1 <0>         0.1334
     30 H15         4.9032    3.6461   -0.0681 H         1 <0>         0.1360
     31 H16         6.1112    2.6242    1.2919 H         1 <0>         0.0603
     32 H17         6.8846    1.0715    0.8929 H         1 <0>         0.1073
     33 H18         6.2996    2.1349   -0.4091 H         1 <0>         0.0603
     34 H19        -0.5508    1.8802   -0.8712 H         1 <0>         0.0995
     35 H20        -0.5339    1.8707    0.9059 H         1 <0>         0.0989
     36 N1         -1.3583   -0.5215    0.2422 N.4       1 <0>        -0.5177
     37 H21        -1.2959   -1.4625    0.6482 H         1 <0>         0.4328
     38 H22        -1.8471    0.1016    0.8957 H         1 <0>         0.4303
@<TRIPOS>BOND
     1    1    2 1
     2    1   17 1
     3    1   18 1
     4    1   19 1
     5    2    3 1
     6    2   20 1
     7    2   21 1
     8    3   22 1
     9    3   23 1
    10    3   36 1
    11    4    5 1
    12    4   16 1
    13    4    6 1
    14    4   36 1
    15    6    7 1
    16    6   24 1
    17    6   25 1
    18    7    8 1
    19    7   26 1
    20    7   27 1
    21    8   13 ar
    22    8    9 ar
    23    9   10 ar
    24    9   16 1
    25   10   11 ar
    26   10   28 1
    27   11   12 ar
    28   11   29 1
    29   12   13 ar
    30   12   30 1
    31   13   14 1
    32   14   15 1
    33   15   31 1
    34   15   32 1
    35   15   33 1
    36   16   34 1
    37   16   35 1
    38   36   37 1
    39   36   38 1
@<TRIPOS>MOLECULE
ZINC13759788
   38    39     0     0     0
SMALL
USER_CHARGES
(2S)-5-methoxy-N-propyl-tetralin-2-amine
@<TRIPOS>ATOM
      1 C1         -0.0366    1.0992   -2.4903 C.3       1 <0>        -0.1571
      2 C2         -0.7527    1.5927   -1.2315 C.3       1 <0>        -0.1513
      3 C3         -0.0127    1.0858    0.0080 C.3       1 <0>        -0.0076
      4 C4         -0.0162    1.0911    2.4293 C.3       1 <0>         0.0278
      5 H1          1.0591    1.0571    2.2542 H         1 <0>         0.1439
      6 C5         -0.3202    2.0415    3.5935 C.3       1 <0>        -0.1383
      7 C6          0.5854    1.6717    4.7664 C.3       1 <0>        -0.0664
      8 C7          0.4976    0.1968    5.0594 C.ar      1 <0>        -0.1168
      9 C8         -0.0038   -0.7101    4.1540 C.ar      1 <0>        -0.0557
     10 C9         -0.0494   -2.0588    4.4835 C.ar      1 <0>        -0.1501
     11 C10         0.3991   -2.4986    5.7123 C.ar      1 <0>        -0.0701
     12 C11         0.8987   -1.5915    6.6264 C.ar      1 <0>        -0.1986
     13 C12         0.9483   -0.2463    6.3014 C.ar      1 <0>         0.1364
     14 O1          1.4405    0.6474    7.1992 O.3       1 <0>        -0.3144
     15 C13         1.8860    0.1282    8.4538 C.3       1 <0>         0.0237
     16 C14        -0.5222   -0.3015    2.7999 C.3       1 <0>        -0.0899
     17 H2         -0.0218    0.0093   -2.4963 H         1 <0>         0.0670
     18 H3         -0.5637    1.4603   -3.3734 H         1 <0>         0.0775
     19 H4          0.9860    1.4765   -2.4981 H         1 <0>         0.0671
     20 H5         -1.7753    1.2154   -1.2238 H         1 <0>         0.0861
     21 H6         -0.7675    2.6825   -1.2255 H         1 <0>         0.0863
     22 H7          0.0021   -0.0041    0.0020 H         1 <0>         0.1300
     23 H8          1.0099    1.4631    0.0003 H         1 <0>         0.1309
     24 H9         -0.1247    3.0696    3.2887 H         1 <0>         0.0937
     25 H10        -1.3642    1.9379    3.8889 H         1 <0>         0.0928
     26 H11         1.6157    1.9284    4.5199 H         1 <0>         0.0862
     27 H12         0.2774    2.2324    5.6490 H         1 <0>         0.0986
     28 H13        -0.4394   -2.7704    3.7708 H         1 <0>         0.1274
     29 H14         0.3598   -3.5495    5.9585 H         1 <0>         0.1334
     30 H15         1.2488   -1.9298    7.5904 H         1 <0>         0.1360
     31 H16         2.6883   -0.5901    8.2855 H         1 <0>         0.0603
     32 H17         2.2538    0.9449    9.0750 H         1 <0>         0.1073
     33 H18         1.0556   -0.3661    8.9579 H         1 <0>         0.0603
     34 H19        -1.6120   -0.2947    2.8192 H         1 <0>         0.0990
     35 H20        -0.1810   -1.0185    2.0531 H         1 <0>         0.0995
     36 N1         -0.7091    1.5657    1.2166 N.4       1 <0>        -0.5178
     37 H21        -1.6724    1.2103    1.2160 H         1 <0>         0.4303
     38 H22        -0.7230    2.5923    1.2143 H         1 <0>         0.4327
@<TRIPOS>BOND
     1    1    2 1
     2    1   17 1
     3    1   18 1
     4    1   19 1
     5    2    3 1
     6    2   20 1
     7    2   21 1
     8    3   22 1
     9    3   23 1
    10    3   36 1
    11    4    5 1
    12    4   16 1
    13    4    6 1
    14    4   36 1
    15    6    7 1
    16    6   24 1
    17    6   25 1
    18    7    8 1
    19    7   26 1
    20    7   27 1
    21    8   13 ar
    22    8    9 ar
    23    9   10 ar
    24    9   16 1
    25   10   11 ar
    26   10   28 1
    27   11   12 ar
    28   11   29 1
    29   12   13 ar
    30   12   30 1
    31   13   14 1
    32   14   15 1
    33   15   31 1
    34   15   32 1
    35   15   33 1
    36   16   34 1
    37   16   35 1
    38   36   37 1
    39   36   38 1
