@<TRIPOS>MOLECULE
ZINC01530688
   45    48     0     0     0
SMALL
USER_CHARGES

@<TRIPOS>ATOM
      1 C1         -4.7096    1.3430    2.2454 C.3       1 <0>        -0.0476
      2 N1         -4.6828   -0.1254    2.2123 N.4       1 <0>        -0.5103
      3 C2         -3.7697   -0.5747    1.1528 C.3       1 <0>        -0.0122
      4 C3         -3.7417   -2.1040    1.1183 C.3       1 <0>        -0.1635
      5 C4         -2.7907   -2.5720    0.0149 C.3       1 <0>        -0.0969
      6 C5         -2.6597   -4.0954    0.0667 C.3       1 <0>         0.0263
      7 C6         -4.0215   -4.8232    0.0106 C.3       1 <0>        -0.1040
      8 C7         -3.8423   -6.3391    0.0533 C.3       1 <0>        -0.1129
      9 C8         -2.3488   -6.7253    0.1407 C.3       1 <0>        -0.0103
     10 C9         -1.6882   -6.0486   -1.0501 C.ar      1 <0>        -0.0804
     11 C10        -1.8517   -4.6645   -1.0890 C.ar      1 <0>        -0.0813
     12 C11        -1.3264   -3.9281   -2.1114 C.ar      1 <0>        -0.1094
     13 C12        -0.6062   -4.5800   -3.1047 C.ar      1 <0>        -0.1189
     14 C13        -0.4268   -5.9496   -3.0553 C.ar      1 <0>        -0.1139
     15 C14        -0.9845   -6.6958   -2.0246 C.ar      1 <0>        -0.1023
     16 C15        -1.8144   -5.9955    1.3627 C.ar      1 <0>        -0.0777
     17 C16        -1.9635   -4.5918    1.3239 C.ar      1 <0>        -0.0757
     18 C17        -1.5329   -3.7937    2.3445 C.ar      1 <0>        -0.1206
     19 C18        -0.9095   -4.3826    3.4374 C.ar      1 <0>        -0.1235
     20 C19        -0.7301   -5.7522    3.4874 C.ar      1 <0>        -0.1148
     21 C20        -1.2169   -6.5979    2.4324 C.ar      1 <0>        -0.1003
     22 H1         -5.3871    1.6763    3.0315 H         1 <0>         0.1266
     23 H2         -3.7068    1.7202    2.4459 H         1 <0>         0.1236
     24 H3         -5.0547    1.7219    1.2835 H         1 <0>         0.1237
     25 H4         -4.3633   -0.4762    3.1027 H         1 <0>         0.4303
     26 H5         -4.1148   -0.1957    0.1909 H         1 <0>         0.1331
     27 H6         -2.7669   -0.1974    1.3534 H         1 <0>         0.1321
     28 H7         -3.3966   -2.4829    2.0803 H         1 <0>         0.0978
     29 H8         -4.7445   -2.4813    0.9178 H         1 <0>         0.0924
     30 H9         -3.1863   -2.2741   -0.9562 H         1 <0>         0.0849
     31 H10        -1.8110   -2.1178    0.1629 H         1 <0>         0.0828
     32 H11        -4.6281   -4.5114    0.8609 H         1 <0>         0.0659
     33 H12        -4.5344   -4.5501   -0.9116 H         1 <0>         0.0712
     34 H13        -4.3652   -6.7360    0.9235 H         1 <0>         0.0720
     35 H14        -4.2715   -6.7748   -0.8490 H         1 <0>         0.0737
     36 H15        -2.1865   -7.8028    0.1645 H         1 <0>         0.1072
     37 H16        -1.4684   -2.8581   -2.1478 H         1 <0>         0.1223
     38 H17        -0.1840   -4.0128   -3.9210 H         1 <0>         0.1245
     39 H18         0.1348   -6.4454   -3.8333 H         1 <0>         0.1261
     40 H19        -0.8596   -7.7681   -1.9924 H         1 <0>         0.1279
     41 H20        -1.6741   -2.7238    2.3027 H         1 <0>         0.1202
     42 H21        -0.5623   -3.7660    4.2534 H         1 <0>         0.1230
     43 H22        -0.2442   -6.1987    4.3423 H         1 <0>         0.1258
     44 H23        -1.0918   -7.6703    2.4602 H         1 <0>         0.1327
     45 H24        -5.6110   -0.4746    2.0266 H         1 <0>         0.4305
@<TRIPOS>BOND
     1    1    2 1
     2    1   22 1
     3    1   23 1
     4    1   24 1
     5    2    3 1
     6    2   25 1
     7    2   45 1
     8    3    4 1
     9    3   26 1
    10    3   27 1
    11    4    5 1
    12    4   28 1
    13    4   29 1
    14    5    6 1
    15    5   30 1
    16    5   31 1
    17    6   11 1
    18    6   17 1
    19    6    7 1
    20    7    8 1
    21    7   32 1
    22    7   33 1
    23    8    9 1
    24    8   34 1
    25    8   35 1
    26    9   10 1
    27    9   16 1
    28    9   36 1
    29   10   15 ar
    30   10   11 ar
    31   11   12 ar
    32   12   13 ar
    33   12   37 1
    34   13   14 ar
    35   13   38 1
    36   14   15 ar
    37   14   39 1
    38   15   40 1
    39   16   21 ar
    40   16   17 ar
    41   17   18 ar
    42   18   19 ar
    43   18   41 1
    44   19   20 ar
    45   19   42 1
    46   20   21 ar
    47   20   43 1
    48   21   44 1
@<TRIPOS>MOLECULE
ZINC01481744
   59    63     0     0     0
SMALL
USER_CHARGES
tert-butylBLAHol
@<TRIPOS>ATOM
      1 C1          7.4021    8.7034   -0.7443 C.3       1 <0>        -0.1466
      2 C2          7.5600    7.3733   -0.0048 C.3       1 <0>        -0.0472
      3 C3          8.5881    6.5044   -0.7320 C.3       1 <0>        -0.1553
      4 C4          8.0362    7.6381    1.4249 C.3       1 <0>        -0.1470
      5 C5          6.2137    6.6474    0.0323 C.3       1 <0>         0.1386
      6 C6          5.7356    6.3816   -1.3980 C.3       1 <0>        -0.1808
      7 C7          4.4166    5.6077   -1.3542 C.3       1 <0>        -0.0052
      8 C8          3.3652    3.5592   -0.6154 C.3       1 <0>        -0.0027
      9 C9          3.6680    2.1410   -0.1452 C.3       1 <0>        -0.0191
     10 H1          4.2105    1.6604   -0.9594 H         1 <0>         0.1021
     11 C10         2.3734    1.3946   -0.0260 C.ar      1 <0>        -0.0842
     12 C11         1.1723    2.0854    0.0021 C.ar      1 <0>        -0.1223
     13 C12        -0.0167    1.3784    0.0096 C.ar      1 <0>        -0.1108
     14 C13         0.0021   -0.0041    0.0020 C.ar      1 <0>        -0.1048
     15 C14         1.2071   -0.6813    0.0133 C.ar      1 <0>        -0.1051
     16 C15         2.3948    0.0364    0.0071 C.ar      1 <0>        -0.0695
     17 C16         3.7024   -0.6896    0.1021 C.3       1 <0>        -0.0845
     18 C17         4.3272   -0.4713    1.4512 C.3       1 <0>        -0.0850
     19 C18         4.8103    0.9217    1.7463 C.ar      1 <0>        -0.0444
     20 C19         4.5590    2.0827    1.0479 C.ar      1 <0>        -0.0603
     21 C20         5.1779    3.2568    1.4753 C.ar      1 <0>        -0.1299
     22 C21         5.9679    3.2844    2.6137 C.ar      1 <0>        -0.0975
     23 C22         6.1786    2.1330    3.3379 C.ar      1 <0>        -0.0990
     24 C23         5.6072    0.9672    2.8970 C.ar      1 <0>        -0.1046
     25 C24         5.0337    4.5665    0.7444 C.3       1 <0>         0.0810
     26 H2          4.2805    5.1671    1.2544 H         1 <0>         0.1391
     27 C25         6.3702    5.3111    0.7637 C.3       1 <0>        -0.1720
     28 O1          5.2533    7.4561    0.7147 O.3       1 <0>        -0.5331
     29 H3          6.6697    9.3225   -0.2261 H         1 <0>         0.0690
     30 H4          8.3612    9.2205   -0.7707 H         1 <0>         0.0638
     31 H5          7.0629    8.5148   -1.7628 H         1 <0>         0.0556
     32 H6          8.2488    6.3158   -1.7506 H         1 <0>         0.0600
     33 H7          9.5472    7.0215   -0.7584 H         1 <0>         0.0731
     34 H8          8.7006    5.5568   -0.2052 H         1 <0>         0.0598
     35 H9          8.1487    6.6905    1.9518 H         1 <0>         0.0543
     36 H10         8.9953    8.1552    1.3985 H         1 <0>         0.0641
     37 H11         7.3038    8.2571    1.9431 H         1 <0>         0.0692
     38 H12         6.4847    5.7942   -1.9288 H         1 <0>         0.1035
     39 H13         5.5840    7.3302   -1.9132 H         1 <0>         0.1274
     40 H14         4.0813    5.4044   -2.3713 H         1 <0>         0.1398
     41 H15         3.6639    6.2024   -0.8366 H         1 <0>         0.1295
     42 H16         2.9358    3.5269   -1.6168 H         1 <0>         0.1429
     43 H17         2.6573    4.0264    0.0692 H         1 <0>         0.1364
     44 H18         1.1646    3.1652    0.0175 H         1 <0>         0.1229
     45 H19        -0.9590    1.9060    0.0169 H         1 <0>         0.1296
     46 H20        -0.9263   -0.5557   -0.0124 H         1 <0>         0.1306
     47 H21         1.2241   -1.7611    0.0273 H         1 <0>         0.1320
     48 H22         3.5343   -1.7559   -0.0490 H         1 <0>         0.0895
     49 H23         4.3776   -0.3184   -0.6689 H         1 <0>         0.0749
     50 H24         3.5946   -0.7431    2.2111 H         1 <0>         0.0852
     51 H25         5.1749   -1.1501    1.5451 H         1 <0>         0.0900
     52 H26         6.4197    4.2119    2.9332 H         1 <0>         0.1353
     53 H27         6.7814    2.1475    4.2340 H         1 <0>         0.1400
     54 H28         5.7764    0.0573    3.4536 H         1 <0>         0.1328
     55 H29         7.1294    4.7094    0.2640 H         1 <0>         0.1055
     56 H30         6.6704    5.4938    1.7955 H         1 <0>         0.1265
     57 H31         4.3755    7.0555    0.7778 H         1 <0>         0.3658
     58 N1          4.6164    4.3231   -0.6385 N.4       1 <0>        -0.3871
     59 H32         5.3405    3.7791   -1.1223 H         1 <0>         0.4282
@<TRIPOS>BOND
     1    1    2 1
     2    1   29 1
     3    1   30 1
     4    1   31 1
     5    2    3 1
     6    2    4 1
     7    2    5 1
     8    3   32 1
     9    3   33 1
    10    3   34 1
    11    4   35 1
    12    4   36 1
    13    4   37 1
    14    5   27 1
    15    5    6 1
    16    5   28 1
    17    6    7 1
    18    6   38 1
    19    6   39 1
    20    7   40 1
    21    7   41 1
    22    7   58 1
    23    8    9 1
    24    8   42 1
    25    8   43 1
    26    8   58 1
    27    9   10 1
    28    9   20 1
    29    9   11 1
    30   11   16 ar
    31   11   12 ar
    32   12   13 ar
    33   12   44 1
    34   13   14 ar
    35   13   45 1
    36   14   15 ar
    37   14   46 1
    38   15   16 ar
    39   15   47 1
    40   16   17 1
    41   17   18 1
    42   17   48 1
    43   17   49 1
    44   18   19 1
    45   18   50 1
    46   18   51 1
    47   19   24 ar
    48   19   20 ar
    49   20   21 ar
    50   21   22 ar
    51   21   25 1
    52   22   23 ar
    53   22   52 1
    54   23   24 ar
    55   23   53 1
    56   24   54 1
    57   25   26 1
    58   25   27 1
    59   25   58 1
    60   27   55 1
    61   27   56 1
    62   28   57 1
    63   58   59 1
@<TRIPOS>MOLECULE
ZINC00001931
   41    42     0     0     0
SMALL
USER_CHARGES

@<TRIPOS>ATOM
      1 C1         -0.0178    1.4648    0.0101 C.3       1 <0>        -0.0543
      2 N1          0.0021   -0.0041    0.0020 N.4       1 <0>        -0.3888
      3 C2          0.6897   -0.4778   -1.2066 C.3       1 <0>        -0.0480
      4 C3          0.7126   -0.4907    1.1921 C.3       1 <0>        -0.0022
      5 C4         -0.0711   -0.1034    2.4478 C.3       1 <0>         0.0237
      6 O1         -1.3280   -0.7834    2.4535 O.3       1 <0>        -0.3239
      7 C5         -2.1519   -0.5481    3.5084 C.ar      1 <0>         0.1190
      8 C6         -1.7611    0.3238    4.5145 C.ar      1 <0>        -0.2009
      9 C7         -2.6006    0.5616    5.5853 C.ar      1 <0>        -0.0812
     10 C8         -3.8295   -0.0686    5.6552 C.ar      1 <0>        -0.1366
     11 C9         -4.2210   -0.9381    4.6542 C.ar      1 <0>        -0.0754
     12 C10        -3.3874   -1.1749    3.5782 C.ar      1 <0>        -0.0972
     13 C11        -3.8174   -2.1181    2.4843 C.3       1 <0>        -0.0314
     14 C12        -3.2661   -3.4930    2.7611 C.ar      1 <0>        -0.0813
     15 C13        -2.0239   -3.8511    2.2715 C.ar      1 <0>        -0.1132
     16 C14        -1.5182   -5.1123    2.5253 C.ar      1 <0>        -0.1224
     17 C15        -2.2544   -6.0153    3.2692 C.ar      1 <0>        -0.1189
     18 C16        -3.4962   -5.6570    3.7596 C.ar      1 <0>        -0.1130
     19 C17        -4.0001   -4.3943    3.5093 C.ar      1 <0>        -0.1127
     20 H1          1.0047    1.8421    0.0024 H         1 <0>         0.1247
     21 H2         -0.5450    1.8259   -0.8730 H         1 <0>         0.1274
     22 H3         -0.5280    1.8163    0.9069 H         1 <0>         0.1217
     23 H4          1.7123   -0.1005   -1.2143 H         1 <0>         0.1234
     24 H5          0.7044   -1.5677   -1.2126 H         1 <0>         0.1247
     25 H6          0.1625   -0.1167   -2.0897 H         1 <0>         0.1261
     26 H7          0.8051   -1.5756    1.1418 H         1 <0>         0.1419
     27 H8          1.7055   -0.0428    1.2310 H         1 <0>         0.1494
     28 H9          0.4987   -0.3857    3.3332 H         1 <0>         0.1083
     29 H10        -0.2405    0.9733    2.4528 H         1 <0>         0.0867
     30 H11        -0.8013    0.8159    4.4605 H         1 <0>         0.1267
     31 H12        -2.2967    1.2399    6.3688 H         1 <0>         0.1306
     32 H13        -4.4845    0.1186    6.4932 H         1 <0>         0.1316
     33 H14        -5.1812   -1.4293    4.7113 H         1 <0>         0.1347
     34 H15        -4.9059   -2.1631    2.4505 H         1 <0>         0.0854
     35 H16        -3.4386   -1.7607    1.5267 H         1 <0>         0.0779
     36 H17        -1.4486   -3.1456    1.6903 H         1 <0>         0.1132
     37 H18        -0.5480   -5.3923    2.1422 H         1 <0>         0.1195
     38 H19        -1.8597   -7.0010    3.4669 H         1 <0>         0.1237
     39 H20        -4.0716   -6.3626    4.3404 H         1 <0>         0.1254
     40 H21        -4.9686   -4.1130    3.8955 H         1 <0>         0.1224
     41 H22        -0.9445   -0.3533    0.0092 H         1 <0>         0.4332
@<TRIPOS>BOND
     1    1    2 1
     2    1   20 1
     3    1   21 1
     4    1   22 1
     5    2    3 1
     6    2    4 1
     7    2   41 1
     8    3   23 1
     9    3   24 1
    10    3   25 1
    11    4    5 1
    12    4   26 1
    13    4   27 1
    14    5    6 1
    15    5   28 1
    16    5   29 1
    17    6    7 1
    18    7   12 ar
    19    7    8 ar
    20    8    9 ar
    21    8   30 1
    22    9   10 ar
    23    9   31 1
    24   10   11 ar
    25   10   32 1
    26   11   12 ar
    27   11   33 1
    28   12   13 1
    29   13   14 1
    30   13   34 1
    31   13   35 1
    32   14   19 ar
    33   14   15 ar
    34   15   16 ar
    35   15   36 1
    36   16   17 ar
    37   16   37 1
    38   17   18 ar
    39   17   38 1
    40   18   19 ar
    41   18   39 1
    42   19   40 1
@<TRIPOS>MOLECULE
ZINC01996374
   37    39     0     0     0
SMALL
USER_CHARGES

@<TRIPOS>ATOM
      1 C1         -0.0167    1.3781    0.0096 C.ar      1 <0>        -0.1015
      2 C2          1.1709    2.0855    0.0021 C.ar      1 <0>        -0.1129
      3 C3          2.3773    1.4107   -0.0130 C.ar      1 <0>        -0.1085
      4 C4          2.3960    0.0285   -0.0201 C.ar      1 <0>        -0.1079
      5 C5          1.2084   -0.6789   -0.0117 C.ar      1 <0>        -0.1046
      6 C6          0.0021   -0.0041    0.0020 C.ar      1 <0>        -0.1114
      7 C7          3.7112   -0.7071   -0.0376 C.3       1 <0>        -0.0099
      8 H1          4.5257    0.0172   -0.0425 H         1 <0>         0.1065
      9 C8          3.8179   -1.5729    1.2175 C.3       1 <0>        -0.0152
     10 N1          5.2268   -1.6333    1.6211 N.4       1 <0>        -0.5063
     11 C9          6.0321   -2.2539    0.5690 C.3       1 <0>        -0.0080
     12 C10         5.1671   -3.3122   -0.1228 C.3       1 <0>        -0.1081
     13 C11         4.4887   -2.7354   -1.3383 C.ar      1 <0>        -0.0931
     14 C12         3.7905   -1.5495   -1.2871 C.ar      1 <0>        -0.0848
     15 C13         3.1351   -1.0876   -2.4209 C.ar      1 <0>        -0.1103
     16 C14         3.2017   -1.7951   -3.6074 C.ar      1 <0>         0.0976
     17 C15         3.9339   -2.9771   -3.6650 C.ar      1 <0>         0.0992
     18 C16         4.5731   -3.4399   -2.5308 C.ar      1 <0>        -0.1195
     19 O1          4.0217   -3.6712   -4.8311 O.3       1 <0>        -0.4837
     20 O2          2.5544   -1.3380   -4.7126 O.3       1 <0>        -0.4829
     21 H2         -0.9591    1.9053    0.0259 H         1 <0>         0.1303
     22 H3          1.1563    3.1654    0.0076 H         1 <0>         0.1303
     23 H4          3.3051    1.9634   -0.0196 H         1 <0>         0.1248
     24 H5          1.2231   -1.7588   -0.0176 H         1 <0>         0.1221
     25 H6         -0.9258   -0.5567    0.0082 H         1 <0>         0.1298
     26 H7          3.2258   -1.1310    2.0188 H         1 <0>         0.1448
     27 H8          3.4553   -2.5778    1.0012 H         1 <0>         0.1462
     28 H9          5.5652   -0.6983    1.7928 H         1 <0>         0.4310
     29 H10         6.3395   -1.4985   -0.1542 H         1 <0>         0.1347
     30 H11         6.9116   -2.7254    1.0074 H         1 <0>         0.1430
     31 H12         5.7971   -4.1483   -0.4262 H         1 <0>         0.1175
     32 H13         4.4099   -3.6692    0.5753 H         1 <0>         0.1026
     33 H14         2.5688   -0.1691   -2.3758 H         1 <0>         0.1411
     34 H15         5.1405   -4.3579   -2.5725 H         1 <0>         0.1414
     35 H16         4.7700   -3.4136   -5.3869 H         1 <0>         0.3970
     36 H17         3.0865   -0.7486   -5.2645 H         1 <0>         0.3962
     37 H18         5.3085   -2.1759    2.4679 H         1 <0>         0.4322
@<TRIPOS>BOND
     1    1    6 ar
     2    1    2 ar
     3    1   21 1
     4    2    3 ar
     5    2   22 1
     6    3    4 ar
     7    3   23 1
     8    4    5 ar
     9    4    7 1
    10    5    6 ar
    11    5   24 1
    12    6   25 1
    13    7    8 1
    14    7   14 1
    15    7    9 1
    16    9   10 1
    17    9   26 1
    18    9   27 1
    19   10   11 1
    20   10   28 1
    21   10   37 1
    22   11   12 1
    23   11   29 1
    24   11   30 1
    25   12   13 1
    26   12   31 1
    27   12   32 1
    28   13   18 ar
    29   13   14 ar
    30   14   15 ar
    31   15   16 ar
    32   15   33 1
    33   16   17 ar
    34   16   20 1
    35   17   18 ar
    36   17   19 1
    37   18   34 1
    38   19   35 1
    39   20   36 1
@<TRIPOS>MOLECULE
ZINC71754993
   49    52     0     0     0
SMALL
USER_CHARGES

@<TRIPOS>ATOM
      1 C1          2.6170   -2.6358   -1.1889 C.3       1 <0>        -0.1671
      2 C2          2.2134   -1.1611   -1.2456 C.3       1 <0>         0.1069
      3 N1          0.7528   -1.0529   -1.2130 N.am      1 <0>        -0.6114
      4 C3          0.0461   -1.0616    0.0703 C.3       1 <0>         0.0994
      5 C4         -0.0614    0.3687    0.6029 C.3       1 <0>        -0.1765
      6 C5          0.0592   -0.9454   -2.3636 C.2       1 <0>         0.5267
      7 O1          0.6474   -0.8703   -3.4215 O.2       1 <0>        -0.5333
      8 C6         -1.4473   -0.9186   -2.3355 C.3       1 <0>        -0.0725
      9 H1         -1.8080   -1.4645   -1.4638 H         1 <0>         0.1146
     10 C7         -1.9990   -1.5624   -3.6126 C.3       1 <0>         0.0770
     11 N2         -3.4593   -1.4331   -3.6037 N.3       1 <0>        -0.5484
     12 C8         -3.9081   -0.0485   -3.6742 C.3       1 <0>         0.1385
     13 H2         -3.8294    0.2578   -4.7173 H         1 <0>         0.0457
     14 C9         -5.3934    0.0321   -3.2953 C.3       1 <0>        -0.0232
     15 C10        -5.8207    1.4760   -3.2538 C.2       1 <0>        -0.1681
     16 C11        -6.9734    2.1212   -3.3973 C.2       1 <0>         0.0572
     17 N3         -6.7828    3.4861   -3.2468 N.pl3     1 <0>        -0.5952
     18 H3         -7.4843    4.1531   -3.3095 H         1 <0>         0.4163
     19 C12        -5.4715    3.7584   -2.9981 C.ar      1 <0>         0.1107
     20 C13        -4.8308    2.5163   -3.0000 C.ar      1 <0>        -0.1310
     21 C14        -3.4506    2.3050   -2.7990 C.ar      1 <0>        -0.0034
     22 C15        -2.7031    3.4367   -2.5663 C.ar      1 <0>        -0.1283
     23 C16        -3.3241    4.6838   -2.5516 C.ar      1 <0>        -0.0962
     24 C17        -4.6837    4.8842   -2.7614 C.ar      1 <0>        -0.1216
     25 C18        -3.0445    0.8889   -2.8726 C.2       1 <0>        -0.0548
     26 C19        -1.9279    0.5065   -2.2758 C.2       1 <0>        -0.1279
     27 C20        -4.0657   -2.2382   -4.6723 C.3       1 <0>         0.0274
     28 H4          2.2786   -3.0692   -0.2477 H         1 <0>         0.0559
     29 H5          2.1583   -3.1703   -2.0208 H         1 <0>         0.0579
     30 H6          3.7017   -2.7185   -1.2577 H         1 <0>         0.0673
     31 H7          2.6359   -0.6355   -0.3892 H         1 <0>         0.0755
     32 H8          2.5902   -0.7164   -2.1667 H         1 <0>         0.0872
     33 H9         -0.9534   -1.4738   -0.0682 H         1 <0>         0.0851
     34 H10         0.5964   -1.6747    0.7839 H         1 <0>         0.0811
     35 H11        -0.5106    0.3537    1.5960 H         1 <0>         0.0701
     36 H12         0.9333    0.8106    0.6607 H         1 <0>         0.0594
     37 H13        -0.6835    0.9606   -0.0684 H         1 <0>         0.0612
     38 H14        -1.5914   -1.0526   -4.4855 H         1 <0>         0.0533
     39 H15        -1.7248   -2.6170   -3.6391 H         1 <0>         0.0845
     40 H16        -5.9874   -0.5018   -4.0371 H         1 <0>         0.0765
     41 H17        -5.5435   -0.4200   -2.3149 H         1 <0>         0.0843
     42 H18        -7.9232    1.6497   -3.6022 H         1 <0>         0.1695
     43 H19        -1.6396    3.3585   -2.3953 H         1 <0>         0.1220
     44 H20        -2.7091    5.5517   -2.3648 H         1 <0>         0.1224
     45 H21        -5.1135    5.8748   -2.7421 H         1 <0>         0.1285
     46 H22        -1.3518    1.2331   -1.7222 H         1 <0>         0.1200
     47 H23        -3.7498   -3.2763   -4.5689 H         1 <0>         0.0734
     48 H24        -5.1517   -2.1799   -4.5994 H         1 <0>         0.0744
     49 H25        -3.7455   -1.8558   -5.6415 H         1 <0>         0.0291
@<TRIPOS>BOND
     1    1    2 1
     2    1   28 1
     3    1   29 1
     4    1   30 1
     5    2    3 1
     6    2   31 1
     7    2   32 1
     8    3    4 1
     9    3    6 am
    10    4    5 1
    11    4   33 1
    12    4   34 1
    13    5   35 1
    14    5   36 1
    15    5   37 1
    16    6    7 2
    17    6    8 1
    18    8    9 1
    19    8   26 1
    20    8   10 1
    21   10   11 1
    22   10   38 1
    23   10   39 1
    24   11   12 1
    25   11   27 1
    26   12   13 1
    27   12   25 1
    28   12   14 1
    29   14   15 1
    30   14   40 1
    31   14   41 1
    32   15   20 1
    33   15   16 2
    34   16   17 1
    35   16   42 1
    36   17   18 1
    37   17   19 1
    38   19   24 ar
    39   19   20 ar
    40   20   21 ar
    41   21   22 ar
    42   21   25 1
    43   22   23 ar
    44   22   43 1
    45   23   24 ar
    46   23   44 1
    47   24   45 1
    48   25   26 2
    49   26   46 1
    50   27   47 1
    51   27   48 1
    52   27   49 1
@<TRIPOS>MOLECULE
ZINC71754993
   50    53     0     0     0
SMALL
USER_CHARGES

@<TRIPOS>ATOM
      1 C1         -4.4131    1.6542    2.7709 C.3       1 <0>        -0.1692
      2 C2         -3.1002    1.6745    1.9857 C.3       1 <0>         0.1077
      3 N1         -3.2120    0.7884    0.8243 N.am      1 <0>        -0.6044
      4 C3         -3.6997    1.3136   -0.4534 C.3       1 <0>         0.0980
      5 C4         -2.5178    1.8262   -1.2787 C.3       1 <0>        -0.1810
      6 C5         -2.8661   -0.5098    0.9314 C.2       1 <0>         0.5240
      7 O1         -2.5501   -0.9662    2.0097 O.2       1 <0>        -0.5069
      8 C6         -2.8722   -1.3943   -0.2887 C.3       1 <0>        -0.1042
      9 H1         -2.7358   -0.7873   -1.1837 H         1 <0>         0.1306
     10 C7         -4.2036   -2.1497   -0.3737 C.3       1 <0>         0.0021
     11 N2         -4.1503   -3.0574   -1.5221 N.4       1 <0>        -0.3772
     12 C8         -3.1649   -4.1132   -1.3324 C.3       1 <0>         0.0727
     13 H2         -3.6138   -4.8485   -0.6647 H         1 <0>         0.1401
     14 C9         -2.9105   -4.8224   -2.6700 C.3       1 <0>        -0.0390
     15 C10        -1.8064   -5.8325   -2.5003 C.2       1 <0>        -0.2014
     16 C11        -1.4541   -6.9552   -3.1179 C.2       1 <0>         0.0960
     17 N3         -0.3151   -7.4883   -2.5346 N.pl3     1 <0>        -0.5871
     18 H3          0.1234   -8.3046   -2.8215 H         1 <0>         0.4245
     19 C12         0.1019   -6.7038   -1.5020 C.ar      1 <0>         0.1104
     20 C13        -0.8165   -5.6518   -1.4449 C.ar      1 <0>        -0.1254
     21 C14        -0.7954   -4.5939   -0.5123 C.ar      1 <0>        -0.0281
     22 C15         0.2416   -4.6193    0.3924 C.ar      1 <0>        -0.0998
     23 C16         1.1732   -5.6542    0.3464 C.ar      1 <0>        -0.0987
     24 C17         1.1382   -6.6995   -0.5693 C.ar      1 <0>        -0.0978
     25 C18        -1.9016   -3.6317   -0.6709 C.2       1 <0>        -0.0695
     26 C19        -1.7626   -2.4072   -0.1876 C.2       1 <0>        -0.1111
     27 C20        -5.4735   -3.6664   -1.7125 C.3       1 <0>        -0.0520
     28 H4         -4.3299    2.3134    3.6350 H         1 <0>         0.0742
     29 H5         -5.2253    1.9965    2.1296 H         1 <0>         0.0570
     30 H6         -4.6195    0.6382    3.1076 H         1 <0>         0.0594
     31 H7         -2.8938    2.6904    1.6490 H         1 <0>         0.0854
     32 H8         -2.2879    1.3322    2.6269 H         1 <0>         0.0886
     33 H9         -4.2089    0.5208   -1.0014 H         1 <0>         0.0700
     34 H10        -4.3955    2.1319   -0.2680 H         1 <0>         0.0939
     35 H11        -2.8686    2.1332   -2.2639 H         1 <0>         0.0759
     36 H12        -2.0638    2.6783   -0.7728 H         1 <0>         0.0695
     37 H13        -1.7789    1.0322   -1.3872 H         1 <0>         0.0580
     38 H14        -4.3580   -2.7236    0.5400 H         1 <0>         0.1434
     39 H15        -5.0199   -1.4395   -0.5058 H         1 <0>         0.1437
     40 H16        -3.8204   -5.3293   -2.9914 H         1 <0>         0.0997
     41 H17        -2.6190   -4.0881   -3.4210 H         1 <0>         0.0934
     42 H18        -1.9802   -7.3903   -3.9547 H         1 <0>         0.1758
     43 H19         0.3329   -3.8400    1.1346 H         1 <0>         0.1302
     44 H20         1.9754   -5.6435    1.0695 H         1 <0>         0.1317
     45 H21         1.8852   -7.4794   -0.5582 H         1 <0>         0.1373
     46 H22        -0.8304   -2.1256    0.2794 H         1 <0>         0.1476
     47 H23        -6.2103   -2.8845   -1.8961 H         1 <0>         0.1309
     48 H24        -5.4422   -4.3438   -2.5658 H         1 <0>         0.1309
     49 H25        -5.7497   -4.2228   -0.8168 H         1 <0>         0.1266
     50 H26        -3.9112   -2.5291   -2.3478 H         1 <0>         0.4234
@<TRIPOS>BOND
     1    1    2 1
     2    1   28 1
     3    1   29 1
     4    1   30 1
     5    2    3 1
     6    2   31 1
     7    2   32 1
     8    3    4 1
     9    3    6 am
    10    4    5 1
    11    4   33 1
    12    4   34 1
    13    5   35 1
    14    5   36 1
    15    5   37 1
    16    6    7 2
    17    6    8 1
    18    8    9 1
    19    8   26 1
    20    8   10 1
    21   10   11 1
    22   10   38 1
    23   10   39 1
    24   11   12 1
    25   11   27 1
    26   11   50 1
    27   12   13 1
    28   12   25 1
    29   12   14 1
    30   14   15 1
    31   14   40 1
    32   14   41 1
    33   15   20 1
    34   15   16 2
    35   16   17 1
    36   16   42 1
    37   17   18 1
    38   17   19 1
    39   19   24 ar
    40   19   20 ar
    41   20   21 ar
    42   21   22 ar
    43   21   25 1
    44   22   23 ar
    45   22   43 1
    46   23   24 ar
    47   23   44 1
    48   24   45 1
    49   25   26 2
    50   26   46 1
    51   27   47 1
    52   27   48 1
    53   27   49 1
@<TRIPOS>MOLECULE
ZINC27653862
   40    43     0     0     0
SMALL
USER_CHARGES
2-chloroethylBLAHdiol
@<TRIPOS>ATOM
      1 C1          1.2256    3.2277   -0.2317 C.ar      1 <0>        -0.1198
      2 C2          0.0704    3.9587   -0.0395 C.ar      1 <0>        -0.1191
      3 C3         -1.1729    3.3386   -0.0374 C.ar      1 <0>        -0.0669
      4 C4         -1.2535    1.9747   -0.2171 C.ar      1 <0>        -0.0646
      5 C5         -0.0856    1.2303   -0.3989 C.ar      1 <0>        -0.0336
      6 C6          1.1529    1.8627   -0.4206 C.ar      1 <0>        -0.1036
      7 C7         -0.1805   -0.2358   -0.5951 C.ar      1 <0>        -0.0461
      8 C8         -1.3557   -0.8932   -0.2313 C.ar      1 <0>        -0.0738
      9 C9         -1.4710   -2.2537   -0.4257 C.ar      1 <0>        -0.1098
     10 C10        -0.4134   -2.9736   -0.9543 C.ar      1 <0>        -0.1174
     11 C11         0.7705   -2.3353   -1.2879 C.ar      1 <0>         0.0671
     12 C12         0.8939   -0.9615   -1.1048 C.ar      1 <0>         0.0803
     13 O1          2.0560   -0.3312   -1.4211 O.3       1 <0>        -0.4840
     14 O2          1.8108   -3.0509   -1.7932 O.3       1 <0>        -0.4965
     15 C13        -2.4797   -0.1136    0.3954 C.3       1 <0>        -0.0701
     16 C14        -2.5864    1.2738   -0.2344 C.3       1 <0>         0.1253
     17 H1         -2.9306    1.1938   -1.2761 H         1 <0>         0.0580
     18 N1         -3.5602    2.0686    0.5282 N.3       1 <0>        -0.5193
     19 C15        -3.6825    3.4166   -0.0297 C.3       1 <0>         0.0460
     20 C16        -2.3912    4.1965    0.1530 C.3       1 <0>        -0.0786
     21 C17        -4.8662    1.3977    0.5748 C.3       1 <0>         0.0403
     22 C18        -5.4474    1.3143   -0.8381 C.3       1 <0>        -0.0784
     23 Cl1        -7.0612    0.5124   -0.7777 Cl        1 <0>        -0.1740
     24 H2          2.1850    3.7237   -0.2350 H         1 <0>         0.1239
     25 H3          0.1339    5.0262    0.1115 H         1 <0>         0.1216
     26 H4          2.0529    1.2884   -0.5837 H         1 <0>         0.1488
     27 H5         -2.3889   -2.7590   -0.1640 H         1 <0>         0.1344
     28 H6         -0.5116   -4.0381   -1.1078 H         1 <0>         0.1339
     29 H7          2.9023   -0.9073   -1.8233 H         1 <0>         0.4076
     30 H8          2.7503   -2.5436   -2.0578 H         1 <0>         0.4150
     31 H9         -3.4280   -0.6493    0.2413 H         1 <0>         0.0845
     32 H10        -2.2924   -0.0026    1.4736 H         1 <0>         0.0954
     33 H11        -3.9068    3.3496   -1.1045 H         1 <0>         0.0385
     34 H12        -4.4955    3.9528    0.4818 H         1 <0>         0.0883
     35 H13        -2.3887    4.6164    1.1697 H         1 <0>         0.0851
     36 H14        -2.3817    5.0151   -0.5817 H         1 <0>         0.0819
     37 H15        -4.7428    0.3829    0.9810 H         1 <0>         0.0966
     38 H16        -5.5497    1.9700    1.2193 H         1 <0>         0.0951
     39 H17        -5.5570    2.3284   -1.2499 H         1 <0>         0.0951
     40 H18        -4.7711    0.7295   -1.4789 H         1 <0>         0.0930
@<TRIPOS>BOND
     1    1    6 ar
     2    1    2 ar
     3    1   24 1
     4    2    3 ar
     5    2   25 1
     6    3   20 1
     7    3    4 ar
     8    4   16 1
     9    4    5 ar
    10    5    6 ar
    11    5    7 1
    12    6   26 1
    13    7   12 ar
    14    7    8 ar
    15    8    9 ar
    16    8   15 1
    17    9   10 ar
    18    9   27 1
    19   10   11 ar
    20   10   28 1
    21   11   12 ar
    22   11   14 1
    23   12   13 1
    24   13   29 1
    25   14   30 1
    26   15   16 1
    27   15   31 1
    28   15   32 1
    29   16   17 1
    30   16   18 1
    31   18   19 1
    32   18   21 1
    33   19   20 1
    34   19   33 1
    35   19   34 1
    36   20   35 1
    37   20   36 1
    38   21   22 1
    39   21   37 1
    40   21   38 1
    41   22   23 1
    42   22   39 1
    43   22   40 1
@<TRIPOS>MOLECULE
ZINC00003897
   43    46     0     0     0
SMALL
USER_CHARGES

@<TRIPOS>ATOM
      1 C1         -0.0178    1.4648    0.0101 C.3       1 <0>        -0.0643
      2 N1          0.0021   -0.0041    0.0020 N.4       1 <0>        -0.3783
      3 C2          0.5651   -0.4783   -1.2793 C.3       1 <0>         0.0030
      4 C3          1.6130    0.4650   -1.8175 C.3       1 <0>        -0.1179
      5 C4          2.5466    1.1632   -0.9180 C.ar      1 <0>        -0.0792
      6 C5          3.1196    2.3627   -1.3347 C.ar      1 <0>        -0.0925
      7 C6          3.9970    3.0439   -0.5188 C.ar      1 <0>        -0.0497
      8 C7          4.3162    2.5319    0.7320 C.ar      1 <0>         0.1311
      9 C8          3.7475    1.3396    1.1456 C.ar      1 <0>        -0.1201
     10 C9          2.8634    0.6594    0.3194 C.ar      1 <0>        -0.0869
     11 C10         2.2696   -0.6209    0.8039 C.3       1 <0>        -0.0061
     12 H1          2.3316   -1.3285   -0.0229 H         1 <0>         0.1039
     13 C11         0.8167   -0.4865    1.1303 C.3       1 <0>         0.0306
     14 H2          0.7252    0.2389    1.9387 H         1 <0>         0.1337
     15 C12         0.2782   -1.8142    1.6644 C.3       1 <0>        -0.1325
     16 C13         0.9258   -2.0821    3.0231 C.3       1 <0>        -0.0787
     17 C14         2.4193   -1.9005    2.9633 C.ar      1 <0>        -0.0792
     18 C15         3.0470   -1.2168    1.9418 C.ar      1 <0>        -0.0879
     19 C16         4.4258   -1.0720    1.9521 C.ar      1 <0>        -0.1081
     20 C17         5.1794   -1.6148    2.9734 C.ar      1 <0>        -0.1118
     21 C18         4.5538   -2.3077    3.9926 C.ar      1 <0>        -0.0996
     22 C19         3.1816   -2.4485    3.9864 C.ar      1 <0>        -0.1134
     23 O1          5.1801    3.1966    1.5441 O.3       1 <0>        -0.4793
     24 Cl1         4.7017    4.5377   -1.0535 Cl        1 <0>        -0.0291
     25 H3          0.9919    1.8409    0.1747 H         1 <0>         0.1309
     26 H4         -0.3893    1.8284   -0.9480 H         1 <0>         0.1268
     27 H5         -0.6709    1.8149    0.8095 H         1 <0>         0.1229
     28 H6          1.0152   -1.4593   -1.1275 H         1 <0>         0.1298
     29 H7         -0.2398   -0.5679   -2.0088 H         1 <0>         0.1423
     30 H8          2.2161   -0.0994   -2.5287 H         1 <0>         0.1206
     31 H9          1.0901    1.2297   -2.3918 H         1 <0>         0.1003
     32 H10         2.8735    2.7631   -2.3071 H         1 <0>         0.1479
     33 H11         3.9925    0.9365    2.1171 H         1 <0>         0.1568
     34 H12        -0.8040   -1.7525    1.7788 H         1 <0>         0.0975
     35 H13         0.5300   -2.6179    0.9724 H         1 <0>         0.0930
     36 H14         0.5116   -1.3918    3.7580 H         1 <0>         0.0900
     37 H15         0.7026   -3.1040    3.3295 H         1 <0>         0.0995
     38 H16         4.9140   -0.5310    1.1550 H         1 <0>         0.1296
     39 H17         6.2531   -1.4988    2.9758 H         1 <0>         0.1321
     40 H18         5.1382   -2.7382    4.7923 H         1 <0>         0.1319
     41 H19         2.6957   -2.9895    4.7848 H         1 <0>         0.1297
     42 H20         4.7543    3.8340    2.1337 H         1 <0>         0.4022
     43 H21        -0.9404   -0.3512    0.0984 H         1 <0>         0.4285
@<TRIPOS>BOND
     1    1    2 1
     2    1   25 1
     3    1   26 1
     4    1   27 1
     5    2   13 1
     6    2    3 1
     7    2   43 1
     8    3    4 1
     9    3   28 1
    10    3   29 1
    11    4    5 1
    12    4   30 1
    13    4   31 1
    14    5   10 ar
    15    5    6 ar
    16    6    7 ar
    17    6   32 1
    18    7    8 ar
    19    7   24 1
    20    8    9 ar
    21    8   23 1
    22    9   10 ar
    23    9   33 1
    24   10   11 1
    25   11   12 1
    26   11   18 1
    27   11   13 1
    28   13   14 1
    29   13   15 1
    30   15   16 1
    31   15   34 1
    32   15   35 1
    33   16   17 1
    34   16   36 1
    35   16   37 1
    36   17   22 ar
    37   17   18 ar
    38   18   19 ar
    39   19   20 ar
    40   19   38 1
    41   20   21 ar
    42   20   39 1
    43   21   22 ar
    44   21   40 1
    45   22   41 1
    46   23   42 1
@<TRIPOS>MOLECULE
ZINC05732271
   43    44     0     0     0
SMALL
USER_CHARGES
3,5-dichloro-N-[[1-(2-fluoroethyl)pyrrolidin-2-yl]methyl]-2-hydroxy-6-methoxy-benzamide
@<TRIPOS>ATOM
      1 C1         -5.8647    3.8568   -5.3967 C.3       1 <0>         0.0298
      2 O1         -5.2550    2.5842   -5.1709 O.3       1 <0>        -0.3257
      3 C2         -4.1898    2.2648   -5.9485 C.ar      1 <0>         0.1635
      4 C3         -4.3811    1.6101   -7.1555 C.ar      1 <0>        -0.0555
      5 C4         -3.2965    1.2779   -7.9469 C.ar      1 <0>        -0.0505
      6 C5         -2.0117    1.5995   -7.5468 C.ar      1 <0>        -0.0599
      7 C6         -1.7993    2.2594   -6.3468 C.ar      1 <0>         0.1661
      8 C7         -2.8922    2.6008   -5.5368 C.ar      1 <0>        -0.1707
      9 C8         -2.6780    3.3021   -4.2600 C.2       1 <0>         0.5921
     10 O2         -2.6675    4.5179   -4.2282 O.2       1 <0>        -0.4885
     11 N1         -2.4937    2.5967   -3.1264 N.am      1 <0>        -0.7465
     12 C9         -2.2806    3.2944   -1.8560 C.3       1 <0>         0.0989
     13 C10        -1.9360    2.2767   -0.7668 C.3       1 <0>         0.0158
     14 H1         -2.7519    1.5648   -0.6418 H         1 <0>         0.1533
     15 C11        -1.6383    2.9963    0.5723 C.3       1 <0>        -0.1337
     16 C12        -0.7418    1.9552    1.2984 C.3       1 <0>        -0.1383
     17 C13         0.0735    1.3373    0.1430 C.3       1 <0>        -0.0169
     18 C14        -0.9607    0.3023   -1.7918 C.3       1 <0>        -0.0434
     19 C15         0.3105   -0.1907   -2.4861 C.3       1 <0>         0.0452
     20 F1          0.0451   -1.3969   -3.1433 F         1 <0>        -0.1768
     21 O3         -0.5382    2.5746   -5.9570 O.3       1 <0>        -0.4671
     22 Cl1        -0.6611    1.1754   -8.5517 Cl        1 <0>        -0.0173
     23 Cl2        -5.9868    1.1999   -7.6722 Cl        1 <0>        -0.0160
     24 H2         -6.2256    3.9096   -6.4238 H         1 <0>         0.0597
     25 H3         -6.7017    3.9855   -4.7104 H         1 <0>         0.1082
     26 H4         -5.1319    4.6458   -5.2280 H         1 <0>         0.0591
     27 H5         -3.4536    0.7642   -8.8838 H         1 <0>         0.1650
     28 H6         -2.5021    1.6271   -3.1518 H         1 <0>         0.3965
     29 H7         -3.1886    3.8299   -1.5788 H         1 <0>         0.1196
     30 H8         -1.4595    4.0031   -1.9639 H         1 <0>         0.1034
     31 H9         -1.0951    3.9261    0.4036 H         1 <0>         0.1066
     32 H10        -2.5569    3.1788    1.1301 H         1 <0>         0.1250
     33 H11        -1.3522    1.1965    1.7881 H         1 <0>         0.1026
     34 H12        -0.0833    2.4440    2.0164 H         1 <0>         0.1189
     35 H13         0.1977    0.2670    0.3077 H         1 <0>         0.1368
     36 H14         1.0496    1.8183    0.0793 H         1 <0>         0.1366
     37 H15        -1.2904   -0.4417   -1.0666 H         1 <0>         0.1506
     38 H16        -1.7433    0.4576   -2.5344 H         1 <0>         0.1287
     39 H17         0.6402    0.5533   -3.2114 H         1 <0>         0.0973
     40 H18         1.0932   -0.3460   -1.7436 H         1 <0>         0.1032
     41 H19        -0.1071    1.8893   -5.4282 H         1 <0>         0.3900
     42 N2         -0.6764    1.5872   -1.1012 N.4       1 <0>        -0.3957
     43 H20        -0.1170    2.1844   -1.7214 H         1 <0>         0.4303
@<TRIPOS>BOND
     1    1    2 1
     2    1   24 1
     3    1   25 1
     4    1   26 1
     5    2    3 1
     6    3    8 ar
     7    3    4 ar
     8    4    5 ar
     9    4   23 1
    10    5    6 ar
    11    5   27 1
    12    6    7 ar
    13    6   22 1
    14    7    8 ar
    15    7   21 1
    16    8    9 1
    17    9   10 2
    18    9   11 am
    19   11   12 1
    20   11   28 1
    21   12   13 1
    22   12   29 1
    23   12   30 1
    24   13   14 1
    25   13   15 1
    26   13   42 1
    27   15   16 1
    28   15   31 1
    29   15   32 1
    30   16   17 1
    31   16   33 1
    32   16   34 1
    33   17   35 1
    34   17   36 1
    35   17   42 1
    36   18   19 1
    37   18   37 1
    38   18   38 1
    39   18   42 1
    40   19   20 1
    41   19   39 1
    42   19   40 1
    43   21   41 1
    44   42   43 1
@<TRIPOS>MOLECULE
ZINC20639354
   45    47     0     0     0
SMALL
USER_CHARGES
4-[2-(2-benzylphenoxy)ethyl]morpholine
@<TRIPOS>ATOM
      1 C1         -2.6566    2.5964   -3.5169 C.ar      1 <0>        -0.1255
      2 C2         -1.6394    3.3979   -3.0335 C.ar      1 <0>        -0.1213
      3 C3         -0.8624    2.9655   -1.9751 C.ar      1 <0>        -0.1166
      4 C4         -1.1024    1.7314   -1.4004 C.ar      1 <0>        -0.0726
      5 C5         -2.1159    0.9274   -1.8875 C.ar      1 <0>        -0.1053
      6 C6         -2.8963    1.3621   -2.9425 C.ar      1 <0>        -0.1227
      7 C7         -0.2551    1.2599   -0.2468 C.3       1 <0>        -0.0348
      8 C8         -0.8804    1.7042    1.0504 C.ar      1 <0>        -0.1076
      9 C9         -0.4601    2.8728    1.6560 C.ar      1 <0>        -0.0776
     10 C10        -1.0367    3.2834    2.8435 C.ar      1 <0>        -0.1574
     11 C11        -2.0278    2.5206    3.4336 C.ar      1 <0>        -0.0830
     12 C12        -2.4478    1.3489    2.8349 C.ar      1 <0>        -0.2108
     13 C13        -1.8744    0.9373    1.6403 C.ar      1 <0>         0.1387
     14 O1         -2.2855   -0.2154    1.0495 O.3       1 <0>        -0.2916
     15 C14        -3.3130   -0.9540    1.7134 C.3       1 <0>         0.0637
     16 C15        -3.6410   -2.2110    0.9051 C.3       1 <0>         0.0537
     17 N1         -2.4727   -3.1013    0.8886 N.3       1 <0>        -0.5281
     18 C16        -2.5617   -4.0669   -0.2164 C.3       1 <0>         0.0176
     19 C17        -1.2996   -4.9333   -0.2328 C.3       1 <0>         0.0613
     20 O2         -1.1517   -5.5753    1.0366 O.3       1 <0>        -0.3848
     21 C18        -1.0613   -4.6644    2.1354 C.3       1 <0>         0.0622
     22 C19        -2.3210   -3.7953    2.1758 C.3       1 <0>         0.0135
     23 H1         -3.2639    2.9343   -4.3436 H         1 <0>         0.1186
     24 H2         -1.4519    4.3621   -3.4825 H         1 <0>         0.1198
     25 H3         -0.0677    3.5918   -1.5974 H         1 <0>         0.1188
     26 H4         -2.3005   -0.0386   -1.4413 H         1 <0>         0.1262
     27 H5         -3.6907    0.7357   -3.3204 H         1 <0>         0.1182
     28 H6         -0.1892    0.1620   -0.2650 H         1 <0>         0.0885
     29 H7          0.7539    1.6893   -0.3334 H         1 <0>         0.0790
     30 H8          0.3166    3.4681    1.1991 H         1 <0>         0.1268
     31 H9         -0.7097    4.1993    3.3132 H         1 <0>         0.1228
     32 H10        -2.4736    2.8412    4.3636 H         1 <0>         0.1225
     33 H11        -3.2216    0.7533    3.2964 H         1 <0>         0.1245
     34 H12        -2.9668   -1.2432    2.7167 H         1 <0>         0.0624
     35 H13        -4.2143   -0.3297    1.8023 H         1 <0>         0.0666
     36 H14        -4.4926   -2.7321    1.3670 H         1 <0>         0.0609
     37 H15        -3.9001   -1.9270   -0.1255 H         1 <0>         0.0886
     38 H16        -3.4457   -4.7060   -0.0745 H         1 <0>         0.0432
     39 H17        -2.6497   -3.5258   -1.1700 H         1 <0>         0.0890
     40 H18        -1.3873   -5.6939   -1.0226 H         1 <0>         0.1000
     41 H19        -0.4223   -4.2996   -0.4298 H         1 <0>         0.0620
     42 H20        -0.9737   -5.2303    3.0746 H         1 <0>         0.0994
     43 H21        -0.1757   -4.0242    2.0091 H         1 <0>         0.0615
     44 H22        -2.2317   -3.0541    2.9837 H         1 <0>         0.0855
     45 H23        -3.2011   -4.4300    2.3561 H         1 <0>         0.0442
@<TRIPOS>BOND
     1    1    6 ar
     2    1    2 ar
     3    1   23 1
     4    2    3 ar
     5    2   24 1
     6    3    4 ar
     7    3   25 1
     8    4    5 ar
     9    4    7 1
    10    5    6 ar
    11    5   26 1
    12    6   27 1
    13    7    8 1
    14    7   28 1
    15    7   29 1
    16    8   13 ar
    17    8    9 ar
    18    9   10 ar
    19    9   30 1
    20   10   11 ar
    21   10   31 1
    22   11   12 ar
    23   11   32 1
    24   12   13 ar
    25   12   33 1
    26   13   14 1
    27   14   15 1
    28   15   16 1
    29   15   34 1
    30   15   35 1
    31   16   17 1
    32   16   36 1
    33   16   37 1
    34   17   22 1
    35   17   18 1
    36   18   19 1
    37   18   38 1
    38   18   39 1
    39   19   20 1
    40   19   40 1
    41   19   41 1
    42   20   21 1
    43   21   22 1
    44   21   42 1
    45   21   43 1
    46   22   44 1
    47   22   45 1
@<TRIPOS>MOLECULE
ZINC29327451
   40    40     0     0     0
SMALL
USER_CHARGES
3-[2-(dipropylamino)ethyl]phenol
@<TRIPOS>ATOM
      1 C1          1.2201    2.6070   -5.6713 C.3       1 <0>        -0.1579
      2 C2          1.9362    3.6594   -4.8226 C.3       1 <0>        -0.1520
      3 C3          3.4476    3.5372   -5.0269 C.3       1 <0>        -0.0164
      4 N1          4.1367    4.5275   -4.1888 N.4       1 <0>        -0.3991
      5 C4          3.7772    5.8952   -4.5864 C.3       1 <0>        -0.0147
      6 C5          4.4302    6.2239   -5.9304 C.3       1 <0>        -0.1486
      7 C6          4.0549    7.6480   -6.3450 C.3       1 <0>        -0.1583
      8 C7          3.8528    4.3012   -2.7653 C.3       1 <0>        -0.0088
      9 C8          4.4629    2.9676   -2.3293 C.3       1 <0>        -0.1004
     10 C9          4.1717    2.7355   -0.8690 C.ar      1 <0>        -0.0641
     11 C10         5.0553    3.1904    0.0925 C.ar      1 <0>        -0.1558
     12 C11         4.7907    2.9794    1.4329 C.ar      1 <0>        -0.0695
     13 C12         3.6399    2.3174    1.8152 C.ar      1 <0>        -0.1511
     14 C13         2.7545    1.8555    0.8525 C.ar      1 <0>         0.1663
     15 C14         3.0221    2.0689   -0.4922 C.ar      1 <0>        -0.2102
     16 O1          1.6242    1.1999    1.2258 O.3       1 <0>        -0.5045
     17 H1          0.1335    2.6949   -5.5244 H         1 <0>         0.0766
     18 H2          1.5513    1.6032   -5.3669 H         1 <0>         0.0667
     19 H3          1.4607    2.7663   -6.7328 H         1 <0>         0.0676
     20 H4          1.6050    4.6632   -5.1270 H         1 <0>         0.0854
     21 H5          1.6956    3.5001   -3.7611 H         1 <0>         0.0845
     22 H6          3.7752    2.5259   -4.7441 H         1 <0>         0.1316
     23 H7          3.6906    3.7190   -6.0842 H         1 <0>         0.1322
     24 H8          2.6841    5.9742   -4.6808 H         1 <0>         0.1291
     25 H9          4.1316    6.6040   -3.8235 H         1 <0>         0.1309
     26 H10         5.5233    6.1456   -5.8358 H         1 <0>         0.0868
     27 H11         4.0764    5.5147   -6.6932 H         1 <0>         0.0845
     28 H12         4.5244    7.8843   -7.3113 H         1 <0>         0.0779
     29 H13         4.4087    8.3572   -5.5822 H         1 <0>         0.0677
     30 H14         2.9618    7.7263   -6.4395 H         1 <0>         0.0663
     31 H15         4.2900    5.1165   -2.1701 H         1 <0>         0.1334
     32 H16         2.7644    4.2754   -2.6080 H         1 <0>         0.1303
     33 H17         4.0257    2.1524   -2.9245 H         1 <0>         0.0938
     34 H18         5.5513    2.9934   -2.4866 H         1 <0>         0.0976
     35 H19         5.9534    3.7117   -0.2042 H         1 <0>         0.1254
     36 H20         5.4822    3.3360    2.1820 H         1 <0>         0.1358
     37 H21         3.4316    2.1565    2.8627 H         1 <0>         0.1350
     38 H22         2.3323    1.7138   -1.2435 H         1 <0>         0.1261
     39 H23         0.9227    0.8340    0.4615 H         1 <0>         0.4378
     40 H24         5.2191    4.4048   -4.3414 H         1 <0>         0.4421
@<TRIPOS>BOND
     1    1    2 1
     2    1   17 1
     3    1   18 1
     4    1   19 1
     5    2    3 1
     6    2   20 1
     7    2   21 1
     8    3    4 1
     9    3   22 1
    10    3   23 1
    11    4    5 1
    12    4    8 1
    13    4   40 1
    14    5    6 1
    15    5   24 1
    16    5   25 1
    17    6    7 1
    18    6   26 1
    19    6   27 1
    20    7   28 1
    21    7   29 1
    22    7   30 1
    23    8    9 1
    24    8   31 1
    25    8   32 1
    26    9   10 1
    27    9   33 1
    28    9   34 1
    29   10   15 ar
    30   10   11 ar
    31   11   12 ar
    32   11   35 1
    33   12   13 ar
    34   12   36 1
    35   13   14 ar
    36   13   37 1
    37   14   15 ar
    38   14   16 1
    39   15   38 1
    40   16   39 1
@<TRIPOS>MOLECULE
ZINC19796155
   42    45     0     0     0
SMALL
USER_CHARGES

@<TRIPOS>ATOM
      1 C1         -0.0670    1.4396   -0.3852 C.3       1 <0>         0.0243
      2 N1         -0.0229   -0.0169   -0.1987 N.3       1 <0>        -0.5428
      3 C2          0.3808   -0.6943   -1.4380 C.3       1 <0>         0.0399
      4 C3          0.2401   -2.2095   -1.2572 C.3       1 <0>         0.1263
      5 N2          0.9912   -2.6085   -0.0572 N.pl3     1 <0>        -0.5953
      6 C4          0.7394   -1.8803    1.1955 C.3       1 <0>         0.1122
      7 C5          0.8604   -0.3781    0.9181 C.3       1 <0>         0.0393
      8 C6          1.9051   -3.6365   -0.1053 C.2       1 <0>         0.5098
      9 N3          2.1670   -4.1290   -1.2643 N.2       1 <0>        -0.6041
     10 C7          3.0130   -5.1503   -1.5719 C.ar      1 <0>         0.1655
     11 C8          2.6280   -6.0848   -2.5372 C.ar      1 <0>        -0.1058
     12 C9          3.4872   -7.1047   -2.8991 C.ar      1 <0>        -0.0230
     13 C10         4.7348   -7.2069   -2.3106 C.ar      1 <0>        -0.1209
     14 C11         5.1212   -6.2977   -1.3402 C.ar      1 <0>        -0.1017
     15 C12         4.2618   -5.2835   -0.9546 C.ar      1 <0>         0.1117
     16 N4          4.6314   -4.4326    0.1003 N.pl3     1 <0>        -0.7261
     17 C13         3.8434   -4.4184    1.2519 C.ar      1 <0>         0.2140
     18 C14         2.4943   -4.0640    1.1729 C.ar      1 <0>        -0.1453
     19 C15         1.7072   -4.1133    2.3240 C.ar      1 <0>        -0.0723
     20 C16         2.2727   -4.4729    3.5311 C.ar      1 <0>        -0.1389
     21 C17         3.6189   -4.7825    3.6069 C.ar      1 <0>        -0.0765
     22 C18         4.3974   -4.7629    2.4751 C.ar      1 <0>        -0.1433
     23 Cl1         2.9987   -8.2627   -4.0966 Cl        1 <0>        -0.0679
     24 H1          0.9359    1.8090   -0.5992 H         1 <0>         0.0255
     25 H2         -0.7279    1.6794   -1.2181 H         1 <0>         0.0711
     26 H3         -0.4416    1.9111    0.5233 H         1 <0>         0.0709
     27 H4         -0.2581   -0.3649   -2.2574 H         1 <0>         0.0878
     28 H5          1.4186   -0.4499   -1.6647 H         1 <0>         0.0378
     29 H6         -0.8117   -2.4673   -1.1334 H         1 <0>         0.0720
     30 H7          0.6453   -2.7216   -2.1299 H         1 <0>         0.1060
     31 H8         -0.2645   -2.1065    1.5551 H         1 <0>         0.0792
     32 H9          1.4746   -2.1748    1.9444 H         1 <0>         0.0984
     33 H10         1.8915   -0.1381    0.6586 H         1 <0>         0.0379
     34 H11         0.5693    0.1807    1.8075 H         1 <0>         0.0892
     35 H12         1.6558   -6.0097   -3.0016 H         1 <0>         0.1375
     36 H13         5.4083   -7.9971   -2.6081 H         1 <0>         0.1357
     37 H14         6.0961   -6.3802   -0.8829 H         1 <0>         0.1326
     38 H15         5.4169   -3.8679    0.0299 H         1 <0>         0.4097
     39 H16         0.6563   -3.8699    2.2709 H         1 <0>         0.1344
     40 H17         1.6613   -4.5124    4.4205 H         1 <0>         0.1323
     41 H18         4.0571   -5.0467    4.5580 H         1 <0>         0.1317
     42 H19         5.4473   -5.0071    2.5424 H         1 <0>         0.1313
@<TRIPOS>BOND
     1    1    2 1
     2    1   24 1
     3    1   25 1
     4    1   26 1
     5    2    7 1
     6    2    3 1
     7    3    4 1
     8    3   27 1
     9    3   28 1
    10    4    5 1
    11    4   29 1
    12    4   30 1
    13    5    6 1
    14    5    8 1
    15    6    7 1
    16    6   31 1
    17    6   32 1
    18    7   33 1
    19    7   34 1
    20    8   18 1
    21    8    9 2
    22    9   10 1
    23   10   15 ar
    24   10   11 ar
    25   11   12 ar
    26   11   35 1
    27   12   13 ar
    28   12   23 1
    29   13   14 ar
    30   13   36 1
    31   14   15 ar
    32   14   37 1
    33   15   16 1
    34   16   17 1
    35   16   38 1
    36   17   22 ar
    37   17   18 ar
    38   18   19 ar
    39   19   20 ar
    40   19   39 1
    41   20   21 ar
    42   20   40 1
    43   21   22 ar
    44   21   41 1
    45   22   42 1
@<TRIPOS>MOLECULE
ZINC19796155
   44    47     0     0     0
SMALL
USER_CHARGES

@<TRIPOS>ATOM
      1 C1         -1.5703   -0.0018   -1.9302 C.3       1 <0>        -0.0497
      2 N1         -0.7527   -0.7171   -0.9414 N.4       1 <0>        -0.3854
      3 C2         -1.0498   -2.1535   -1.0104 C.3       1 <0>        -0.0252
      4 C3         -0.2839   -2.8861    0.0962 C.3       1 <0>         0.1048
      5 N2          1.1441   -2.5548   -0.0269 N.pl3     1 <0>        -0.7052
      6 C4          1.5202   -1.1363   -0.1296 C.3       1 <0>         0.1049
      7 C5          0.6692   -0.4862   -1.2256 C.3       1 <0>        -0.0251
      8 C6          2.0831   -3.5253   -0.0448 C.2       1 <0>         0.6309
      9 C7          2.6112   -3.9094    1.2074 C.ar      1 <0>        -0.2438
     10 C8          2.0495   -3.1929    2.2728 C.ar      1 <0>         0.0055
     11 C9          2.4602   -3.4528    3.5483 C.ar      1 <0>        -0.1817
     12 C10         3.4265   -4.4148    3.8208 C.ar      1 <0>         0.0489
     13 C11         4.0101   -5.1439    2.8276 C.ar      1 <0>        -0.2233
     14 C12         3.6302   -4.9235    1.4921 C.ar      1 <0>         0.3343
     15 N3          4.2865   -5.7106    0.6358 N.pl3     1 <0>        -0.6131
     16 C13         4.1767   -5.7728   -0.7271 C.ar      1 <0>         0.1589
     17 C14         5.0408   -6.7320   -1.2562 C.ar      1 <0>        -0.1157
     18 C15         5.0795   -6.9478   -2.6222 C.ar      1 <0>        -0.0495
     19 C16         4.2642   -6.2154   -3.4643 C.ar      1 <0>        -0.0338
     20 C17         3.4016   -5.2585   -2.9468 C.ar      1 <0>        -0.0846
     21 C18         3.3520   -5.0321   -1.5848 C.ar      1 <0>         0.0769
     22 N4          2.4115   -4.0290   -1.2719 N.pl3     1 <0>        -0.5773
     23 Cl1         4.3195   -6.4929   -5.1771 Cl        1 <0>        -0.0159
     24 H1         -1.3348   -0.3678   -2.9295 H         1 <0>         0.1246
     25 H2         -2.6262   -0.1724   -1.7203 H         1 <0>         0.1321
     26 H3         -1.3566    1.0656   -1.8745 H         1 <0>         0.1321
     27 H4         -2.1201   -2.3101   -0.8766 H         1 <0>         0.1569
     28 H5         -0.7442   -2.5415   -1.9820 H         1 <0>         0.1344
     29 H6         -0.6518   -2.5648    1.0707 H         1 <0>         0.1155
     30 H7         -0.4211   -3.9618   -0.0138 H         1 <0>         0.1302
     31 H8          1.3345   -0.6383    0.8220 H         1 <0>         0.1155
     32 H9          2.5758   -1.0551   -0.3891 H         1 <0>         0.1302
     33 H10         0.9228   -0.9247   -2.1907 H         1 <0>         0.1344
     34 H11         0.8655    0.5856   -1.2504 H         1 <0>         0.1569
     35 H12         1.2975   -2.4405    2.0860 H         1 <0>         0.1502
     36 H13         2.0243   -2.8976    4.3657 H         1 <0>         0.1496
     37 H14         3.7223   -4.5886    4.8448 H         1 <0>         0.1558
     38 H15         4.7590   -5.8851    3.0650 H         1 <0>         0.1623
     39 H16         5.6790   -7.3052   -0.6001 H         1 <0>         0.1677
     40 H17         5.7487   -7.6901   -3.0316 H         1 <0>         0.1653
     41 H18         2.7675   -4.6896   -3.6107 H         1 <0>         0.1565
     42 H19         1.9393   -3.6432   -2.0263 H         1 <0>         0.4255
     43 H20         4.9278   -6.3202    1.0333 H         1 <0>         0.4372
     44 H21        -0.9695   -0.3754   -0.0171 H         1 <0>         0.4310
@<TRIPOS>BOND
     1    1    2 1
     2    1   24 1
     3    1   25 1
     4    1   26 1
     5    2    7 1
     6    2    3 1
     7    2   44 1
     8    3    4 1
     9    3   27 1
    10    3   28 1
    11    4    5 1
    12    4   29 1
    13    4   30 1
    14    5    6 1
    15    5    8 1
    16    6    7 1
    17    6   31 1
    18    6   32 1
    19    7   33 1
    20    7   34 1
    21    8   22 1
    22    8    9 2
    23    9   14 ar
    24    9   10 ar
    25   10   11 ar
    26   10   35 1
    27   11   12 ar
    28   11   36 1
    29   12   13 ar
    30   12   37 1
    31   13   14 ar
    32   13   38 1
    33   14   15 2
    34   15   16 1
    35   15   43 1
    36   16   21 ar
    37   16   17 ar
    38   17   18 ar
    39   17   39 1
    40   18   19 ar
    41   18   40 1
    42   19   20 ar
    43   19   23 1
    44   20   21 ar
    45   20   41 1
    46   21   22 1
    47   22   42 1
@<TRIPOS>MOLECULE
ZINC19796155
   43    46     0     0     0
SMALL
USER_CHARGES

@<TRIPOS>ATOM
      1 C1         -0.0523    1.4387   -0.3863 C.3       1 <0>        -0.0469
      2 N1         -0.0147   -0.0168   -0.1908 N.4       1 <0>        -0.3852
      3 C2          0.4863   -0.6601   -1.4120 C.3       1 <0>        -0.0213
      4 C3          0.4181   -2.1823   -1.2510 C.3       1 <0>         0.1002
      5 N2          1.1441   -2.5548   -0.0269 N.pl3     1 <0>        -0.6180
      6 C4          0.8178   -1.8405    1.2170 C.3       1 <0>         0.0860
      7 C5          0.8671   -0.3344    0.9395 C.3       1 <0>        -0.0221
      8 C6          2.1017   -3.5432   -0.0451 C.2       1 <0>         0.5019
      9 N3          2.4234   -4.0210   -1.1951 N.2       1 <0>        -0.5760
     10 C7          3.3217   -5.0050   -1.4750 C.ar      1 <0>         0.1390
     11 C8          3.0096   -5.9522   -2.4541 C.ar      1 <0>        -0.0932
     12 C9          3.9229   -6.9340   -2.7877 C.ar      1 <0>        -0.0267
     13 C10         5.1529   -6.9852   -2.1572 C.ar      1 <0>        -0.1032
     14 C11         5.4673   -6.0631   -1.1730 C.ar      1 <0>        -0.1031
     15 C12         4.5533   -5.0871   -0.8155 C.ar      1 <0>         0.1235
     16 N4          4.8505   -4.2243    0.2524 N.pl3     1 <0>        -0.7273
     17 C13         4.0239   -4.2464    1.3765 C.ar      1 <0>         0.2173
     18 C14         2.6645   -3.9489    1.2520 C.ar      1 <0>        -0.1537
     19 C15         1.8414   -4.0345    2.3754 C.ar      1 <0>        -0.0841
     20 C16         2.3802   -4.3733    3.6007 C.ar      1 <0>        -0.1334
     21 C17         3.7349   -4.6261    3.7220 C.ar      1 <0>        -0.0692
     22 C18         4.5500   -4.5705    2.6174 C.ar      1 <0>        -0.1369
     23 Cl1         3.5248   -8.1083   -4.0027 Cl        1 <0>        -0.0551
     24 H1          0.9534    1.8033   -0.5956 H         1 <0>         0.1211
     25 H2         -0.7066    1.6758   -1.2253 H         1 <0>         0.1256
     26 H3         -0.4316    1.9169    0.5167 H         1 <0>         0.1252
     27 H4         -0.1269   -0.3565   -2.2605 H         1 <0>         0.1425
     28 H5          1.5196   -0.3587   -1.5839 H         1 <0>         0.1315
     29 H6         -0.6226   -2.4957   -1.1694 H         1 <0>         0.0898
     30 H7          0.8819   -2.6629   -2.1125 H         1 <0>         0.1431
     31 H8         -0.1827   -2.1194    1.5479 H         1 <0>         0.0960
     32 H9          1.5457   -2.0950    1.9873 H         1 <0>         0.1385
     33 H10         1.8889   -0.0428    0.6965 H         1 <0>         0.1320
     34 H11         0.5345    0.2092    1.8238 H         1 <0>         0.1439
     35 H12         2.0515   -5.9169   -2.9512 H         1 <0>         0.1396
     36 H13         5.8689   -7.7454   -2.4325 H         1 <0>         0.1422
     37 H14         6.4287   -6.1057   -0.6827 H         1 <0>         0.1382
     38 H15         5.6134   -3.6267    0.2096 H         1 <0>         0.4129
     39 H16         0.7836   -3.8354    2.2868 H         1 <0>         0.1314
     40 H17         1.7411   -4.4409    4.4686 H         1 <0>         0.1357
     41 H18         4.1512   -4.8742    4.6872 H         1 <0>         0.1370
     42 H19         5.6063   -4.7705    2.7202 H         1 <0>         0.1363
     43 H20        -0.9456   -0.3526    0.0057 H         1 <0>         0.4250
@<TRIPOS>BOND
     1    1    2 1
     2    1   24 1
     3    1   25 1
     4    1   26 1
     5    2    7 1
     6    2    3 1
     7    2   43 1
     8    3    4 1
     9    3   27 1
    10    3   28 1
    11    4    5 1
    12    4   29 1
    13    4   30 1
    14    5    6 1
    15    5    8 1
    16    6    7 1
    17    6   31 1
    18    6   32 1
    19    7   33 1
    20    7   34 1
    21    8   18 1
    22    8    9 2
    23    9   10 1
    24   10   15 ar
    25   10   11 ar
    26   11   12 ar
    27   11   35 1
    28   12   13 ar
    29   12   23 1
    30   13   14 ar
    31   13   36 1
    32   14   15 ar
    33   14   37 1
    34   15   16 1
    35   16   17 1
    36   16   38 1
    37   17   22 ar
    38   17   18 ar
    39   18   19 ar
    40   19   20 ar
    41   19   39 1
    42   20   21 ar
    43   20   40 1
    44   21   22 ar
    45   21   41 1
    46   22   42 1
@<TRIPOS>MOLECULE
ZINC01486281
   45    48     0     0     0
SMALL
USER_CHARGES

@<TRIPOS>ATOM
      1 C1         -0.0179    1.4656    0.0101 C.3       1 <0>        -0.0487
      2 N1          0.0021   -0.0041    0.0020 N.4       1 <0>        -0.3876
      3 C2          0.6866   -0.4750   -1.2088 C.3       1 <0>        -0.0093
      4 C3          0.3378   -1.9456   -1.4554 C.3       1 <0>        -0.1069
      5 C4          1.6024   -2.7643   -1.4577 C.ar      1 <0>        -0.0970
      6 C5          2.5914   -2.4544   -2.3787 C.ar      1 <0>        -0.1147
      7 C6          3.7651   -3.1802   -2.4135 C.ar      1 <0>        -0.1085
      8 C7          3.9564   -4.2213   -1.5242 C.ar      1 <0>        -0.1019
      9 C8          2.9727   -4.5320   -0.6070 C.ar      1 <0>        -0.1091
     10 C9          1.7911   -3.8057   -0.5735 C.ar      1 <0>        -0.0696
     11 C10         0.7396   -4.1857    0.4337 C.3       1 <0>        -0.0338
     12 C11         1.1619   -3.7597    1.8151 C.2       1 <0>         0.1169
     13 C12         0.7815   -2.6321    2.4351 C.2       1 <0>        -0.1914
     14 C13         1.4191   -2.6311    3.7543 C.ar      1 <0>        -0.0982
     15 C14         1.4031   -1.7487    4.8366 C.ar      1 <0>        -0.0810
     16 C15         2.1202   -2.0433    5.9617 C.ar      1 <0>        -0.1330
     17 C16         2.8657   -3.2122    6.0353 C.ar      1 <0>        -0.0915
     18 C17         2.8974   -4.0948    4.9782 C.ar      1 <0>        -0.1235
     19 C18         2.1736   -3.8155    3.8230 C.ar      1 <0>         0.1009
     20 N2          2.0006   -4.4753    2.6277 N.pl3     1 <0>        -0.5841
     21 H1          2.4129   -5.3216    2.3940 H         1 <0>         0.4182
     22 C19        -0.1276   -1.5593    1.8914 C.3       1 <0>        -0.0585
     23 C20         0.7126   -0.4887    1.1922 C.3       1 <0>        -0.0138
     24 H2          1.0047    1.8428    0.0024 H         1 <0>         0.1221
     25 H3         -0.5450    1.8266   -0.8730 H         1 <0>         0.1236
     26 H4         -0.5280    1.8171    0.9069 H         1 <0>         0.1254
     27 H5          0.3617    0.1204   -2.0630 H         1 <0>         0.1345
     28 H6          1.7636   -0.3715   -1.0838 H         1 <0>         0.1328
     29 H7         -0.3430   -2.2902   -0.6846 H         1 <0>         0.0939
     30 H8         -0.1491   -2.0370   -2.4301 H         1 <0>         0.1131
     31 H9          2.4389   -1.6399   -3.0717 H         1 <0>         0.1265
     32 H10         4.5325   -2.9366   -3.1333 H         1 <0>         0.1311
     33 H11         4.8740   -4.7902   -1.5485 H         1 <0>         0.1304
     34 H12         3.1194   -5.3439    0.0904 H         1 <0>         0.1204
     35 H13        -0.2153   -3.7387    0.1833 H         1 <0>         0.1003
     36 H14         0.6251   -5.2758    0.4250 H         1 <0>         0.0950
     37 H15         0.8262   -0.8371    4.7845 H         1 <0>         0.1200
     38 H16         2.1060   -1.3623    6.7998 H         1 <0>         0.1275
     39 H17         3.4259   -3.4324    6.9320 H         1 <0>         0.1312
     40 H18         3.4817   -5.0005    5.0457 H         1 <0>         0.1247
     41 H19        -0.8299   -1.9979    1.1852 H         1 <0>         0.0850
     42 H20        -0.6798   -1.1042    2.7153 H         1 <0>         0.1012
     43 H21         1.6723   -0.9135    0.8986 H         1 <0>         0.1319
     44 H22         0.8810    0.3432    1.8775 H         1 <0>         0.1331
     45 H23        -0.9456   -0.3503    0.0095 H         1 <0>         0.4227
@<TRIPOS>BOND
     1    1    2 1
     2    1   24 1
     3    1   25 1
     4    1   26 1
     5    2   23 1
     6    2    3 1
     7    2   45 1
     8    3    4 1
     9    3   27 1
    10    3   28 1
    11    4    5 1
    12    4   29 1
    13    4   30 1
    14    5   10 ar
    15    5    6 ar
    16    6    7 ar
    17    6   31 1
    18    7    8 ar
    19    7   32 1
    20    8    9 ar
    21    8   33 1
    22    9   10 ar
    23    9   34 1
    24   10   11 1
    25   11   12 1
    26   11   35 1
    27   11   36 1
    28   12   20 1
    29   12   13 2
    30   13   14 1
    31   13   22 1
    32   14   19 ar
    33   14   15 ar
    34   15   16 ar
    35   15   37 1
    36   16   17 ar
    37   16   38 1
    38   17   18 ar
    39   17   39 1
    40   18   19 ar
    41   18   40 1
    42   19   20 1
    43   20   21 1
    44   22   23 1
    45   22   41 1
    46   22   42 1
    47   23   43 1
    48   23   44 1
@<TRIPOS>MOLECULE
ZINC22066528
   45    48     0     0     0
SMALL
USER_CHARGES
(13aS)-3,9-dimethoxy-6,8,13,13a-tetrahydro-5H-isoquinolino[2,1-b]isoquinoline-2,10-diol
@<TRIPOS>ATOM
      1 C1         -3.1227   -8.2634    5.7444 C.3       1 <0>         0.0227
      2 O1         -4.1038   -7.2288    5.8401 O.3       1 <0>        -0.3067
      3 C2         -3.7706   -6.0129    5.3301 C.ar      1 <0>         0.0932
      4 C3         -2.5290   -5.8173    4.7507 C.ar      1 <0>        -0.1705
      5 C4         -2.1864   -4.5789    4.2307 C.ar      1 <0>        -0.0707
      6 C5         -3.0801   -3.5314    4.2880 C.ar      1 <0>        -0.0717
      7 C6         -4.3270   -3.7243    4.8680 C.ar      1 <0>        -0.1750
      8 C7         -4.6757   -4.9574    5.3881 C.ar      1 <0>         0.1298
      9 O2         -5.8987   -5.1378    5.9547 O.3       1 <0>        -0.4995
     10 C8         -2.7579   -2.1662    3.7402 C.3       1 <0>         0.1286
     11 H1         -2.5295   -1.4955    4.5816 H         1 <0>         0.0572
     12 C9         -3.9424   -1.6810    2.8988 C.3       1 <0>        -0.0578
     13 C10        -3.5808   -0.4048    2.1849 C.ar      1 <0>        -0.1021
     14 C11        -4.6038    0.3821    1.6772 C.ar      1 <0>        -0.0780
     15 C12        -4.3188    1.5550    1.0069 C.ar      1 <0>        -0.1500
     16 C13        -3.0014    1.9524    0.8434 C.ar      1 <0>         0.1453
     17 C14        -1.9758    1.1628    1.3483 C.ar      1 <0>        -0.0012
     18 C15        -2.2678   -0.0158    2.0264 C.ar      1 <0>        -0.0525
     19 C16        -1.1264   -0.8270    2.5772 C.3       1 <0>         0.0961
     20 N1         -1.5608   -2.1954    2.8932 N.3       1 <0>        -0.5247
     21 C17        -0.4679   -2.9269    3.5534 C.3       1 <0>         0.0500
     22 C18        -0.8241   -4.4116    3.6069 C.3       1 <0>        -0.0731
     23 O3         -0.6816    1.5467    1.1837 O.3       1 <0>        -0.3307
     24 C19        -0.0127    1.0858    0.0080 C.3       1 <0>         0.0202
     25 O4         -2.7134    3.1078    0.1865 O.3       1 <0>        -0.5027
     26 H2         -3.5189   -9.1869    6.1917 H         1 <0>         0.1021
     27 H3         -2.2130   -7.9568    6.2814 H         1 <0>         0.0550
     28 H4         -2.8810   -8.4428    4.6864 H         1 <0>         0.0555
     29 H5         -1.8234   -6.6336    4.7038 H         1 <0>         0.1345
     30 H6         -5.0296   -2.9053    4.9135 H         1 <0>         0.1347
     31 H7         -6.6127   -4.3022    5.9996 H         1 <0>         0.4304
     32 H8         -4.2034   -2.4491    2.1559 H         1 <0>         0.0897
     33 H9         -4.8063   -1.4961    3.5541 H         1 <0>         0.0816
     34 H10        -5.6311    0.0753    1.8075 H         1 <0>         0.1328
     35 H11        -5.1206    2.1632    0.6149 H         1 <0>         0.1347
     36 H12        -0.3181   -0.8754    1.8326 H         1 <0>         0.0921
     37 H13        -0.7504   -0.3540    3.4964 H         1 <0>         0.0554
     38 H14         0.4626   -2.7890    2.9831 H         1 <0>         0.0839
     39 H15        -0.3327   -2.5409    4.5745 H         1 <0>         0.0415
     40 H16        -0.0762   -4.9468    4.2105 H         1 <0>         0.0805
     41 H17        -0.8348   -4.8233    2.5869 H         1 <0>         0.0865
     42 H18         1.0193    1.4666    0.0002 H         1 <0>         0.0995
     43 H19        -0.5447    1.4502   -0.8832 H         1 <0>         0.0477
     44 H20         0.0022   -0.0141    0.0020 H         1 <0>         0.0514
     45 H21        -1.6669    3.4212    0.0579 H         1 <0>         0.4342
@<TRIPOS>BOND
     1    1    2 1
     2    1   26 1
     3    1   27 1
     4    1   28 1
     5    2    3 1
     6    3    8 ar
     7    3    4 ar
     8    4    5 ar
     9    4   29 1
    10    5   22 1
    11    5    6 ar
    12    6    7 ar
    13    6   10 1
    14    7    8 ar
    15    7   30 1
    16    8    9 1
    17    9   31 1
    18   10   11 1
    19   10   20 1
    20   10   12 1
    21   12   13 1
    22   12   32 1
    23   12   33 1
    24   13   18 ar
    25   13   14 ar
    26   14   15 ar
    27   14   34 1
    28   15   16 ar
    29   15   35 1
    30   16   17 ar
    31   16   25 1
    32   17   18 ar
    33   17   23 1
    34   18   19 1
    35   19   20 1
    36   19   36 1
    37   19   37 1
    38   20   21 1
    39   21   22 1
    40   21   38 1
    41   21   39 1
    42   22   40 1
    43   22   41 1
    44   23   24 1
    45   24   42 1
    46   24   43 1
    47   24   44 1
    48   25   45 1
@<TRIPOS>MOLECULE
ZINC00009073
   38    41     0     0     0
SMALL
USER_CHARGES

@<TRIPOS>ATOM
      1 C1         -0.0178    1.4648    0.0101 C.3       1 <0>        -0.0530
      2 N1          0.0021   -0.0041    0.0020 N.4       1 <0>        -0.3818
      3 C2         -1.3707   -0.5099    0.0093 C.3       1 <0>        -0.0045
      4 C3         -1.3945   -2.0165   -0.1908 C.3       1 <0>        -0.1054
      5 C4         -0.2778   -2.7021    0.5444 C.ar      1 <0>        -0.0840
      6 C5         -0.2629   -4.0910    0.5709 C.ar      1 <0>        -0.1053
      7 C6          0.7244   -4.7743    1.2518 C.ar      1 <0>        -0.0885
      8 C7          1.7146   -4.0754    1.9128 C.ar      1 <0>        -0.0992
      9 C8          1.7194   -2.6860    1.8733 C.ar      1 <0>        -0.0068
     10 C9          0.7130   -1.9965    1.1919 C.ar      1 <0>        -0.1248
     11 C10         0.7133   -0.4906    1.1934 C.3       1 <0>         0.0895
     12 H1          0.2077   -0.1297    2.0890 H         1 <0>         0.1464
     13 C11         2.1391    0.0560    1.1696 C.3       1 <0>        -0.0929
     14 C12         2.9742   -0.5785    2.2479 C.ar      1 <0>        -0.0798
     15 C13         2.7759   -1.9188    2.5745 C.ar      1 <0>        -0.0653
     16 C14         3.5639   -2.5230    3.5530 C.ar      1 <0>         0.1042
     17 C15         4.5367   -1.7751    4.2088 C.ar      1 <0>         0.0998
     18 C16         4.7147   -0.4388    3.8881 C.ar      1 <0>        -0.1167
     19 C17         3.9357    0.1560    2.9107 C.ar      1 <0>        -0.0938
     20 O1          5.3124   -2.3551    5.1634 O.3       1 <0>        -0.4826
     21 O2          3.3828   -3.8338    3.8646 O.3       1 <0>        -0.4754
     22 H2          1.0047    1.8421    0.0024 H         1 <0>         0.1274
     23 H3         -0.5450    1.8259   -0.8730 H         1 <0>         0.1292
     24 H4         -0.5280    1.8163    0.9069 H         1 <0>         0.1253
     25 H5         -1.8367   -0.2679    0.9645 H         1 <0>         0.1303
     26 H6         -1.9326   -0.0329   -0.7937 H         1 <0>         0.1395
     27 H7         -2.3469   -2.4064    0.1685 H         1 <0>         0.1232
     28 H8         -1.3037   -2.2338   -1.2551 H         1 <0>         0.1049
     29 H9         -1.0333   -4.6427    0.0527 H         1 <0>         0.1363
     30 H10         0.7220   -5.8542    1.2677 H         1 <0>         0.1404
     31 H11         2.4813   -4.6056    2.4582 H         1 <0>         0.1525
     32 H12         2.5874   -0.1542    0.1986 H         1 <0>         0.1009
     33 H13         2.1121    1.1345    1.3252 H         1 <0>         0.1081
     34 H14         5.4652    0.1418    4.4038 H         1 <0>         0.1453
     35 H15         4.0810    1.1979    2.6663 H         1 <0>         0.1401
     36 H16         6.1269   -2.7493    4.8224 H         1 <0>         0.3972
     37 H17         3.9208   -4.4411    3.3384 H         1 <0>         0.3936
     38 H18         0.4752   -0.3291   -0.8278 H         1 <0>         0.4258
@<TRIPOS>BOND
     1    1    2 1
     2    1   22 1
     3    1   23 1
     4    1   24 1
     5    2   11 1
     6    2    3 1
     7    2   38 1
     8    3    4 1
     9    3   25 1
    10    3   26 1
    11    4    5 1
    12    4   27 1
    13    4   28 1
    14    5   10 ar
    15    5    6 ar
    16    6    7 ar
    17    6   29 1
    18    7    8 ar
    19    7   30 1
    20    8    9 ar
    21    8   31 1
    22    9   15 1
    23    9   10 ar
    24   10   11 1
    25   11   12 1
    26   11   13 1
    27   13   14 1
    28   13   32 1
    29   13   33 1
    30   14   19 ar
    31   14   15 ar
    32   15   16 ar
    33   16   17 ar
    34   16   21 1
    35   17   18 ar
    36   17   20 1
    37   18   19 ar
    38   18   34 1
    39   19   35 1
    40   20   36 1
    41   21   37 1
@<TRIPOS>MOLECULE
ZINC00009073
   37    40     0     0     0
SMALL
USER_CHARGES

@<TRIPOS>ATOM
      1 C1         -0.0178    1.4648    0.0101 C.3       1 <0>         0.0190
      2 N1          0.0021   -0.0041    0.0020 N.3       1 <0>        -0.5347
      3 C2         -1.3554   -0.5468   -0.0771 C.3       1 <0>         0.0548
      4 C3         -1.3255   -2.0437   -0.3363 C.3       1 <0>        -0.0776
      5 C4         -0.2136   -2.7298    0.4050 C.ar      1 <0>        -0.0660
      6 C5         -0.1676   -4.1185    0.3764 C.ar      1 <0>        -0.1168
      7 C6          0.8160   -4.8083    1.0555 C.ar      1 <0>        -0.1183
      8 C7          1.7732   -4.1167    1.7707 C.ar      1 <0>        -0.1100
      9 C8          1.7473   -2.7271    1.7884 C.ar      1 <0>        -0.0402
     10 C9          0.7422   -2.0318    1.1101 C.ar      1 <0>        -0.0602
     11 C10         0.7070   -0.5281    1.1816 C.3       1 <0>         0.1292
     12 H1          0.1788   -0.2212    2.0843 H         1 <0>         0.0565
     13 C11         2.1199    0.0508    1.2084 C.3       1 <0>        -0.0723
     14 C12         2.9454   -0.6100    2.2786 C.ar      1 <0>        -0.0656
     15 C13         2.7694   -1.9666    2.5450 C.ar      1 <0>        -0.0523
     16 C14         3.5484   -2.5938    3.5165 C.ar      1 <0>         0.0945
     17 C15         4.4897   -1.8532    4.2246 C.ar      1 <0>         0.0806
     18 C16         4.6455   -0.5013    3.9627 C.ar      1 <0>        -0.1259
     19 C17         3.8757    0.1166    2.9923 C.ar      1 <0>        -0.1047
     20 O1          5.2558   -2.4554    5.1733 O.3       1 <0>        -0.4864
     21 O2          3.3897   -3.9199    3.7698 O.3       1 <0>        -0.4768
     22 H2          1.0047    1.8421    0.0024 H         1 <0>         0.0749
     23 H3         -0.5450    1.8259   -0.8730 H         1 <0>         0.0732
     24 H4         -0.5280    1.8163    0.9069 H         1 <0>         0.0286
     25 H5         -1.8730   -0.3560    0.8630 H         1 <0>         0.0357
     26 H6         -1.8920   -0.0533   -0.8874 H         1 <0>         0.0839
     27 H7         -2.2767   -2.4752   -0.0246 H         1 <0>         0.0807
     28 H8         -1.1956   -2.2145   -1.4050 H         1 <0>         0.0833
     29 H9         -0.9115   -4.6650   -0.1844 H         1 <0>         0.1227
     30 H10         0.8367   -5.8878    1.0279 H         1 <0>         0.1259
     31 H11         2.5378   -4.6525    2.3137 H         1 <0>         0.1407
     32 H12         2.5925   -0.1106    0.2395 H         1 <0>         0.0936
     33 H13         2.0656    1.1213    1.4066 H         1 <0>         0.0843
     34 H14         5.3712    0.0734    4.5190 H         1 <0>         0.1363
     35 H15         4.0042    1.1703    2.7931 H         1 <0>         0.1343
     36 H16         6.0862   -2.8185    4.8360 H         1 <0>         0.3882
     37 H17         3.9530   -4.4932    3.2322 H         1 <0>         0.3868
@<TRIPOS>BOND
     1    1    2 1
     2    1   22 1
     3    1   23 1
     4    1   24 1
     5    2   11 1
     6    2    3 1
     7    3    4 1
     8    3   25 1
     9    3   26 1
    10    4    5 1
    11    4   27 1
    12    4   28 1
    13    5   10 ar
    14    5    6 ar
    15    6    7 ar
    16    6   29 1
    17    7    8 ar
    18    7   30 1
    19    8    9 ar
    20    8   31 1
    21    9   15 1
    22    9   10 ar
    23   10   11 1
    24   11   12 1
    25   11   13 1
    26   13   14 1
    27   13   32 1
    28   13   33 1
    29   14   19 ar
    30   14   15 ar
    31   15   16 ar
    32   16   17 ar
    33   16   21 1
    34   17   18 ar
    35   17   20 1
    36   18   19 ar
    37   18   34 1
    38   19   35 1
    39   20   36 1
    40   21   37 1
@<TRIPOS>MOLECULE
ZINC00537822
   50    52     0     0     0
SMALL
USER_CHARGES

@<TRIPOS>ATOM
      1 C1         -0.0169    1.3952    0.0097 C.ar      1 <0>        -0.0260
      2 C2          1.1683    2.0970    0.0022 C.ar      1 <0>        -0.1650
      3 C3          2.3789    1.4198   -0.0130 C.ar      1 <0>         0.1439
      4 C4          2.4047    0.0329   -0.0212 C.ar      1 <0>        -0.1670
      5 C5          1.2267   -0.6810   -0.0142 C.ar      1 <0>        -0.0432
      6 C6          0.0021   -0.0041    0.0020 C.ar      1 <0>        -0.1967
      7 C7         -1.2591   -0.7596    0.0105 C.2       1 <0>         0.4038
      8 O1         -2.3189   -0.1702    0.0242 O.2       1 <0>        -0.4483
      9 C8         -1.2348   -2.2664    0.0022 C.3       1 <0>        -0.1653
     10 C9         -2.6689   -2.7996    0.0135 C.3       1 <0>        -0.1429
     11 C10        -2.6443   -4.3293    0.0051 C.3       1 <0>        -0.0092
     12 N1         -4.0211   -4.8413    0.0160 N.4       1 <0>        -0.3830
     13 C11        -4.6726   -4.4620    1.2755 C.3       1 <0>        -0.0093
     14 C12        -6.1318   -4.9225    1.2582 C.3       1 <0>        -0.1330
     15 C13        -6.1791   -6.4445    1.0954 C.3       1 <0>         0.1746
     16 C14        -5.4322   -6.8346   -0.1834 C.3       1 <0>        -0.1706
     17 C15        -3.9990   -6.3033   -0.1127 C.3       1 <0>        -0.0017
     18 C16        -7.6135   -6.8966    0.9991 C.ar      1 <0>        -0.1262
     19 C17        -8.5661   -6.0599    0.4482 C.ar      1 <0>        -0.1006
     20 C18        -9.8818   -6.4740    0.3596 C.ar      1 <0>        -0.1039
     21 C19       -10.2453   -7.7262    0.8224 C.ar      1 <0>        -0.0247
     22 C20        -9.2914   -8.5631    1.3735 C.ar      1 <0>        -0.1016
     23 C21        -7.9750   -8.1501    1.4564 C.ar      1 <0>        -0.0934
     24 Cl1       -11.8977   -8.2468    0.7119 Cl        1 <0>        -0.0500
     25 O2         -5.5554   -7.0652    2.2213 O.3       1 <0>        -0.5474
     26 F1          3.5378    2.1141   -0.0204 F         1 <0>        -0.1258
     27 H1         -0.9587    1.9236    0.0260 H         1 <0>         0.1459
     28 H2          1.1551    3.1769    0.0077 H         1 <0>         0.1477
     29 H3          3.3506   -0.4883   -0.0334 H         1 <0>         0.1469
     30 H4          1.2482   -1.7608   -0.0213 H         1 <0>         0.1412
     31 H5         -0.7241   -2.6166   -0.8948 H         1 <0>         0.1127
     32 H6         -0.7064   -2.6261    0.8850 H         1 <0>         0.1127
     33 H7         -3.1796   -2.4493    0.9105 H         1 <0>         0.0952
     34 H8         -3.1973   -2.4398   -0.8693 H         1 <0>         0.0947
     35 H9         -2.1335   -4.6796   -0.8919 H         1 <0>         0.1333
     36 H10        -2.1158   -4.6891    0.8880 H         1 <0>         0.1327
     37 H11        -4.1530   -4.9339    2.1093 H         1 <0>         0.1388
     38 H12        -4.6353   -3.3788    1.3915 H         1 <0>         0.1356
     39 H13        -6.6132   -4.6415    2.1949 H         1 <0>         0.1238
     40 H14        -6.6524   -4.4509    0.4248 H         1 <0>         0.1045
     41 H15        -5.4137   -7.9204   -0.2771 H         1 <0>         0.1175
     42 H16        -5.9384   -6.4027   -1.0467 H         1 <0>         0.1009
     43 H17        -3.4644   -6.5795   -1.0215 H         1 <0>         0.1329
     44 H18        -3.4937   -6.7360    0.7507 H         1 <0>         0.1354
     45 H19        -8.2824   -5.0823    0.0874 H         1 <0>         0.1334
     46 H20       -10.6260   -5.8201   -0.0704 H         1 <0>         0.1408
     47 H21        -9.5746   -9.5405    1.7352 H         1 <0>         0.1414
     48 H22        -7.2294   -8.8051    1.8823 H         1 <0>         0.1323
     49 H23        -5.5495   -8.0314    2.1846 H         1 <0>         0.3907
     50 H24        -4.5327   -4.4442   -0.7578 H         1 <0>         0.4215
@<TRIPOS>BOND
     1    1    6 ar
     2    1    2 ar
     3    1   27 1
     4    2    3 ar
     5    2   28 1
     6    3    4 ar
     7    3   26 1
     8    4    5 ar
     9    4   29 1
    10    5    6 ar
    11    5   30 1
    12    6    7 1
    13    7    8 2
    14    7    9 1
    15    9   10 1
    16    9   31 1
    17    9   32 1
    18   10   11 1
    19   10   33 1
    20   10   34 1
    21   11   12 1
    22   11   35 1
    23   11   36 1
    24   12   17 1
    25   12   13 1
    26   12   50 1
    27   13   14 1
    28   13   37 1
    29   13   38 1
    30   14   15 1
    31   14   39 1
    32   14   40 1
    33   15   16 1
    34   15   18 1
    35   15   25 1
    36   16   17 1
    37   16   41 1
    38   16   42 1
    39   17   43 1
    40   17   44 1
    41   18   23 ar
    42   18   19 ar
    43   19   20 ar
    44   19   45 1
    45   20   21 ar
    46   20   46 1
    47   21   22 ar
    48   21   24 1
    49   22   23 ar
    50   22   47 1
    51   23   48 1
    52   25   49 1
@<TRIPOS>MOLECULE
ZINC00002041
   44    45     0     0     0
SMALL
USER_CHARGES

@<TRIPOS>ATOM
      1 C1          0.5749   -2.5904    2.3481 C.3       1 <0>        -0.1566
      2 C2          0.1093   -2.1080    0.9728 C.3       1 <0>        -0.1501
      3 C3          1.1277   -2.5311   -0.0878 C.3       1 <0>        -0.0177
      4 N1          0.6808   -2.0679   -1.4082 N.4       1 <0>        -0.3855
      5 C4          0.6775   -0.5992   -1.4367 C.3       1 <0>        -0.0163
      6 C5          0.0613   -0.1159   -2.7511 C.3       1 <0>        -0.1506
      7 C6          0.1111    1.4123   -2.8062 C.3       1 <0>        -0.1563
      8 C7          1.5945   -2.5756   -2.4404 C.3       1 <0>        -0.0122
      9 C8          1.5002   -4.1016   -2.4991 C.3       1 <0>        -0.1019
     10 C9          2.3500   -4.6141   -3.6332 C.ar      1 <0>        -0.0495
     11 C10         1.7804   -4.8562   -4.8715 C.ar      1 <0>        -0.1305
     12 C11         2.5643   -5.3259   -5.9090 C.ar      1 <0>        -0.0747
     13 C12         3.9114   -5.5553   -5.7172 C.ar      1 <0>        -0.1251
     14 C13         4.4917   -5.3145   -4.4736 C.ar      1 <0>         0.1542
     15 C14         3.6945   -4.8367   -3.4408 C.ar      1 <0>        -0.1409
     16 C15         4.6029   -4.6717   -2.2441 C.3       1 <0>        -0.1149
     17 C16         5.9621   -5.1042   -2.7514 C.2       1 <0>         0.5262
     18 O1          6.9939   -5.1304   -2.1145 O.2       1 <0>        -0.4877
     19 N2          5.8080   -5.4660   -4.0364 N.am      1 <0>        -0.6613
     20 H1          0.6625   -3.6769    2.3415 H         1 <0>         0.0674
     21 H2          1.5445   -2.1491    2.5789 H         1 <0>         0.0670
     22 H3         -0.1506   -2.2890    3.1036 H         1 <0>         0.0774
     23 H4         -0.8602   -2.5493    0.7420 H         1 <0>         0.0861
     24 H5          0.0217   -1.0215    0.9793 H         1 <0>         0.0858
     25 H6          2.0973   -2.0897    0.1430 H         1 <0>         0.1303
     26 H7          1.2154   -3.6175   -0.0943 H         1 <0>         0.1328
     27 H8          0.0907   -0.2209   -0.5996 H         1 <0>         0.1338
     28 H9          1.7008   -0.2320   -1.3584 H         1 <0>         0.1296
     29 H10         0.6234   -0.5282   -3.5891 H         1 <0>         0.0855
     30 H11        -0.9751   -0.4480   -2.8103 H         1 <0>         0.0866
     31 H12        -0.3279    1.7566   -3.7426 H         1 <0>         0.0774
     32 H13        -0.4510    1.8246   -1.9682 H         1 <0>         0.0672
     33 H14         1.1476    1.7445   -2.7470 H         1 <0>         0.0665
     34 H15         1.3180   -2.1570   -3.4081 H         1 <0>         0.1368
     35 H16         2.6160   -2.2838   -2.1967 H         1 <0>         0.1302
     36 H17         1.8555   -4.5239   -1.5591 H         1 <0>         0.0970
     37 H18         0.4631   -4.3956   -2.6605 H         1 <0>         0.0994
     38 H19         0.7264   -4.6789   -5.0266 H         1 <0>         0.1335
     39 H20         2.1197   -5.5147   -6.8750 H         1 <0>         0.1397
     40 H21         4.5170   -5.9226   -6.5325 H         1 <0>         0.1349
     41 H22         4.6282   -3.6299   -1.9247 H         1 <0>         0.1181
     42 H23         4.2779   -5.3150   -1.4264 H         1 <0>         0.1255
     43 H24         6.5312   -5.7846   -4.5989 H         1 <0>         0.4202
     44 H25        -0.2516   -2.4098   -1.5867 H         1 <0>         0.4228
@<TRIPOS>BOND
     1    1    2 1
     2    1   20 1
     3    1   21 1
     4    1   22 1
     5    2    3 1
     6    2   23 1
     7    2   24 1
     8    3    4 1
     9    3   25 1
    10    3   26 1
    11    4    5 1
    12    4    8 1
    13    4   44 1
    14    5    6 1
    15    5   27 1
    16    5   28 1
    17    6    7 1
    18    6   29 1
    19    6   30 1
    20    7   31 1
    21    7   32 1
    22    7   33 1
    23    8    9 1
    24    8   34 1
    25    8   35 1
    26    9   10 1
    27    9   36 1
    28    9   37 1
    29   10   15 ar
    30   10   11 ar
    31   11   12 ar
    32   11   38 1
    33   12   13 ar
    34   12   39 1
    35   13   14 ar
    36   13   40 1
    37   14   19 1
    38   14   15 ar
    39   15   16 1
    40   16   17 1
    41   16   41 1
    42   16   42 1
    43   17   18 2
    44   17   19 am
    45   19   43 1
@<TRIPOS>MOLECULE
ZINC00033882
   23    23     0     0     0
SMALL
USER_CHARGES

@<TRIPOS>ATOM
      1 C1         -0.0167    1.3779    0.0096 C.ar      1 <0>        -0.1006
      2 C2          1.1696    2.0886    0.0021 C.ar      1 <0>        -0.1264
      3 C3          2.3802    1.4154   -0.0130 C.ar      1 <0>         0.0999
      4 C4          2.3990    0.0236   -0.0206 C.ar      1 <0>         0.0875
      5 C5          1.2071   -0.6822   -0.0130 C.ar      1 <0>        -0.1216
      6 C6          0.0021   -0.0041    0.0020 C.ar      1 <0>        -0.1052
      7 C7         -1.2936   -0.7736    0.0102 C.3       1 <0>        -0.1010
      8 C8         -1.7458   -1.0263   -1.4294 C.3       1 <0>        -0.0078
      9 N1         -3.0088   -1.7764   -1.4215 N.4       1 <0>        -0.6379
     10 O1          3.5850   -0.6417   -0.0359 O.3       1 <0>        -0.4857
     11 O2          3.5476    2.1129   -0.0209 O.3       1 <0>        -0.4857
     12 H1         -0.9598    1.9038    0.0259 H         1 <0>         0.1332
     13 H2          1.1522    3.1684    0.0077 H         1 <0>         0.1416
     14 H3          1.2190   -1.7621   -0.0189 H         1 <0>         0.1358
     15 H4         -1.1467   -1.7271    0.5175 H         1 <0>         0.0975
     16 H5         -2.0555   -0.1967    0.5344 H         1 <0>         0.0990
     17 H6         -1.8927   -0.0728   -1.9368 H         1 <0>         0.1365
     18 H7         -0.9839   -1.6032   -1.9536 H         1 <0>         0.1360
     19 H8         -2.8729   -2.6590   -0.9518 H         1 <0>         0.4357
     20 H9         -3.7141   -1.2424   -0.9362 H         1 <0>         0.4357
     21 H10         3.9367   -0.8389    0.8430 H         1 <0>         0.3958
     22 H11         3.8938    2.3101    0.8602 H         1 <0>         0.3975
     23 H12        -3.3071   -1.9430   -2.3709 H         1 <0>         0.4400
@<TRIPOS>BOND
     1    1    6 ar
     2    1    2 ar
     3    1   12 1
     4    2    3 ar
     5    2   13 1
     6    3    4 ar
     7    3   11 1
     8    4    5 ar
     9    4   10 1
    10    5    6 ar
    11    5   14 1
    12    6    7 1
    13    7    8 1
    14    7   15 1
    15    7   16 1
    16    8    9 1
    17    8   17 1
    18    8   18 1
    19    9   19 1
    20    9   20 1
    21    9   23 1
    22   10   21 1
    23   11   22 1
@<TRIPOS>MOLECULE
ZINC02017838
   39    41     0     0     0
SMALL
USER_CHARGES

@<TRIPOS>ATOM
      1 C1         -0.6937    1.1592   -0.0446 C.3       1 <0>        -0.0565
      2 N1         -0.3969   -0.2790   -0.0054 N.4       1 <0>        -0.3850
      3 C2         -1.6538   -1.0043   -0.0501 C.3       1 <0>        -0.0076
      4 C3         -1.4199   -2.4952   -0.3132 C.3       1 <0>        -0.1241
      5 C4         -1.1505   -3.1735    1.0151 C.ar      1 <0>        -0.0918
      6 C5         -2.0820   -4.0505    1.5403 C.ar      1 <0>        -0.0811
      7 C6         -1.8332   -4.6676    2.7530 C.ar      1 <0>        -0.0563
      8 C7         -0.6533   -4.4051    3.4363 C.ar      1 <0>         0.1329
      9 C8          0.2760   -3.5241    2.9016 C.ar      1 <0>        -0.1156
     10 C9          0.0175   -2.9133    1.6891 C.ar      1 <0>        -0.0810
     11 C10         1.0293   -1.9515    1.0995 C.3       1 <0>        -0.0159
     12 H1          1.9511   -1.9857    1.6803 H         1 <0>         0.1371
     13 C11         0.4364   -0.5401    1.1546 C.3       1 <0>        -0.0043
     14 C12         1.3158   -2.3287   -0.3312 C.ar      1 <0>        -0.1097
     15 C13         1.8000   -1.3802   -1.2124 C.ar      1 <0>        -0.1733
     16 C14         2.0628   -1.7262   -2.5247 C.ar      1 <0>        -0.0962
     17 C15         1.8417   -3.0209   -2.9556 C.ar      1 <0>        -0.1047
     18 C16         1.3582   -3.9697   -2.0742 C.ar      1 <0>        -0.0974
     19 C17         1.0996   -3.6247   -0.7608 C.ar      1 <0>        -0.0998
     20 O1         -0.4084   -5.0112    4.6281 O.3       1 <0>        -0.4829
     21 Cl1        -2.9964   -5.7696    3.4209 Cl        1 <0>        -0.0327
     22 H2          0.2376    1.7205   -0.1192 H         1 <0>         0.1249
     23 H3         -1.3197    1.3775   -0.9098 H         1 <0>         0.1261
     24 H4         -1.2194    1.4467    0.8659 H         1 <0>         0.1243
     25 H5         -2.1695   -0.8858    0.9029 H         1 <0>         0.1287
     26 H6         -2.2756   -0.5939   -0.8458 H         1 <0>         0.1374
     27 H7         -2.3059   -2.9306   -0.7754 H         1 <0>         0.1178
     28 H8         -0.5608   -2.6221   -0.9718 H         1 <0>         0.1192
     29 H9         -2.9990   -4.2523    1.0065 H         1 <0>         0.1469
     30 H10         1.1951   -3.3169    3.4296 H         1 <0>         0.1482
     31 H11         1.2473    0.1878    1.1838 H         1 <0>         0.1401
     32 H12        -0.1658   -0.4399    2.0576 H         1 <0>         0.1368
     33 H13         1.9728   -0.3686   -0.8757 H         1 <0>         0.1276
     34 H14         2.4405   -0.9849   -3.2133 H         1 <0>         0.1374
     35 H15         2.0463   -3.2910   -3.9811 H         1 <0>         0.1370
     36 H16         1.1852   -4.9811   -2.4110 H         1 <0>         0.1371
     37 H17         0.7254   -4.3669   -0.0712 H         1 <0>         0.1352
     38 H18         0.0553   -5.8562    4.5517 H         1 <0>         0.4036
     39 H19         0.1305   -0.5139   -0.8329 H         1 <0>         0.4177
@<TRIPOS>BOND
     1    1    2 1
     2    1   22 1
     3    1   23 1
     4    1   24 1
     5    2   13 1
     6    2    3 1
     7    2   39 1
     8    3    4 1
     9    3   25 1
    10    3   26 1
    11    4    5 1
    12    4   27 1
    13    4   28 1
    14    5   10 ar
    15    5    6 ar
    16    6    7 ar
    17    6   29 1
    18    7    8 ar
    19    7   21 1
    20    8    9 ar
    21    8   20 1
    22    9   10 ar
    23    9   30 1
    24   10   11 1
    25   11   12 1
    26   11   13 1
    27   11   14 1
    28   13   31 1
    29   13   32 1
    30   14   19 ar
    31   14   15 ar
    32   15   16 ar
    33   15   33 1
    34   16   17 ar
    35   16   34 1
    36   17   18 ar
    37   17   35 1
    38   18   19 ar
    39   18   36 1
    40   19   37 1
    41   20   38 1
@<TRIPOS>MOLECULE
ZINC00968257
   45    47     0     0     0
SMALL
USER_CHARGES

@<TRIPOS>ATOM
      1 C1         -0.0178    1.4648    0.0101 C.3       1 <0>        -0.0532
      2 N1          0.0021   -0.0041    0.0020 N.4       1 <0>        -0.3871
      3 C2         -1.3761   -0.5125    0.0124 C.3       1 <0>        -0.0473
      4 C3          0.6897   -0.4778   -1.2066 C.3       1 <0>        -0.0075
      5 C4          2.1588   -0.0534   -1.1571 C.3       1 <0>        -0.1202
      6 C5          2.8641   -0.5394   -2.3970 C.2       1 <0>        -0.1679
      7 C6          3.5250    0.3270   -3.1738 C.2       1 <0>         0.0063
      8 C7          3.5927    1.7771   -2.8453 C.ar      1 <0>        -0.0588
      9 C8          4.0673    2.1470   -1.5880 C.ar      1 <0>        -0.1130
     10 C9          4.1752    3.4781   -1.2462 C.ar      1 <0>        -0.1230
     11 C10         3.8096    4.4415   -2.1695 C.ar      1 <0>        -0.1074
     12 C11         3.3311    4.0773   -3.4068 C.ar      1 <0>        -0.1261
     13 C12         3.1954    2.7364   -3.7740 C.ar      1 <0>        -0.0534
     14 C13         2.5869    2.5170   -5.1377 C.3       1 <0>        -0.0764
     15 C14         2.3799    1.0595   -5.4939 C.3       1 <0>        -0.0807
     16 C15         3.6776    0.3005   -5.5991 C.ar      1 <0>        -0.0737
     17 C16         4.2334   -0.1117   -4.4047 C.ar      1 <0>        -0.0690
     18 C17         5.3905   -0.8775   -4.3777 C.ar      1 <0>        -0.0956
     19 C18         6.0025   -1.1900   -5.5806 C.ar      1 <0>        -0.1191
     20 C19         5.4694   -0.7426   -6.7762 C.ar      1 <0>        -0.1081
     21 C20         4.2868    0.0121   -6.7962 C.ar      1 <0>        -0.1083
     22 H1          1.0047    1.8421    0.0024 H         1 <0>         0.1238
     23 H2         -0.5450    1.8259   -0.8730 H         1 <0>         0.1221
     24 H3         -0.5280    1.8163    0.9069 H         1 <0>         0.1250
     25 H4         -1.9033   -0.1515   -0.8706 H         1 <0>         0.1216
     26 H5         -1.3613   -1.6024    0.0065 H         1 <0>         0.1236
     27 H6         -1.8863   -0.1610    0.9092 H         1 <0>         0.1246
     28 H7          0.6270   -1.5648   -1.2578 H         1 <0>         0.1321
     29 H8          0.2158   -0.0447   -2.0875 H         1 <0>         0.1294
     30 H9          2.2214    1.0336   -1.1059 H         1 <0>         0.0996
     31 H10         2.6326   -0.4865   -0.2761 H         1 <0>         0.0954
     32 H11         2.8363   -1.5868   -2.6585 H         1 <0>         0.1308
     33 H12         4.3519    1.3857   -0.8767 H         1 <0>         0.1233
     34 H13         4.5405    3.7651   -0.2712 H         1 <0>         0.1290
     35 H14         3.9003    5.4876   -1.9168 H         1 <0>         0.1264
     36 H15         3.0534    4.8470   -4.1116 H         1 <0>         0.1247
     37 H16         1.6223    3.0233   -5.1729 H         1 <0>         0.0854
     38 H17         3.2393    2.9678   -5.8855 H         1 <0>         0.0834
     39 H18         1.7604    0.5939   -4.7274 H         1 <0>         0.0703
     40 H19         1.8587    1.0007   -6.4494 H         1 <0>         0.0792
     41 H20         5.8038   -1.2219   -3.4413 H         1 <0>         0.1267
     42 H21         6.9025   -1.7870   -5.5850 H         1 <0>         0.1278
     43 H22         5.9677   -0.9772   -7.7052 H         1 <0>         0.1274
     44 H23         3.8663    0.3630   -7.7270 H         1 <0>         0.1314
     45 H24         0.4901   -0.3383    0.8195 H         1 <0>         0.4266
@<TRIPOS>BOND
     1    1    2 1
     2    1   22 1
     3    1   23 1
     4    1   24 1
     5    2    3 1
     6    2    4 1
     7    2   45 1
     8    3   25 1
     9    3   26 1
    10    3   27 1
    11    4    5 1
    12    4   28 1
    13    4   29 1
    14    5    6 1
    15    5   30 1
    16    5   31 1
    17    6    7 2
    18    6   32 1
    19    7   17 1
    20    7    8 1
    21    8   13 ar
    22    8    9 ar
    23    9   10 ar
    24    9   33 1
    25   10   11 ar
    26   10   34 1
    27   11   12 ar
    28   11   35 1
    29   12   13 ar
    30   12   36 1
    31   13   14 1
    32   14   15 1
    33   14   37 1
    34   14   38 1
    35   15   16 1
    36   15   39 1
    37   15   40 1
    38   16   21 ar
    39   16   17 ar
    40   17   18 ar
    41   18   19 ar
    42   18   41 1
    43   19   20 ar
    44   19   42 1
    45   20   21 ar
    46   20   43 1
    47   21   44 1
@<TRIPOS>MOLECULE
ZINC00044027
   41    43     0     0     0
SMALL
USER_CHARGES

@<TRIPOS>ATOM
      1 C1         -4.8538   -4.0638    0.9108 C.3       1 <0>        -0.0548
      2 N1         -4.6244   -2.8061    1.6344 N.4       1 <0>        -0.3863
      3 C2         -4.0000   -3.0949    2.9324 C.3       1 <0>        -0.0478
      4 C3         -3.7364   -1.9420    0.8453 C.3       1 <0>        -0.0093
      5 C4         -4.4383   -1.5396   -0.4533 C.3       1 <0>        -0.1865
      6 C5         -3.5134   -0.6397   -1.2752 C.3       1 <0>         0.1190
      7 N2         -4.1855   -0.2544   -2.5186 N.pl3     1 <0>        -0.5621
      8 C6         -4.9466    0.9115   -2.5039 C.ar      1 <0>         0.1833
      9 C7         -5.4466    1.3707   -1.2896 C.ar      1 <0>        -0.1632
     10 C8         -6.2007    2.5274   -1.2376 C.ar      1 <0>        -0.0789
     11 C9         -6.4648    3.2382   -2.3930 C.ar      1 <0>        -0.1269
     12 C10        -5.9746    2.7903   -3.6059 C.ar      1 <0>        -0.0533
     13 C11        -5.2180    1.6285   -3.6658 C.ar      1 <0>        -0.1513
     14 S1         -4.6102    1.0681   -5.2211 S.3       1 <0>         0.0418
     15 C12        -4.1728   -0.6126   -4.9268 C.ar      1 <0>        -0.1476
     16 C13        -4.0101   -1.0788   -3.6268 C.ar      1 <0>         0.2001
     17 C14        -3.6645   -2.4105   -3.4235 C.ar      1 <0>        -0.1605
     18 C15        -3.4778   -3.2563   -4.5018 C.ar      1 <0>         0.0017
     19 C16        -3.6338   -2.7836   -5.7916 C.ar      1 <0>        -0.1199
     20 C17        -3.9865   -1.4684   -6.0025 C.ar      1 <0>        -0.0415
     21 Cl1        -3.0468   -4.9167   -4.2348 Cl        1 <0>        -0.0547
     22 H1         -5.5127   -4.7049    1.4964 H         1 <0>         0.1270
     23 H2         -5.3171   -3.8495   -0.0523 H         1 <0>         0.1230
     24 H3         -3.9018   -4.5701    0.7514 H         1 <0>         0.1245
     25 H4         -3.0479   -3.6012    2.7730 H         1 <0>         0.1232
     26 H5         -3.8297   -2.1617    3.4693 H         1 <0>         0.1245
     27 H6         -4.6589   -3.7360    3.5180 H         1 <0>         0.1260
     28 H7         -3.4947   -1.0479    1.4199 H         1 <0>         0.1356
     29 H8         -2.8190   -2.4818    0.6102 H         1 <0>         0.1342
     30 H9         -4.6799   -2.4338   -1.0279 H         1 <0>         0.0966
     31 H10        -5.3556   -0.9999   -0.2183 H         1 <0>         0.0979
     32 H11        -3.2718    0.2545   -0.7007 H         1 <0>         0.0984
     33 H12        -2.5960   -1.1794   -1.5103 H         1 <0>         0.0962
     34 H13        -5.2447    0.8199   -0.3828 H         1 <0>         0.1245
     35 H14        -6.5853    2.8770   -0.2909 H         1 <0>         0.1332
     36 H15        -7.0538    4.1423   -2.3487 H         1 <0>         0.1374
     37 H16        -6.1810    3.3459   -4.5088 H         1 <0>         0.1390
     38 H17        -3.5416   -2.7862   -2.4184 H         1 <0>         0.1339
     39 H18        -3.4863   -3.4459   -6.6318 H         1 <0>         0.1476
     40 H19        -4.1082   -1.1006   -7.0106 H         1 <0>         0.1483
     41 H20        -5.5056   -2.3374    1.7820 H         1 <0>         0.4275
@<TRIPOS>BOND
     1    1    2 1
     2    1   22 1
     3    1   23 1
     4    1   24 1
     5    2    3 1
     6    2    4 1
     7    2   41 1
     8    3   25 1
     9    3   26 1
    10    3   27 1
    11    4    5 1
    12    4   28 1
    13    4   29 1
    14    5    6 1
    15    5   30 1
    16    5   31 1
    17    6    7 1
    18    6   32 1
    19    6   33 1
    20    7   16 1
    21    7    8 1
    22    8   13 ar
    23    8    9 ar
    24    9   10 ar
    25    9   34 1
    26   10   11 ar
    27   10   35 1
    28   11   12 ar
    29   11   36 1
    30   12   13 ar
    31   12   37 1
    32   13   14 1
    33   14   15 1
    34   15   20 ar
    35   15   16 ar
    36   16   17 ar
    37   17   18 ar
    38   17   38 1
    39   18   19 ar
    40   18   21 1
    41   19   20 ar
    42   19   39 1
    43   20   40 1
@<TRIPOS>MOLECULE
ZINC19203912
   57    60     0     0     0
SMALL
USER_CHARGES

@<TRIPOS>ATOM
      1 C1          3.4437   -4.9771    0.0368 C.ar      1 <0>        -0.0771
      2 C2          4.3861   -4.5771    0.9651 C.ar      1 <0>        -0.1269
      3 C3          4.2792   -3.3364    1.5664 C.ar      1 <0>        -0.0516
      4 C4          3.2267   -2.4926    1.2411 C.ar      1 <0>        -0.1551
      5 C5          2.2729   -2.8934    0.3097 C.ar      1 <0>         0.1852
      6 C6          2.3926   -4.1422   -0.2915 C.ar      1 <0>        -0.1628
      7 N1          1.1945   -2.0826   -0.0347 N.pl3     1 <0>        -0.5629
      8 C7          1.1709   -0.6955    0.0853 C.ar      1 <0>         0.1857
      9 C8          0.3025    0.0332   -0.7210 C.ar      1 <0>        -0.1188
     10 C9          0.2496    1.4106   -0.6236 C.ar      1 <0>        -0.1465
     11 C10         1.0603    2.0760    0.2765 C.ar      1 <0>        -0.0780
     12 C11         1.9293    1.3621    1.0812 C.ar      1 <0>        -0.0563
     13 C12         1.9888   -0.0211    0.9875 C.ar      1 <0>        -0.1199
     14 S1          3.1095   -0.9136    2.0128 S.3       1 <0>         0.0509
     15 C13        -0.6948    2.1899   -1.5021 C.3       1 <0>         0.5116
     16 F1         -1.9265    2.3299   -0.8537 F         1 <0>        -0.1708
     17 F2         -0.1562    3.4554   -1.7584 F         1 <0>        -0.1684
     18 F3         -0.8783    1.5079   -2.7097 F         1 <0>        -0.1835
     19 C14        -0.0045   -2.7378   -0.5632 C.3       1 <0>         0.1189
     20 C15         0.1003   -2.8415   -2.0861 C.3       1 <0>        -0.1867
     21 C16        -1.1519   -3.5258   -2.6381 C.3       1 <0>        -0.0069
     22 N2         -1.0512   -3.6254   -4.1003 N.4       1 <0>        -0.3853
     23 C17        -1.0537   -2.2775   -4.6839 C.3       1 <0>        -0.0077
     24 C18        -0.9298   -2.3801   -6.2057 C.3       1 <0>         0.0276
     25 N3         -2.0555   -3.1635   -6.7342 N.3       1 <0>        -0.5292
     26 C19        -2.0806   -4.5075   -6.1400 C.3       1 <0>         0.0210
     27 C20        -2.1949   -4.3874   -4.6187 C.3       1 <0>        -0.0006
     28 C21        -2.0033   -3.2371   -8.2004 C.3       1 <0>         0.0537
     29 C22        -3.3078   -3.8378   -8.7277 C.3       1 <0>         0.0765
     30 O1         -4.3924   -2.9556   -8.4318 O.3       1 <0>        -0.5623
     31 H1          3.5314   -5.9436   -0.4370 H         1 <0>         0.1336
     32 H2          5.2052   -5.2329    1.2209 H         1 <0>         0.1378
     33 H3          5.0162   -3.0236    2.2912 H         1 <0>         0.1394
     34 H4          1.6604   -4.4608   -1.0187 H         1 <0>         0.1253
     35 H5         -0.3339   -0.4802   -1.4266 H         1 <0>         0.1363
     36 H6          1.0153    3.1525    0.3512 H         1 <0>         0.1503
     37 H7          2.5627    1.8822    1.7845 H         1 <0>         0.1518
     38 H8         -0.0908   -3.7369   -0.1361 H         1 <0>         0.1000
     39 H9         -0.8850   -2.1522   -0.2987 H         1 <0>         0.0969
     40 H10         0.1866   -1.8424   -2.5133 H         1 <0>         0.0961
     41 H11         0.9808   -3.4271   -2.3506 H         1 <0>         0.0983
     42 H12        -1.2382   -4.5248   -2.2109 H         1 <0>         0.1366
     43 H13        -2.0324   -2.9402   -2.3736 H         1 <0>         0.1359
     44 H14        -1.9853   -1.7726   -4.4284 H         1 <0>         0.1410
     45 H15        -0.2120   -1.7088   -4.2884 H         1 <0>         0.1346
     46 H16        -0.9466   -1.3806   -6.6402 H         1 <0>         0.1248
     47 H17         0.0081   -2.8727   -6.4619 H         1 <0>         0.0594
     48 H18        -2.9369   -5.0601   -6.5265 H         1 <0>         0.1240
     49 H19        -1.1616   -5.0352   -6.3950 H         1 <0>         0.0595
     50 H20        -2.1994   -5.3829   -4.1749 H         1 <0>         0.1362
     51 H21        -3.1207   -3.8717   -4.3635 H         1 <0>         0.1397
     52 H22        -1.8729   -2.2354   -8.6100 H         1 <0>         0.0976
     53 H23        -1.1655   -3.8653   -8.5031 H         1 <0>         0.0611
     54 H24        -3.2348   -3.9748   -9.8066 H         1 <0>         0.0597
     55 H25        -3.4830   -4.8019   -8.2501 H         1 <0>         0.0455
     56 H26        -5.2528   -3.2736   -8.7380 H         1 <0>         0.3848
     57 H27        -0.1938   -4.0966   -4.3468 H         1 <0>         0.4201
@<TRIPOS>BOND
     1    1    6 ar
     2    1    2 ar
     3    1   31 1
     4    2    3 ar
     5    2   32 1
     6    3    4 ar
     7    3   33 1
     8    4   14 1
     9    4    5 ar
    10    5    6 ar
    11    5    7 1
    12    6   34 1
    13    7    8 1
    14    7   19 1
    15    8   13 ar
    16    8    9 ar
    17    9   10 ar
    18    9   35 1
    19   10   11 ar
    20   10   15 1
    21   11   12 ar
    22   11   36 1
    23   12   13 ar
    24   12   37 1
    25   13   14 1
    26   15   16 1
    27   15   17 1
    28   15   18 1
    29   19   20 1
    30   19   38 1
    31   19   39 1
    32   20   21 1
    33   20   40 1
    34   20   41 1
    35   21   22 1
    36   21   42 1
    37   21   43 1
    38   22   27 1
    39   22   23 1
    40   22   57 1
    41   23   24 1
    42   23   44 1
    43   23   45 1
    44   24   25 1
    45   24   46 1
    46   24   47 1
    47   25   26 1
    48   25   28 1
    49   26   27 1
    50   26   48 1
    51   26   49 1
    52   27   50 1
    53   27   51 1
    54   28   29 1
    55   28   52 1
    56   28   53 1
    57   29   30 1
    58   29   54 1
    59   29   55 1
    60   30   56 1
@<TRIPOS>MOLECULE
ZINC19203912
   56    59     0     0     0
SMALL
USER_CHARGES

@<TRIPOS>ATOM
      1 C1          3.4437   -4.9771    0.0368 C.ar      1 <0>        -0.0761
      2 C2          4.3861   -4.5771    0.9651 C.ar      1 <0>        -0.1361
      3 C3          4.2791   -3.3364    1.5665 C.ar      1 <0>        -0.0570
      4 C4          3.2267   -2.4926    1.2411 C.ar      1 <0>        -0.1593
      5 C5          2.2729   -2.8934    0.3097 C.ar      1 <0>         0.1939
      6 C6          2.3926   -4.1423   -0.2915 C.ar      1 <0>        -0.1569
      7 N1          1.1945   -2.0826   -0.0347 N.pl3     1 <0>        -0.5619
      8 C7          1.1709   -0.6955    0.0853 C.ar      1 <0>         0.1955
      9 C8          0.3025    0.0332   -0.7210 C.ar      1 <0>        -0.1146
     10 C9          0.2496    1.4106   -0.6236 C.ar      1 <0>        -0.1450
     11 C10         1.0603    2.0760    0.2765 C.ar      1 <0>        -0.0881
     12 C11         1.9293    1.3621    1.0812 C.ar      1 <0>        -0.0606
     13 C12         1.9888   -0.0211    0.9875 C.ar      1 <0>        -0.1248
     14 S1          3.1095   -0.9136    2.0128 S.3       1 <0>         0.0333
     15 C13        -0.6948    2.1899   -1.5021 C.3       1 <0>         0.5100
     16 F1         -1.9265    2.3299   -0.8538 F         1 <0>        -0.1736
     17 F2         -0.1562    3.4554   -1.7585 F         1 <0>        -0.1731
     18 F3         -0.8783    1.5079   -2.7098 F         1 <0>        -0.1757
     19 C14        -0.0045   -2.7378   -0.5632 C.3       1 <0>         0.1110
     20 C15         0.1003   -2.8415   -2.0861 C.3       1 <0>        -0.1461
     21 C16        -1.1519   -3.5258   -2.6381 C.3       1 <0>         0.0578
     22 N2         -1.0512   -3.6254   -4.1003 N.3       1 <0>        -0.5385
     23 C17        -1.0812   -2.2942   -4.7221 C.3       1 <0>         0.0549
     24 C18        -0.8944   -2.4363   -6.2345 C.3       1 <0>         0.0578
     25 N3         -1.9576   -3.2926   -6.7785 N.3       1 <0>        -0.5305
     26 C19        -1.9276   -4.6238   -6.1566 C.3       1 <0>         0.0544
     27 C20        -2.1144   -4.4817   -4.6442 C.3       1 <0>         0.0587
     28 C21        -1.8569   -3.3922   -8.2407 C.3       1 <0>         0.0540
     29 C22        -3.1092   -4.0765   -8.7927 C.3       1 <0>         0.0795
     30 O1         -4.2499   -3.2515   -8.5476 O.3       1 <0>        -0.5595
     31 H1          3.5314   -5.9437   -0.4370 H         1 <0>         0.1321
     32 H2          5.2051   -5.2329    1.2210 H         1 <0>         0.1329
     33 H3          5.0162   -3.0236    2.2912 H         1 <0>         0.1343
     34 H4          1.6604   -4.4608   -1.0187 H         1 <0>         0.1361
     35 H5         -0.3339   -0.4802   -1.4266 H         1 <0>         0.1444
     36 H6          1.0154    3.1525    0.3511 H         1 <0>         0.1457
     37 H7          2.5627    1.8822    1.7845 H         1 <0>         0.1470
     38 H8         -0.0908   -3.7369   -0.1361 H         1 <0>         0.0906
     39 H9         -0.8850   -2.1522   -0.2987 H         1 <0>         0.0854
     40 H10         0.1866   -1.8424   -2.5133 H         1 <0>         0.0726
     41 H11         0.9808   -3.4271   -2.3506 H         1 <0>         0.0833
     42 H12        -1.2382   -4.5248   -2.2109 H         1 <0>         0.0786
     43 H13        -2.0324   -2.9402   -2.3736 H         1 <0>         0.0388
     44 H14        -2.0403   -1.8186   -4.5173 H         1 <0>         0.0453
     45 H15        -0.2770   -1.6831   -4.3122 H         1 <0>         0.0803
     46 H16        -0.9452   -1.4526   -6.7012 H         1 <0>         0.0803
     47 H17         0.0765   -2.8870   -6.4403 H         1 <0>         0.0414
     48 H18        -2.7318   -5.2348   -6.5666 H         1 <0>         0.0801
     49 H19        -0.9685   -5.0993   -6.3615 H         1 <0>         0.0413
     50 H20        -2.0636   -5.4654   -4.1775 H         1 <0>         0.0795
     51 H21        -3.0853   -4.0310   -4.4385 H         1 <0>         0.0447
     52 H22        -1.7706   -2.3931   -8.6678 H         1 <0>         0.0833
     53 H23        -0.9764   -3.9778   -8.5052 H         1 <0>         0.0490
     54 H24        -2.9959   -4.2305   -9.8658 H         1 <0>         0.0487
     55 H25        -3.2443   -5.0392   -8.2997 H         1 <0>         0.0452
     56 H26        -5.0815   -3.6238   -8.8718 H         1 <0>         0.3752
@<TRIPOS>BOND
     1    1    6 ar
     2    1    2 ar
     3    1   31 1
     4    2    3 ar
     5    2   32 1
     6    3    4 ar
     7    3   33 1
     8    4   14 1
     9    4    5 ar
    10    5    6 ar
    11    5    7 1
    12    6   34 1
    13    7    8 1
    14    7   19 1
    15    8   13 ar
    16    8    9 ar
    17    9   10 ar
    18    9   35 1
    19   10   11 ar
    20   10   15 1
    21   11   12 ar
    22   11   36 1
    23   12   13 ar
    24   12   37 1
    25   13   14 1
    26   15   16 1
    27   15   17 1
    28   15   18 1
    29   19   20 1
    30   19   38 1
    31   19   39 1
    32   20   21 1
    33   20   40 1
    34   20   41 1
    35   21   22 1
    36   21   42 1
    37   21   43 1
    38   22   27 1
    39   22   23 1
    40   23   24 1
    41   23   44 1
    42   23   45 1
    43   24   25 1
    44   24   46 1
    45   24   47 1
    46   25   26 1
    47   25   28 1
    48   26   27 1
    49   26   48 1
    50   26   49 1
    51   27   50 1
    52   27   51 1
    53   28   29 1
    54   28   52 1
    55   28   53 1
    56   29   30 1
    57   29   54 1
    58   29   55 1
    59   30   56 1
@<TRIPOS>MOLECULE
ZINC02021474
   43    44     0     0     0
SMALL
USER_CHARGES

@<TRIPOS>ATOM
      1 C1         -0.0187    1.5258    0.0104 C.3       1 <0>        -0.1892
      2 C2          0.0021   -0.0041    0.0020 C.3       1 <0>        -0.0145
      3 N1          0.7126   -0.4907    1.1921 N.4       1 <0>        -0.3976
      4 C3          2.1365   -0.1002    1.1159 C.3       1 <0>        -0.0114
      5 C4          2.9070   -1.2902    1.7402 C.3       1 <0>        -0.1438
      6 C5          2.0778   -2.5001    1.2349 C.3       1 <0>        -0.1317
      7 C6          0.6317   -1.9617    1.2514 C.3       1 <0>         0.0115
      8 H1          0.0860   -2.3382    0.3862 H         1 <0>         0.1497
      9 C7         -0.0695   -2.3929    2.5410 C.3       1 <0>         0.0980
     10 N2         -1.3767   -1.7374    2.6288 N.am      1 <0>        -0.7467
     11 C8         -2.1772   -1.9694    3.6879 C.2       1 <0>         0.5936
     12 O1         -1.8144   -2.7231    4.5708 O.2       1 <0>        -0.4876
     13 C9         -3.4911   -1.3105    3.7761 C.ar      1 <0>        -0.1701
     14 C10        -4.6286   -1.9287    3.2366 C.ar      1 <0>         0.1759
     15 C11        -5.8605   -1.3001    3.3248 C.ar      1 <0>        -0.0600
     16 C12        -5.9705   -0.0668    3.9421 C.ar      1 <0>        -0.0503
     17 C13        -4.8549    0.5515    4.4769 C.ar      1 <0>        -0.0574
     18 C14        -3.6145   -0.0635    4.4051 C.ar      1 <0>         0.1571
     19 O2         -2.5224    0.5424    4.9360 O.3       1 <0>        -0.3129
     20 C15        -1.7829    1.4141    4.0785 C.3       1 <0>         0.0344
     21 Cl1        -5.0096    2.0996    5.2472 Cl        1 <0>        -0.0185
     22 Cl2        -7.2704   -2.0625    2.6580 Cl        1 <0>        -0.0154
     23 O3         -4.5231   -3.1380    2.6298 O.3       1 <0>        -0.4785
     24 H2          1.0039    1.9031    0.0027 H         1 <0>         0.0839
     25 H3         -0.5459    1.8868   -0.8726 H         1 <0>         0.1098
     26 H4         -0.5289    1.8773    0.9072 H         1 <0>         0.0777
     27 H5         -1.0205   -0.3814    0.0098 H         1 <0>         0.1251
     28 H6          0.5123   -0.3556   -0.8948 H         1 <0>         0.1366
     29 H7          2.4357    0.0428    0.0775 H         1 <0>         0.1369
     30 H8          2.3119    0.8091    1.6909 H         1 <0>         0.1356
     31 H9          3.9294   -1.3334    1.3648 H         1 <0>         0.1222
     32 H10         2.8944   -1.2355    2.8287 H         1 <0>         0.1006
     33 H11         2.3751   -2.7753    0.2229 H         1 <0>         0.1086
     34 H12         2.1812   -3.3479    1.9121 H         1 <0>         0.1194
     35 H13        -0.2050   -3.4745    2.5367 H         1 <0>         0.1198
     36 H14         0.5389   -2.1064    3.3987 H         1 <0>         0.1001
     37 H15        -1.6661   -1.1363    1.9246 H         1 <0>         0.3954
     38 H16        -6.9341    0.4167    4.0064 H         1 <0>         0.1649
     39 H17        -1.4176    0.8534    3.2181 H         1 <0>         0.0258
     40 H18        -2.4295    2.2225    3.7373 H         1 <0>         0.0641
     41 H19        -0.9377    1.8312    4.6259 H         1 <0>         0.1094
     42 H20        -4.6414   -3.8893    3.2270 H         1 <0>         0.4109
     43 H21         0.2977   -0.0941    2.0220 H         1 <0>         0.4182
@<TRIPOS>BOND
     1    1    2 1
     2    1   24 1
     3    1   25 1
     4    1   26 1
     5    2    3 1
     6    2   27 1
     7    2   28 1
     8    3    7 1
     9    3    4 1
    10    3   43 1
    11    4    5 1
    12    4   29 1
    13    4   30 1
    14    5    6 1
    15    5   31 1
    16    5   32 1
    17    6    7 1
    18    6   33 1
    19    6   34 1
    20    7    8 1
    21    7    9 1
    22    9   10 1
    23    9   35 1
    24    9   36 1
    25   10   11 am
    26   10   37 1
    27   11   12 2
    28   11   13 1
    29   13   18 ar
    30   13   14 ar
    31   14   15 ar
    32   14   23 1
    33   15   16 ar
    34   15   22 1
    35   16   17 ar
    36   16   38 1
    37   17   18 ar
    38   17   21 1
    39   18   19 1
    40   19   20 1
    41   20   39 1
    42   20   40 1
    43   20   41 1
    44   23   42 1
@<TRIPOS>MOLECULE
ZINC00001137
   40    42     0     0     0
SMALL
USER_CHARGES

@<TRIPOS>ATOM
      1 C1         -0.6748    1.1418   -0.7339 C.3       1 <0>        -0.0546
      2 N1         -0.3316   -0.2500   -0.4129 N.4       1 <0>        -0.3867
      3 C2         -1.5537   -1.0650   -0.3990 C.3       1 <0>        -0.0471
      4 C3          0.5939   -0.7725   -1.4270 C.3       1 <0>        -0.0083
      5 C4          1.9147   -0.0034   -1.3566 C.3       1 <0>        -0.1286
      6 C5          2.8641   -0.5394   -2.3970 C.2       1 <0>        -0.1644
      7 C6          3.4662    0.3009   -3.2521 C.2       1 <0>        -0.0110
      8 C7          4.0375   -0.2409   -4.4991 C.ar      1 <0>        -0.0560
      9 C8          4.3686   -1.5979   -4.5583 C.ar      1 <0>        -0.0950
     10 C9          4.9050   -2.1310   -5.7101 C.ar      1 <0>        -0.1079
     11 C10         5.1196   -1.3249   -6.8157 C.ar      1 <0>        -0.0902
     12 C11         4.7973    0.0148   -6.7712 C.ar      1 <0>        -0.0869
     13 C12         4.2518    0.5698   -5.6149 C.ar      1 <0>        -0.1057
     14 S1          3.8473    2.2804   -5.5967 S.3       1 <0>         0.0693
     15 C13         3.7053    2.7093   -3.8978 C.ar      1 <0>        -0.0928
     16 C14         3.5286    1.7354   -2.9154 C.ar      1 <0>        -0.0481
     17 C15         3.4127    2.1219   -1.5773 C.ar      1 <0>        -0.1036
     18 C16         3.4679    3.4565   -1.2333 C.ar      1 <0>        -0.0395
     19 C17         3.6389    4.4208   -2.2134 C.ar      1 <0>        -0.0802
     20 C18         3.7644    4.0522   -3.5311 C.ar      1 <0>        -0.0766
     21 Cl1         3.3224    3.9289    0.4308 Cl        1 <0>        -0.0537
     22 H1          0.2320    1.7465   -0.7442 H         1 <0>         0.1222
     23 H2         -1.1495    1.1821   -1.7142 H         1 <0>         0.1237
     24 H3         -1.3615    1.5295    0.0186 H         1 <0>         0.1270
     25 H4         -2.0284   -1.0247   -1.3794 H         1 <0>         0.1223
     26 H5         -1.2990   -2.0977   -0.1609 H         1 <0>         0.1241
     27 H6         -2.2404   -0.6773    0.3534 H         1 <0>         0.1255
     28 H7          0.7790   -1.8302   -1.2395 H         1 <0>         0.1340
     29 H8          0.1547   -0.6504   -2.4171 H         1 <0>         0.1323
     30 H9          1.7296    1.0543   -1.5441 H         1 <0>         0.1045
     31 H10         2.3539   -0.1254   -0.3665 H         1 <0>         0.0992
     32 H11         3.0599   -1.5999   -2.4541 H         1 <0>         0.1393
     33 H12         4.2037   -2.2302   -3.6984 H         1 <0>         0.1311
     34 H13         5.1590   -3.1799   -5.7507 H         1 <0>         0.1356
     35 H14         5.5413   -1.7472   -7.7158 H         1 <0>         0.1388
     36 H15         4.9682    0.6374   -7.6370 H         1 <0>         0.1381
     37 H16         3.2791    1.3734   -0.8103 H         1 <0>         0.1465
     38 H17         3.6816    5.4647   -1.9397 H         1 <0>         0.1486
     39 H18         3.8971    4.8104   -4.2888 H         1 <0>         0.1481
     40 H19         0.1079   -0.2873    0.4946 H         1 <0>         0.4269
@<TRIPOS>BOND
     1    1    2 1
     2    1   22 1
     3    1   23 1
     4    1   24 1
     5    2    3 1
     6    2    4 1
     7    2   40 1
     8    3   25 1
     9    3   26 1
    10    3   27 1
    11    4    5 1
    12    4   28 1
    13    4   29 1
    14    5    6 1
    15    5   30 1
    16    5   31 1
    17    6    7 2
    18    6   32 1
    19    7   16 1
    20    7    8 1
    21    8   13 ar
    22    8    9 ar
    23    9   10 ar
    24    9   33 1
    25   10   11 ar
    26   10   34 1
    27   11   12 ar
    28   11   35 1
    29   12   13 ar
    30   12   36 1
    31   13   14 1
    32   14   15 1
    33   15   20 ar
    34   15   16 ar
    35   16   17 ar
    36   17   18 ar
    37   17   37 1
    38   18   19 ar
    39   18   21 1
    40   19   20 ar
    41   19   38 1
    42   20   39 1
