@<TRIPOS>MOLECULE
ZINC00020245
   46    48     0     0     0
SMALL
USER_CHARGES

@<TRIPOS>ATOM
      1 C1         -5.6836    1.3838    0.0162 C.3       1 <0>        -0.0473
      2 N1         -5.6620   -0.0833   -0.0564 N.4       1 <0>        -0.3868
      3 C2         -6.3713   -0.5242   -1.2649 C.3       1 <0>        -0.0522
      4 C3         -4.2702   -0.5505   -0.1076 C.3       1 <0>        -0.0086
      5 C4         -4.2434   -2.0795   -0.0575 C.3       1 <0>        -0.1781
      6 C5         -2.7938   -2.5661   -0.1108 C.3       1 <0>         0.1490
      7 N2         -2.7704   -4.0309   -0.1190 N.pl3     1 <0>        -0.6108
      8 C6         -2.7295   -4.7451   -1.3212 C.ar      1 <0>         0.1758
      9 C7         -1.6865   -4.4783   -2.2022 C.ar      1 <0>        -0.1411
     10 C8         -1.5734   -5.1772   -3.3856 C.ar      1 <0>        -0.1022
     11 C9         -2.5089   -6.1508   -3.6854 C.ar      1 <0>        -0.1266
     12 C10        -3.5489   -6.4041   -2.8209 C.ar      1 <0>        -0.1101
     13 C11        -3.6933   -5.6947   -1.6266 C.ar      1 <0>        -0.0998
     14 C12        -4.9357   -6.0340   -0.8354 C.3       1 <0>        -0.0687
     15 C13        -5.1005   -5.1892    0.4158 C.3       1 <0>        -0.0773
     16 C14        -3.9592   -5.4030    1.3779 C.ar      1 <0>        -0.0996
     17 C15        -2.7824   -4.7590    1.0748 C.ar      1 <0>         0.1523
     18 C16        -1.6837   -4.8488    1.9126 C.ar      1 <0>        -0.1184
     19 C17        -1.7825   -5.6251    3.0560 C.ar      1 <0>        -0.1094
     20 C18        -2.9565   -6.2950    3.3488 C.ar      1 <0>        -0.1165
     21 C19        -4.0679   -6.1865    2.5030 C.ar      1 <0>        -0.1028
     22 H1         -6.7163    1.7305    0.0542 H         1 <0>         0.1245
     23 H2         -5.1573    1.7109    0.9129 H         1 <0>         0.1235
     24 H3         -5.1933    1.7984   -0.8646 H         1 <0>         0.1221
     25 H4         -6.3552   -1.6128   -1.3188 H         1 <0>         0.1231
     26 H5         -7.4040   -0.1775   -1.2269 H         1 <0>         0.1246
     27 H6         -5.8810   -0.1096   -2.1457 H         1 <0>         0.1227
     28 H7         -3.8061   -0.2091   -1.0329 H         1 <0>         0.1308
     29 H8         -3.7207   -0.1494    0.7440 H         1 <0>         0.1320
     30 H9         -4.7075   -2.4209    0.8678 H         1 <0>         0.0908
     31 H10        -4.7929   -2.4806   -0.9091 H         1 <0>         0.0915
     32 H11        -2.3174   -2.1901   -1.0161 H         1 <0>         0.0824
     33 H12        -2.2550   -2.1990    0.7627 H         1 <0>         0.0801
     34 H13        -0.9599   -3.7176   -1.9576 H         1 <0>         0.1215
     35 H14        -0.7646   -4.9667   -4.0697 H         1 <0>         0.1276
     36 H15        -2.4229   -6.7145   -4.6025 H         1 <0>         0.1250
     37 H16        -4.2693   -7.1687   -3.0712 H         1 <0>         0.1222
     38 H17        -5.8074   -5.8880   -1.4734 H         1 <0>         0.0793
     39 H18        -4.8898   -7.0837   -0.5452 H         1 <0>         0.0765
     40 H19        -5.1365   -4.1371    0.1334 H         1 <0>         0.0724
     41 H20        -6.0358   -5.4578    0.9068 H         1 <0>         0.0709
     42 H21        -0.7686   -4.3248    1.6795 H         1 <0>         0.1257
     43 H22        -0.9372   -5.7074    3.7231 H         1 <0>         0.1275
     44 H23        -3.0178   -6.9071    4.2365 H         1 <0>         0.1269
     45 H24        -4.9880   -6.7067    2.7249 H         1 <0>         0.1290
     46 H25        -6.1159   -0.4671    0.7589 H         1 <0>         0.4268
@<TRIPOS>BOND
     1    1    2 1
     2    1   22 1
     3    1   23 1
     4    1   24 1
     5    2    3 1
     6    2    4 1
     7    2   46 1
     8    3   25 1
     9    3   26 1
    10    3   27 1
    11    4    5 1
    12    4   28 1
    13    4   29 1
    14    5    6 1
    15    5   30 1
    16    5   31 1
    17    6    7 1
    18    6   32 1
    19    6   33 1
    20    7   17 1
    21    7    8 1
    22    8   13 ar
    23    8    9 ar
    24    9   10 ar
    25    9   34 1
    26   10   11 ar
    27   10   35 1
    28   11   12 ar
    29   11   36 1
    30   12   13 ar
    31   12   37 1
    32   13   14 1
    33   14   15 1
    34   14   38 1
    35   14   39 1
    36   15   16 1
    37   15   40 1
    38   15   41 1
    39   16   21 ar
    40   16   17 ar
    41   17   18 ar
    42   18   19 ar
    43   18   42 1
    44   19   20 ar
    45   19   43 1
    46   20   21 ar
    47   20   44 1
    48   21   45 1
@<TRIPOS>MOLECULE
ZINC05832987
   45    46     0     0     0
SMALL
USER_CHARGES
6-dipropylaminotetralin-1,2-diol
@<TRIPOS>ATOM
      1 C1          4.0838    6.1486    0.2579 C.3       1 <0>        -0.1561
      2 C2          2.6904    5.5655    0.0144 C.3       1 <0>        -0.1487
      3 C3          2.7901    4.0445   -0.1183 C.3       1 <0>        -0.0174
      4 C4          0.8291    3.7966   -1.5167 C.3       1 <0>        -0.0132
      5 C5          1.5485    3.0281   -2.6270 C.3       1 <0>        -0.1475
      6 C6          1.0032    3.4676   -3.9873 C.3       1 <0>        -0.1559
      7 C7          1.4665    2.0205    0.0004 C.3       1 <0>         0.0259
      8 H1          2.0682    1.5414   -0.7718 H         1 <0>         0.1445
      9 C8          0.0373    1.4667   -0.0408 C.3       1 <0>        -0.1393
     10 C9          0.1120   -0.0588   -0.0496 C.3       1 <0>        -0.0726
     11 C10         0.9935   -0.5526    1.0676 C.ar      1 <0>        -0.0931
     12 C11         1.8938    0.2626    1.7174 C.ar      1 <0>        -0.0866
     13 C12         2.6841   -0.2556    2.7351 C.ar      1 <0>        -0.1013
     14 C13         2.5748   -1.5798    3.1076 C.ar      1 <0>        -0.1245
     15 C14         1.6679   -2.4036    2.4612 C.ar      1 <0>         0.0981
     16 C15         0.8781   -1.8882    1.4413 C.ar      1 <0>         0.0855
     17 O1         -0.0129   -2.6939    0.8037 O.3       1 <0>        -0.4823
     18 O2          1.5511   -3.7093    2.8234 O.3       1 <0>        -0.4841
     19 C16         2.0600    1.7204    1.3753 C.3       1 <0>        -0.0917
     20 H2          4.0128    7.2322    0.3524 H         1 <0>         0.0774
     21 H3          4.4975    5.7302    1.1754 H         1 <0>         0.0668
     22 H4          4.7338    5.8989   -0.5807 H         1 <0>         0.0668
     23 H5          2.2766    5.9839   -0.9031 H         1 <0>         0.0857
     24 H6          2.0404    5.8152    0.8530 H         1 <0>         0.0847
     25 H7          3.2923    3.6355    0.7584 H         1 <0>         0.1312
     26 H8          3.3600    3.7945   -1.0131 H         1 <0>         0.1325
     27 H9         -0.2235    3.5139   -1.5024 H         1 <0>         0.1303
     28 H10         0.9152    4.8674   -1.7014 H         1 <0>         0.1313
     29 H11         2.6173    3.2367   -2.5795 H         1 <0>         0.0836
     30 H12         1.3807    1.9591   -2.4965 H         1 <0>         0.0861
     31 H13         1.5157    2.9201   -4.7783 H         1 <0>         0.0768
     32 H14        -0.0656    3.2591   -4.0349 H         1 <0>         0.0674
     33 H15         1.1710    4.5366   -4.1179 H         1 <0>         0.0665
     34 H16        -0.4655    1.8149   -0.9430 H         1 <0>         0.0950
     35 H17        -0.5119    1.8023    0.8389 H         1 <0>         0.0932
     36 H18        -0.8903   -0.4684    0.0755 H         1 <0>         0.1038
     37 H19         0.5197   -0.3931   -1.0036 H         1 <0>         0.0867
     38 H20         3.3924    0.3846    3.2400 H         1 <0>         0.1339
     39 H21         3.1940   -1.9725    3.9007 H         1 <0>         0.1418
     40 H22         0.3494   -3.1455    0.0292 H         1 <0>         0.3916
     41 H23         2.1368   -4.3061    2.3377 H         1 <0>         0.3954
     42 H24         1.5521    2.3259    2.1260 H         1 <0>         0.0977
     43 H25         3.1210    1.9699    1.3710 H         1 <0>         0.1003
     44 N1          1.4248    3.4843   -0.2006 N.4       1 <0>        -0.3928
     45 H26         0.8464    3.9057    0.5357 H         1 <0>         0.4265
@<TRIPOS>BOND
     1    1    2 1
     2    1   20 1
     3    1   21 1
     4    1   22 1
     5    2    3 1
     6    2   23 1
     7    2   24 1
     8    3   25 1
     9    3   26 1
    10    3   44 1
    11    4    5 1
    12    4   27 1
    13    4   28 1
    14    4   44 1
    15    5    6 1
    16    5   29 1
    17    5   30 1
    18    6   31 1
    19    6   32 1
    20    6   33 1
    21    7    8 1
    22    7   19 1
    23    7    9 1
    24    7   44 1
    25    9   10 1
    26    9   34 1
    27    9   35 1
    28   10   11 1
    29   10   36 1
    30   10   37 1
    31   11   16 ar
    32   11   12 ar
    33   12   13 ar
    34   12   19 1
    35   13   14 ar
    36   13   38 1
    37   14   15 ar
    38   14   39 1
    39   15   16 ar
    40   15   18 1
    41   16   17 1
    42   17   40 1
    43   18   41 1
    44   19   42 1
    45   19   43 1
    46   44   45 1
@<TRIPOS>MOLECULE
ZINC05833076
   45    46     0     0     0
SMALL
USER_CHARGES
6-dipropylaminotetralin-1,2-diol
@<TRIPOS>ATOM
      1 C1         -0.1778    6.7385   -1.2871 C.3       1 <0>        -0.1561
      2 C2          0.7374    5.9534   -0.3453 C.3       1 <0>        -0.1504
      3 C3          0.6496    4.4619   -0.6748 C.3       1 <0>        -0.0141
      4 C4          1.0503    3.7883    1.6161 C.3       1 <0>        -0.0141
      5 C5          2.1955    3.4456    2.5710 C.3       1 <0>        -0.1499
      6 C6          1.7348    3.6532    4.0152 C.3       1 <0>        -0.1558
      7 C7          1.6549    2.3101   -0.2037 C.3       1 <0>         0.0261
      8 H1          2.1625    1.7308    0.5675 H         1 <0>         0.1420
      9 C8          0.2628    1.7208   -0.4599 C.3       1 <0>        -0.1333
     10 C9          0.4086    0.2153   -0.6716 C.3       1 <0>        -0.0702
     11 C10         1.4632   -0.0744   -1.7074 C.ar      1 <0>        -0.0927
     12 C11         2.4072    0.8552   -2.0847 C.ar      1 <0>        -0.0865
     13 C12         3.3585    0.5236   -3.0407 C.ar      1 <0>        -0.1009
     14 C13         3.3670   -0.7278   -3.6222 C.ar      1 <0>        -0.1247
     15 C14         2.4176   -1.6656   -3.2504 C.ar      1 <0>         0.0985
     16 C15         1.4667   -1.3372   -2.2924 C.ar      1 <0>         0.0851
     17 O1          0.5337   -2.2554   -1.9237 O.3       1 <0>        -0.4820
     18 O2          2.4163   -2.9004   -3.8201 O.3       1 <0>        -0.4843
     19 C16         2.4526    2.2448   -1.5044 C.3       1 <0>        -0.0930
     20 H2         -0.1153    7.8011   -1.0523 H         1 <0>         0.0775
     21 H3          0.1357    6.5751   -2.3182 H         1 <0>         0.0669
     22 H4         -1.2058    6.3986   -1.1617 H         1 <0>         0.0667
     23 H5          0.4239    6.1167    0.6858 H         1 <0>         0.0858
     24 H6          1.7654    6.2933   -0.4707 H         1 <0>         0.0856
     25 H7          0.9631    4.2985   -1.7059 H         1 <0>         0.1296
     26 H8         -0.3784    4.1220   -0.5494 H         1 <0>         0.1325
     27 H9          0.6967    4.7989    1.8207 H         1 <0>         0.1328
     28 H10         0.2332    3.0814    1.7602 H         1 <0>         0.1317
     29 H11         2.4880    2.4053    2.4290 H         1 <0>         0.0850
     30 H12         3.0471    4.0940    2.3645 H         1 <0>         0.0849
     31 H13         2.5507    3.4091    4.6955 H         1 <0>         0.0774
     32 H14         1.4423    4.6936    4.1572 H         1 <0>         0.0668
     33 H15         0.8833    3.0049    4.2217 H         1 <0>         0.0671
     34 H16        -0.1707    2.1765   -1.3501 H         1 <0>         0.0924
     35 H17        -0.3799    1.9101    0.4000 H         1 <0>         0.0917
     36 H18         0.6914   -0.2544    0.2704 H         1 <0>         0.0919
     37 H19        -0.5448   -0.1947   -1.0050 H         1 <0>         0.0965
     38 H20         4.1001    1.2528   -3.3316 H         1 <0>         0.1342
     39 H21         4.1109   -0.9750   -4.3650 H         1 <0>         0.1418
     40 H22        -0.2754   -2.2280   -2.4525 H         1 <0>         0.3912
     41 H23         1.8772   -2.9638   -4.6204 H         1 <0>         0.3956
     42 H24         3.4889    2.5171   -1.3044 H         1 <0>         0.1005
     43 H25         2.0289    2.9478   -2.2216 H         1 <0>         0.0975
     44 N1          1.5544    3.7200    0.2284 N.4       1 <0>        -0.3932
     45 H26         2.4871    4.1476    0.1910 H         1 <0>         0.4261
@<TRIPOS>BOND
     1    1    2 1
     2    1   20 1
     3    1   21 1
     4    1   22 1
     5    2    3 1
     6    2   23 1
     7    2   24 1
     8    3   25 1
     9    3   26 1
    10    3   44 1
    11    4    5 1
    12    4   27 1
    13    4   28 1
    14    4   44 1
    15    5    6 1
    16    5   29 1
    17    5   30 1
    18    6   31 1
    19    6   32 1
    20    6   33 1
    21    7    8 1
    22    7   19 1
    23    7    9 1
    24    7   44 1
    25    9   10 1
    26    9   34 1
    27    9   35 1
    28   10   11 1
    29   10   36 1
    30   10   37 1
    31   11   16 ar
    32   11   12 ar
    33   12   13 ar
    34   12   19 1
    35   13   14 ar
    36   13   38 1
    37   14   15 ar
    38   14   39 1
    39   15   16 ar
    40   15   18 1
    41   16   17 1
    42   17   40 1
    43   18   41 1
    44   19   42 1
    45   19   43 1
    46   44   45 1
@<TRIPOS>MOLECULE
ZINC01915508
   64    68     0     0     0
SMALL
USER_CHARGES
8-[4-[4-(9-thia-8-azabicyclo[4.3.0]nona-2,4,7,10-tetraen-7-yl)piperazin-1-yl]butyl]-8-azaspiro[4.5]decane-7,9-dione
@<TRIPOS>ATOM
      1 C1         -0.1854    3.0363    3.0585 C.ar      1 <0>        -0.1227
      2 C2          0.9702    2.2871    2.8731 C.ar      1 <0>        -0.0631
      3 C3          1.7797    2.5384    1.7969 C.ar      1 <0>        -0.0775
      4 C4          1.4398    3.5390    0.9109 C.ar      1 <0>        -0.1195
      5 C5          0.2738    4.3208    1.0775 C.ar      1 <0>        -0.1259
      6 C6         -0.5340    4.0311    2.1987 C.ar      1 <0>        -0.0351
      7 C7          0.1089    5.3174    0.0302 C.2       1 <0>         0.2965
      8 N1          0.9929    5.4074   -0.9213 N.2       1 <0>        -0.4531
      9 S1          2.1517    4.2026   -0.5700 S.3       1 <0>         0.2239
     10 N2         -0.9928    6.1742    0.0458 N.pl3     1 <0>        -0.4740
     11 C8         -1.8260    5.9826   -1.1494 C.3       1 <0>         0.0288
     12 C9         -3.0618    6.8807   -1.0559 C.3       1 <0>         0.0019
     13 C10        -1.8041    8.4738    0.2628 C.3       1 <0>         0.0063
     14 C11        -0.5684    7.5757    0.1693 C.3       1 <0>         0.0281
     15 C12        -3.7969    9.1840   -0.9159 C.3       1 <0>        -0.0018
     16 C13        -4.4982    9.1379   -2.2750 C.3       1 <0>        -0.1459
     17 C14        -5.7059   10.0771   -2.2578 C.3       1 <0>        -0.1286
     18 C15        -6.4072   10.0310   -3.6168 C.3       1 <0>         0.0907
     19 N3         -7.5636   10.9302   -3.6003 N.am      1 <0>        -0.5674
     20 C16        -8.7518   10.4404   -3.2171 C.2       1 <0>         0.5275
     21 O1         -8.8357    9.2783   -2.8824 O.2       1 <0>        -0.4991
     22 C17        -9.9833   11.3079   -3.1892 C.3       1 <0>        -0.1340
     23 C18        -9.5725   12.7603   -2.9521 C.3       1 <0>        -0.0662
     24 C19       -10.8015   13.6767   -3.0258 C.3       1 <0>        -0.1145
     25 C20       -10.9201   14.3606   -1.6469 C.3       1 <0>        -0.1263
     26 C21        -9.4840   14.3020   -1.0687 C.3       1 <0>        -0.1244
     27 C22        -8.9806   12.9141   -1.5400 C.3       1 <0>        -0.1218
     28 C23        -8.5400   13.1786   -3.9978 C.3       1 <0>        -0.1329
     29 C24        -7.3893   12.2063   -3.9743 C.2       1 <0>         0.5269
     30 O2         -6.2846   12.5847   -4.3000 O.2       1 <0>        -0.4987
     31 H1         -0.8189    2.8271    3.9078 H         1 <0>         0.1379
     32 H2          1.2271    1.5059    3.5731 H         1 <0>         0.1446
     33 H3          2.6772    1.9577    1.6438 H         1 <0>         0.1426
     34 H4         -1.4362    4.5989    2.3719 H         1 <0>         0.1355
     35 H5         -1.2524    6.2448   -2.0384 H         1 <0>         0.0752
     36 H6         -2.1380    4.9401   -1.2119 H         1 <0>         0.1258
     37 H7         -3.6497    6.6005   -0.1819 H         1 <0>         0.1430
     38 H8         -3.6669    6.7619   -1.9547 H         1 <0>         0.1398
     39 H9         -2.3778    8.2117    1.1518 H         1 <0>         0.1425
     40 H10        -1.4921    9.5163    0.3257 H         1 <0>         0.1394
     41 H11         0.0365    7.6946    1.0683 H         1 <0>         0.1260
     42 H12         0.0195    7.8560   -0.7047 H         1 <0>         0.0753
     43 H13        -4.4917    8.8682   -0.1377 H         1 <0>         0.1343
     44 H14        -3.4629   10.2016   -0.7137 H         1 <0>         0.1317
     45 H15        -3.8034    9.4537   -3.0532 H         1 <0>         0.0910
     46 H16        -4.8321    8.1202   -2.4772 H         1 <0>         0.0910
     47 H17        -6.4007    9.7613   -1.4795 H         1 <0>         0.0800
     48 H18        -5.3719   11.0947   -2.0556 H         1 <0>         0.0795
     49 H19        -5.7124   10.3468   -4.3951 H         1 <0>         0.0985
     50 H20        -6.7411    9.0133   -3.8190 H         1 <0>         0.0987
     51 H21       -10.6438   10.9805   -2.3863 H         1 <0>         0.1190
     52 H22       -10.5031   11.2276   -4.1439 H         1 <0>         0.1155
     53 H23       -10.6624   14.4268   -3.8044 H         1 <0>         0.0769
     54 H24       -11.6956   13.0875   -3.2291 H         1 <0>         0.0769
     55 H25       -11.6116   13.8121   -1.0073 H         1 <0>         0.0700
     56 H26       -11.2444   15.3952   -1.7587 H         1 <0>         0.0725
     57 H27        -9.5035   14.3564    0.0198 H         1 <0>         0.0709
     58 H28        -8.8653   15.0981   -1.4826 H         1 <0>         0.0705
     59 H29        -9.3535   12.1291   -0.8821 H         1 <0>         0.0742
     60 H30        -7.8914   12.8959   -1.5784 H         1 <0>         0.0612
     61 H31        -8.1754   14.1800   -3.7693 H         1 <0>         0.1185
     62 H32        -9.0001   13.1744   -4.9859 H         1 <0>         0.1158
     63 N4         -2.6214    8.2879   -0.9547 N.4       1 <0>        -0.3991
     64 H33        -2.0524    8.5196   -1.7774 H         1 <0>         0.4266
@<TRIPOS>BOND
     1    1    6 ar
     2    1    2 ar
     3    1   31 1
     4    2    3 ar
     5    2   32 1
     6    3    4 ar
     7    3   33 1
     8    4    9 1
     9    4    5 ar
    10    5    6 ar
    11    5    7 1
    12    6   34 1
    13    7    8 2
    14    7   10 1
    15    8    9 1
    16   10   14 1
    17   10   11 1
    18   11   12 1
    19   11   35 1
    20   11   36 1
    21   12   37 1
    22   12   38 1
    23   12   63 1
    24   13   14 1
    25   13   39 1
    26   13   40 1
    27   13   63 1
    28   14   41 1
    29   14   42 1
    30   15   16 1
    31   15   43 1
    32   15   44 1
    33   15   63 1
    34   16   17 1
    35   16   45 1
    36   16   46 1
    37   17   18 1
    38   17   47 1
    39   17   48 1
    40   18   19 1
    41   18   49 1
    42   18   50 1
    43   19   29 am
    44   19   20 am
    45   20   21 2
    46   20   22 1
    47   22   23 1
    48   22   51 1
    49   22   52 1
    50   23   27 1
    51   23   24 1
    52   23   28 1
    53   24   25 1
    54   24   53 1
    55   24   54 1
    56   25   26 1
    57   25   55 1
    58   25   56 1
    59   26   27 1
    60   26   57 1
    61   26   58 1
    62   27   59 1
    63   27   60 1
    64   28   29 1
    65   28   61 1
    66   28   62 1
    67   29   30 2
    68   63   64 1
@<TRIPOS>MOLECULE
ZINC01481744
   59    63     0     0     0
SMALL
USER_CHARGES
tert-butylBLAHol
@<TRIPOS>ATOM
      1 C1          7.4021    8.7034   -0.7443 C.3       1 <0>        -0.1466
      2 C2          7.5600    7.3733   -0.0048 C.3       1 <0>        -0.0472
      3 C3          8.5881    6.5044   -0.7320 C.3       1 <0>        -0.1553
      4 C4          8.0362    7.6381    1.4249 C.3       1 <0>        -0.1470
      5 C5          6.2137    6.6474    0.0323 C.3       1 <0>         0.1386
      6 C6          5.7356    6.3816   -1.3980 C.3       1 <0>        -0.1808
      7 C7          4.4166    5.6077   -1.3542 C.3       1 <0>        -0.0052
      8 C8          3.3652    3.5592   -0.6154 C.3       1 <0>        -0.0027
      9 C9          3.6680    2.1410   -0.1452 C.3       1 <0>        -0.0191
     10 H1          4.2105    1.6604   -0.9594 H         1 <0>         0.1021
     11 C10         2.3734    1.3946   -0.0260 C.ar      1 <0>        -0.0842
     12 C11         1.1723    2.0854    0.0021 C.ar      1 <0>        -0.1223
     13 C12        -0.0167    1.3784    0.0096 C.ar      1 <0>        -0.1108
     14 C13         0.0021   -0.0041    0.0020 C.ar      1 <0>        -0.1048
     15 C14         1.2071   -0.6813    0.0133 C.ar      1 <0>        -0.1051
     16 C15         2.3948    0.0364    0.0071 C.ar      1 <0>        -0.0695
     17 C16         3.7024   -0.6896    0.1021 C.3       1 <0>        -0.0845
     18 C17         4.3272   -0.4713    1.4512 C.3       1 <0>        -0.0850
     19 C18         4.8103    0.9217    1.7463 C.ar      1 <0>        -0.0444
     20 C19         4.5590    2.0827    1.0479 C.ar      1 <0>        -0.0603
     21 C20         5.1779    3.2568    1.4753 C.ar      1 <0>        -0.1299
     22 C21         5.9679    3.2844    2.6137 C.ar      1 <0>        -0.0975
     23 C22         6.1786    2.1330    3.3379 C.ar      1 <0>        -0.0990
     24 C23         5.6072    0.9672    2.8970 C.ar      1 <0>        -0.1046
     25 C24         5.0337    4.5665    0.7444 C.3       1 <0>         0.0810
     26 H2          4.2805    5.1671    1.2544 H         1 <0>         0.1391
     27 C25         6.3702    5.3111    0.7637 C.3       1 <0>        -0.1720
     28 O1          5.2533    7.4561    0.7147 O.3       1 <0>        -0.5331
     29 H3          6.6697    9.3225   -0.2261 H         1 <0>         0.0690
     30 H4          8.3612    9.2205   -0.7707 H         1 <0>         0.0638
     31 H5          7.0629    8.5148   -1.7628 H         1 <0>         0.0556
     32 H6          8.2488    6.3158   -1.7506 H         1 <0>         0.0600
     33 H7          9.5472    7.0215   -0.7584 H         1 <0>         0.0731
     34 H8          8.7006    5.5568   -0.2052 H         1 <0>         0.0598
     35 H9          8.1487    6.6905    1.9518 H         1 <0>         0.0543
     36 H10         8.9953    8.1552    1.3985 H         1 <0>         0.0641
     37 H11         7.3038    8.2571    1.9431 H         1 <0>         0.0692
     38 H12         6.4847    5.7942   -1.9288 H         1 <0>         0.1035
     39 H13         5.5840    7.3302   -1.9132 H         1 <0>         0.1274
     40 H14         4.0813    5.4044   -2.3713 H         1 <0>         0.1398
     41 H15         3.6639    6.2024   -0.8366 H         1 <0>         0.1295
     42 H16         2.9358    3.5269   -1.6168 H         1 <0>         0.1429
     43 H17         2.6573    4.0264    0.0692 H         1 <0>         0.1364
     44 H18         1.1646    3.1652    0.0175 H         1 <0>         0.1229
     45 H19        -0.9590    1.9060    0.0169 H         1 <0>         0.1296
     46 H20        -0.9263   -0.5557   -0.0124 H         1 <0>         0.1306
     47 H21         1.2241   -1.7611    0.0273 H         1 <0>         0.1320
     48 H22         3.5343   -1.7559   -0.0490 H         1 <0>         0.0895
     49 H23         4.3776   -0.3184   -0.6689 H         1 <0>         0.0749
     50 H24         3.5946   -0.7431    2.2111 H         1 <0>         0.0852
     51 H25         5.1749   -1.1501    1.5451 H         1 <0>         0.0900
     52 H26         6.4197    4.2119    2.9332 H         1 <0>         0.1353
     53 H27         6.7814    2.1475    4.2340 H         1 <0>         0.1400
     54 H28         5.7764    0.0573    3.4536 H         1 <0>         0.1328
     55 H29         7.1294    4.7094    0.2640 H         1 <0>         0.1055
     56 H30         6.6704    5.4938    1.7955 H         1 <0>         0.1265
     57 H31         4.3755    7.0555    0.7778 H         1 <0>         0.3658
     58 N1          4.6164    4.3231   -0.6385 N.4       1 <0>        -0.3871
     59 H32         5.3405    3.7791   -1.1223 H         1 <0>         0.4282
@<TRIPOS>BOND
     1    1    2 1
     2    1   29 1
     3    1   30 1
     4    1   31 1
     5    2    3 1
     6    2    4 1
     7    2    5 1
     8    3   32 1
     9    3   33 1
    10    3   34 1
    11    4   35 1
    12    4   36 1
    13    4   37 1
    14    5   27 1
    15    5    6 1
    16    5   28 1
    17    6    7 1
    18    6   38 1
    19    6   39 1
    20    7   40 1
    21    7   41 1
    22    7   58 1
    23    8    9 1
    24    8   42 1
    25    8   43 1
    26    8   58 1
    27    9   10 1
    28    9   20 1
    29    9   11 1
    30   11   16 ar
    31   11   12 ar
    32   12   13 ar
    33   12   44 1
    34   13   14 ar
    35   13   45 1
    36   14   15 ar
    37   14   46 1
    38   15   16 ar
    39   15   47 1
    40   16   17 1
    41   17   18 1
    42   17   48 1
    43   17   49 1
    44   18   19 1
    45   18   50 1
    46   18   51 1
    47   19   24 ar
    48   19   20 ar
    49   20   21 ar
    50   21   22 ar
    51   21   25 1
    52   22   23 ar
    53   22   52 1
    54   23   24 ar
    55   23   53 1
    56   24   54 1
    57   25   26 1
    58   25   27 1
    59   25   58 1
    60   27   55 1
    61   27   56 1
    62   28   57 1
    63   58   59 1
@<TRIPOS>MOLECULE
ZINC22463345
   54    57     0     0     0
SMALL
USER_CHARGES
2-[4-[(1R,3S)-3-(4-fluorophenyl)-6-(trifluoromethyl)indan-1-yl]piperazin-1-yl]ethanol
@<TRIPOS>ATOM
      1 C1         -0.4317   -7.2518   -3.5141 C.ar      1 <0>        -0.0795
      2 C2         -0.2506   -8.3222   -4.3693 C.ar      1 <0>        -0.1489
      3 C3         -0.4902   -8.1728   -5.7248 C.ar      1 <0>         0.1151
      4 C4         -0.9167   -6.9525   -6.2210 C.ar      1 <0>        -0.1491
      5 C5         -1.1029   -5.8853   -5.3630 C.ar      1 <0>        -0.0776
      6 C6         -0.8630   -6.0355   -4.0098 C.ar      1 <0>        -0.1134
      7 C7         -1.0660   -4.8708   -3.0753 C.3       1 <0>        -0.0239
      8 H1         -1.4064   -4.0308   -3.6986 H         1 <0>         0.1155
      9 C8          0.2397   -4.5683   -2.3046 C.3       1 <0>        -0.1302
     10 C9         -0.2897   -4.1132   -0.9280 C.3       1 <0>         0.0949
     11 H2          0.3887   -4.3445   -0.0935 H         1 <0>         0.1442
     12 C10        -1.6365   -4.7872   -0.7764 C.ar      1 <0>        -0.1605
     13 C11        -2.0826   -5.2228   -2.0105 C.ar      1 <0>        -0.0272
     14 C12        -3.3011   -5.8720   -2.1130 C.ar      1 <0>        -0.0928
     15 C13        -4.0718   -6.0859   -0.9866 C.ar      1 <0>        -0.0339
     16 C14        -3.6260   -5.6504    0.2470 C.ar      1 <0>        -0.1742
     17 C15        -2.4105   -5.0021    0.3513 C.ar      1 <0>        -0.0334
     18 C16        -4.4649   -5.8826    1.4772 C.3       1 <0>         0.5081
     19 F1         -5.6404   -6.5520    1.1204 F         1 <0>        -0.1687
     20 F2         -3.7457   -6.6587    2.3924 F         1 <0>        -0.1698
     21 F3         -4.7874   -4.6527    2.0607 F         1 <0>        -0.1732
     22 N1         -0.4445   -2.6526   -0.8989 N.4       1 <0>        -0.4018
     23 C17        -1.1751   -2.2243    0.3021 C.3       1 <0>        -0.0047
     24 C18        -1.3844   -0.7089    0.2552 C.3       1 <0>         0.0249
     25 N2         -0.0792   -0.0391    0.1695 N.3       1 <0>        -0.5286
     26 C19         0.6515   -0.4675   -1.0315 C.3       1 <0>         0.0269
     27 C20         0.8608   -1.9829   -0.9846 C.3       1 <0>        -0.0015
     28 C21        -0.2340    1.4214    0.1986 C.3       1 <0>         0.0527
     29 C22        -0.5431    1.8731    1.6274 C.3       1 <0>         0.0888
     30 O1          0.5720    1.5796    2.4715 O.3       1 <0>        -0.5933
     31 F4         -0.3074   -9.2167   -6.5627 F         1 <0>        -0.1307
     32 H3         -0.2400   -7.3667   -2.4574 H         1 <0>         0.1306
     33 H4          0.0824   -9.2734   -3.9812 H         1 <0>         0.1411
     34 H5         -1.1035   -6.8347   -7.2782 H         1 <0>         0.1423
     35 H6         -1.4356   -4.9334   -5.7498 H         1 <0>         0.1352
     36 H7          0.8519   -5.4804   -2.2483 H         1 <0>         0.1277
     37 H8          0.8014   -3.7815   -2.8294 H         1 <0>         0.1103
     38 H9         -3.6501   -6.2126   -3.0766 H         1 <0>         0.1466
     39 H10        -5.0219   -6.5926   -1.0699 H         1 <0>         0.1549
     40 H11        -2.0628   -4.6621    1.3156 H         1 <0>         0.1428
     41 H12        -2.1516   -2.7294    0.3368 H         1 <0>         0.1337
     42 H13        -0.5940   -2.4877    1.1982 H         1 <0>         0.1375
     43 H14        -1.9893   -0.4494   -0.6261 H         1 <0>         0.0595
     44 H15        -1.9060   -0.3824    1.1670 H         1 <0>         0.1226
     45 H16         0.0704   -0.2042   -1.9276 H         1 <0>         0.0592
     46 H17         1.6281    0.0376   -1.0662 H         1 <0>         0.1254
     47 H18         1.4652   -2.2435   -0.1032 H         1 <0>         0.1390
     48 H19         1.3818   -2.3105   -1.8963 H         1 <0>         0.1377
     49 H20         0.6980    1.8958   -0.1424 H         1 <0>         0.0946
     50 H21        -1.0597    1.7159   -0.4658 H         1 <0>         0.0631
     51 H22        -0.7346    2.9563    1.6362 H         1 <0>         0.0538
     52 H23        -1.4322    1.3406    1.9961 H         1 <0>         0.0407
     53 H24         0.5342    1.8341    3.5410 H         1 <0>         0.4149
     54 H25        -1.0355   -2.3588   -1.7789 H         1 <0>         0.4323
@<TRIPOS>BOND
     1    1    6 ar
     2    1    2 ar
     3    1   32 1
     4    2    3 ar
     5    2   33 1
     6    3    4 ar
     7    3   31 1
     8    4    5 ar
     9    4   34 1
    10    5    6 ar
    11    5   35 1
    12    6    7 1
    13    7    8 1
    14    7   13 1
    15    7    9 1
    16    9   10 1
    17    9   36 1
    18    9   37 1
    19   10   11 1
    20   10   12 1
    21   10   22 1
    22   12   17 ar
    23   12   13 ar
    24   13   14 ar
    25   14   15 ar
    26   14   38 1
    27   15   16 ar
    28   15   39 1
    29   16   17 ar
    30   16   18 1
    31   17   40 1
    32   18   19 1
    33   18   20 1
    34   18   21 1
    35   22   27 1
    36   22   23 1
    37   22   54 1
    38   23   24 1
    39   23   41 1
    40   23   42 1
    41   24   25 1
    42   24   43 1
    43   24   44 1
    44   25   26 1
    45   25   28 1
    46   26   27 1
    47   26   45 1
    48   26   46 1
    49   27   47 1
    50   27   48 1
    51   28   29 1
    52   28   49 1
    53   28   50 1
    54   29   30 1
    55   29   51 1
    56   29   52 1
    57   30   53 1
@<TRIPOS>MOLECULE
ZINC22463345
   53    56     0     0     0
SMALL
USER_CHARGES
2-[4-[(1R,3S)-3-(4-fluorophenyl)-6-(trifluoromethyl)indan-1-yl]piperazin-1-yl]ethanol
@<TRIPOS>ATOM
      1 C1         -0.4317   -7.2518   -3.5141 C.ar      1 <0>        -0.0804
      2 C2         -0.2506   -8.3222   -4.3693 C.ar      1 <0>        -0.1507
      3 C3         -0.4902   -8.1728   -5.7248 C.ar      1 <0>         0.0982
      4 C4         -0.9167   -6.9525   -6.2210 C.ar      1 <0>        -0.1513
      5 C5         -1.1029   -5.8853   -5.3630 C.ar      1 <0>        -0.0833
      6 C6         -0.8630   -6.0355   -4.0098 C.ar      1 <0>        -0.0940
      7 C7         -1.0660   -4.8708   -3.0753 C.3       1 <0>        -0.0064
      8 H1         -1.4064   -4.0308   -3.6986 H         1 <0>         0.1064
      9 C8          0.2397   -4.5683   -2.3046 C.3       1 <0>        -0.1017
     10 C9         -0.2897   -4.1132   -0.9280 C.3       1 <0>         0.1294
     11 H2          0.3887   -4.3445   -0.0935 H         1 <0>         0.0598
     12 C10        -1.6365   -4.7872   -0.7764 C.ar      1 <0>        -0.0880
     13 C11        -2.0826   -5.2228   -2.0105 C.ar      1 <0>        -0.0359
     14 C12        -3.3011   -5.8720   -2.1130 C.ar      1 <0>        -0.1021
     15 C13        -4.0718   -6.0859   -0.9866 C.ar      1 <0>        -0.0650
     16 C14        -3.6260   -5.6504    0.2470 C.ar      1 <0>        -0.1829
     17 C15        -2.4105   -5.0021    0.3513 C.ar      1 <0>        -0.0510
     18 C16        -4.4649   -5.8826    1.4772 C.3       1 <0>         0.5095
     19 F1         -5.6404   -6.5520    1.1204 F         1 <0>        -0.1760
     20 F2         -3.7457   -6.6587    2.3924 F         1 <0>        -0.1760
     21 F3         -4.7874   -4.6527    2.0607 F         1 <0>        -0.1761
     22 N1         -0.4445   -2.6526   -0.8989 N.3       1 <0>        -0.5345
     23 C17        -1.1751   -2.2243    0.3021 C.3       1 <0>         0.0530
     24 C18        -1.3844   -0.7089    0.2552 C.3       1 <0>         0.0562
     25 N2         -0.0792   -0.0391    0.1695 N.3       1 <0>        -0.5290
     26 C19         0.6515   -0.4675   -1.0315 C.3       1 <0>         0.0579
     27 C20         0.8608   -1.9829   -0.9846 C.3       1 <0>         0.0559
     28 C21        -0.2340    1.4214    0.1986 C.3       1 <0>         0.0531
     29 C22        -0.5431    1.8731    1.6274 C.3       1 <0>         0.0918
     30 O1          0.5720    1.5796    2.4715 O.3       1 <0>        -0.5880
     31 F4         -0.3074   -9.2167   -6.5627 F         1 <0>        -0.1391
     32 H3         -0.2400   -7.3667   -2.4574 H         1 <0>         0.1309
     33 H4          0.0824   -9.2734   -3.9812 H         1 <0>         0.1358
     34 H5         -1.1035   -6.8347   -7.2782 H         1 <0>         0.1365
     35 H6         -1.4356   -4.9334   -5.7498 H         1 <0>         0.1338
     36 H7          0.8519   -5.4804   -2.2483 H         1 <0>         0.0858
     37 H8          0.8014   -3.7815   -2.8294 H         1 <0>         0.0919
     38 H9         -3.6501   -6.2126   -3.0766 H         1 <0>         0.1333
     39 H10        -5.0219   -6.5926   -1.0699 H         1 <0>         0.1415
     40 H11        -2.0628   -4.6621    1.3156 H         1 <0>         0.1310
     41 H12        -2.1516   -2.7294    0.3368 H         1 <0>         0.0835
     42 H13        -0.5940   -2.4877    1.1982 H         1 <0>         0.0442
     43 H14        -1.9893   -0.4494   -0.6261 H         1 <0>         0.0417
     44 H15        -1.9060   -0.3824    1.1670 H         1 <0>         0.0789
     45 H16         0.0704   -0.2042   -1.9276 H         1 <0>         0.0417
     46 H17         1.6281    0.0376   -1.0662 H         1 <0>         0.0814
     47 H18         1.4652   -2.2435   -0.1032 H         1 <0>         0.0460
     48 H19         1.3818   -2.3105   -1.8963 H         1 <0>         0.0843
     49 H20         0.6980    1.8958   -0.1424 H         1 <0>         0.0811
     50 H21        -1.0597    1.7159   -0.4658 H         1 <0>         0.0514
     51 H22        -0.7346    2.9563    1.6362 H         1 <0>         0.0432
     52 H23        -1.4322    1.3406    1.9961 H         1 <0>         0.0398
     53 H24         0.5342    1.8341    3.5410 H         1 <0>         0.4028
@<TRIPOS>BOND
     1    1    6 ar
     2    1    2 ar
     3    1   32 1
     4    2    3 ar
     5    2   33 1
     6    3    4 ar
     7    3   31 1
     8    4    5 ar
     9    4   34 1
    10    5    6 ar
    11    5   35 1
    12    6    7 1
    13    7    8 1
    14    7   13 1
    15    7    9 1
    16    9   10 1
    17    9   36 1
    18    9   37 1
    19   10   11 1
    20   10   12 1
    21   10   22 1
    22   12   17 ar
    23   12   13 ar
    24   13   14 ar
    25   14   15 ar
    26   14   38 1
    27   15   16 ar
    28   15   39 1
    29   16   17 ar
    30   16   18 1
    31   17   40 1
    32   18   19 1
    33   18   20 1
    34   18   21 1
    35   22   27 1
    36   22   23 1
    37   23   24 1
    38   23   41 1
    39   23   42 1
    40   24   25 1
    41   24   43 1
    42   24   44 1
    43   25   26 1
    44   25   28 1
    45   26   27 1
    46   26   45 1
    47   26   46 1
    48   27   47 1
    49   27   48 1
    50   28   29 1
    51   28   49 1
    52   28   50 1
    53   29   30 1
    54   29   51 1
    55   29   52 1
    56   30   53 1
@<TRIPOS>MOLECULE
ZINC22937852
   54    57     0     0     0
SMALL
USER_CHARGES
2-[4-[(1S,3S)-3-(4-fluorophenyl)-6-(trifluoromethyl)indan-1-yl]piperazin-1-yl]ethanol
@<TRIPOS>ATOM
      1 C1         -0.6994    2.2254   -1.0171 C.ar      1 <0>        -0.0841
      2 C2         -0.6562    3.5975   -1.1765 C.ar      1 <0>        -0.1493
      3 C3          0.5578    4.2329   -1.3756 C.ar      1 <0>         0.1140
      4 C4          1.7277    3.4932   -1.4094 C.ar      1 <0>        -0.1465
      5 C5          1.6826    2.1218   -1.2445 C.ar      1 <0>        -0.0752
      6 C6          0.4699    1.4885   -1.0458 C.ar      1 <0>        -0.1121
      7 C7          0.4219   -0.0070   -0.8665 C.3       1 <0>        -0.0110
      8 H1          1.4622   -0.3591   -0.9285 H         1 <0>         0.1232
      9 C8         -0.4986   -0.6445   -1.9289 C.3       1 <0>        -0.1345
     10 C9         -1.1351   -1.8181   -1.1545 C.3       1 <0>         0.1001
     11 H2         -0.6347   -2.7832   -1.3221 H         1 <0>         0.1522
     12 C10        -1.1030   -1.3974    0.2992 C.ar      1 <0>        -0.1590
     13 C11        -0.2081   -0.3565    0.4647 C.ar      1 <0>        -0.0217
     14 C12        -0.0135    0.1918    1.7210 C.ar      1 <0>        -0.0897
     15 C13        -0.7104   -0.2977    2.8088 C.ar      1 <0>        -0.0385
     16 C14        -1.6050   -1.3382    2.6433 C.ar      1 <0>        -0.1702
     17 C15        -1.8005   -1.8866    1.3905 C.ar      1 <0>        -0.0468
     18 C16        -2.3667   -1.8736    3.8283 C.3       1 <0>         0.5081
     19 F1         -2.0017   -1.1633    4.9769 F         1 <0>        -0.1682
     20 F2         -3.7399   -1.7260    3.6053 F         1 <0>        -0.1739
     21 F3         -2.0656   -3.2287    4.0026 F         1 <0>        -0.1708
     22 N1         -2.5210   -2.0290   -1.5936 N.4       1 <0>        -0.4042
     23 C17        -2.5661   -2.5157   -2.9795 C.3       1 <0>        -0.0003
     24 C18        -4.0185   -2.7979   -3.3712 C.3       1 <0>         0.0262
     25 N2         -4.8111   -1.5696   -3.2213 N.3       1 <0>        -0.5277
     26 C19        -4.7660   -1.0829   -1.8354 C.3       1 <0>         0.0246
     27 C20        -3.3137   -0.8006   -1.4437 C.3       1 <0>        -0.0083
     28 C21        -6.1970   -1.7805   -3.6604 C.3       1 <0>         0.0526
     29 C22        -6.8494   -0.4287   -3.9568 C.3       1 <0>         0.0890
     30 O1         -6.1670    0.2017   -5.0426 O.3       1 <0>        -0.5928
     31 F4          0.6007    5.5736   -1.5363 F         1 <0>        -0.1309
     32 H3         -1.6467    1.7291   -0.8659 H         1 <0>         0.1232
     33 H4         -1.5695    4.1735   -1.1499 H         1 <0>         0.1398
     34 H5          2.6752    3.9877   -1.5650 H         1 <0>         0.1432
     35 H6          2.5951    1.5447   -1.2705 H         1 <0>         0.1379
     36 H7         -1.2381    0.0969   -2.2657 H         1 <0>         0.1082
     37 H8          0.1055   -0.9755   -2.7865 H         1 <0>         0.1181
     38 H9          0.6851    1.0051    1.8510 H         1 <0>         0.1471
     39 H10        -0.5566    0.1324    3.7874 H         1 <0>         0.1546
     40 H11        -2.4999   -2.6994    1.2619 H         1 <0>         0.1355
     41 H12        -2.1462   -1.7516   -3.6503 H         1 <0>         0.1386
     42 H13        -1.9765   -3.4406   -3.0627 H         1 <0>         0.1384
     43 H14        -4.0572   -3.1350   -4.4176 H         1 <0>         0.1254
     44 H15        -4.4287   -3.5821   -2.7180 H         1 <0>         0.0597
     45 H16        -5.3556   -0.1580   -1.7522 H         1 <0>         0.1216
     46 H17        -5.1858   -1.8469   -1.1646 H         1 <0>         0.0600
     47 H18        -3.2739   -0.4640   -0.3972 H         1 <0>         0.1330
     48 H19        -2.9025   -0.0168   -2.0968 H         1 <0>         0.1383
     49 H20        -6.2033   -2.3981   -4.5706 H         1 <0>         0.0945
     50 H21        -6.7595   -2.2927   -2.8659 H         1 <0>         0.0634
     51 H22        -7.9047   -0.5822   -4.2266 H         1 <0>         0.0538
     52 H23        -6.7885    0.2114   -3.0643 H         1 <0>         0.0402
     53 H24        -6.4961    1.1885   -5.4003 H         1 <0>         0.4144
     54 H25        -2.9651   -2.8009   -0.9479 H         1 <0>         0.4369
@<TRIPOS>BOND
     1    1    6 ar
     2    1    2 ar
     3    1   32 1
     4    2    3 ar
     5    2   33 1
     6    3    4 ar
     7    3   31 1
     8    4    5 ar
     9    4   34 1
    10    5    6 ar
    11    5   35 1
    12    6    7 1
    13    7    8 1
    14    7   13 1
    15    7    9 1
    16    9   10 1
    17    9   36 1
    18    9   37 1
    19   10   11 1
    20   10   12 1
    21   10   22 1
    22   12   17 ar
    23   12   13 ar
    24   13   14 ar
    25   14   15 ar
    26   14   38 1
    27   15   16 ar
    28   15   39 1
    29   16   17 ar
    30   16   18 1
    31   17   40 1
    32   18   19 1
    33   18   20 1
    34   18   21 1
    35   22   27 1
    36   22   23 1
    37   22   54 1
    38   23   24 1
    39   23   41 1
    40   23   42 1
    41   24   25 1
    42   24   43 1
    43   24   44 1
    44   25   26 1
    45   25   28 1
    46   26   27 1
    47   26   45 1
    48   26   46 1
    49   27   47 1
    50   27   48 1
    51   28   29 1
    52   28   49 1
    53   28   50 1
    54   29   30 1
    55   29   51 1
    56   29   52 1
    57   30   53 1
@<TRIPOS>MOLECULE
ZINC22937852
   53    56     0     0     0
SMALL
USER_CHARGES
2-[4-[(1S,3S)-3-(4-fluorophenyl)-6-(trifluoromethyl)indan-1-yl]piperazin-1-yl]ethanol
@<TRIPOS>ATOM
      1 C1         -0.6994    2.2254   -1.0171 C.ar      1 <0>        -0.0792
      2 C2         -0.6562    3.5975   -1.1765 C.ar      1 <0>        -0.1500
      3 C3          0.5578    4.2329   -1.3756 C.ar      1 <0>         0.0989
      4 C4          1.7277    3.4932   -1.4094 C.ar      1 <0>        -0.1509
      5 C5          1.6826    2.1218   -1.2445 C.ar      1 <0>        -0.0841
      6 C6          0.4699    1.4885   -1.0458 C.ar      1 <0>        -0.0926
      7 C7          0.4219   -0.0070   -0.8665 C.3       1 <0>        -0.0117
      8 H1          1.4622   -0.3591   -0.9285 H         1 <0>         0.1049
      9 C8         -0.4986   -0.6445   -1.9289 C.3       1 <0>        -0.1444
     10 C9         -1.1351   -1.8181   -1.1545 C.3       1 <0>         0.1286
     11 H2         -0.6347   -2.7832   -1.3221 H         1 <0>         0.1076
     12 C10        -1.1030   -1.3974    0.2992 C.ar      1 <0>        -0.0850
     13 C11        -0.2081   -0.3565    0.4647 C.ar      1 <0>        -0.0520
     14 C12        -0.0135    0.1918    1.7210 C.ar      1 <0>        -0.1016
     15 C13        -0.7104   -0.2977    2.8088 C.ar      1 <0>        -0.0677
     16 C14        -1.6050   -1.3382    2.6433 C.ar      1 <0>        -0.1843
     17 C15        -1.8005   -1.8866    1.3905 C.ar      1 <0>        -0.0361
     18 C16        -2.3667   -1.8736    3.8283 C.3       1 <0>         0.5096
     19 F1         -2.0017   -1.1633    4.9769 F         1 <0>        -0.1770
     20 F2         -3.7399   -1.7260    3.6053 F         1 <0>        -0.1761
     21 F3         -2.0656   -3.2287    4.0026 F         1 <0>        -0.1758
     22 N1         -2.5210   -2.0290   -1.5936 N.3       1 <0>        -0.5312
     23 C17        -2.5661   -2.5157   -2.9795 C.3       1 <0>         0.0556
     24 C18        -4.0185   -2.7979   -3.3712 C.3       1 <0>         0.0566
     25 N2         -4.8111   -1.5696   -3.2213 N.3       1 <0>        -0.5277
     26 C19        -4.7660   -1.0829   -1.8354 C.3       1 <0>         0.0545
     27 C20        -3.3137   -0.8006   -1.4437 C.3       1 <0>         0.0510
     28 C21        -6.1970   -1.7805   -3.6604 C.3       1 <0>         0.0528
     29 C22        -6.8494   -0.4287   -3.9568 C.3       1 <0>         0.0921
     30 O1         -6.1670    0.2017   -5.0426 O.3       1 <0>        -0.5874
     31 F4          0.6007    5.5736   -1.5363 F         1 <0>        -0.1387
     32 H3         -1.6467    1.7291   -0.8659 H         1 <0>         0.1285
     33 H4         -1.5695    4.1735   -1.1499 H         1 <0>         0.1358
     34 H5          2.6752    3.9877   -1.5650 H         1 <0>         0.1369
     35 H6          2.5951    1.5447   -1.2705 H         1 <0>         0.1339
     36 H7         -1.2381    0.0969   -2.2657 H         1 <0>         0.0914
     37 H8          0.1055   -0.9755   -2.7865 H         1 <0>         0.0861
     38 H9          0.6851    1.0051    1.8510 H         1 <0>         0.1323
     39 H10        -0.5566    0.1324    3.7874 H         1 <0>         0.1406
     40 H11        -2.4999   -2.6994    1.2619 H         1 <0>         0.1364
     41 H12        -2.1462   -1.7516   -3.6503 H         1 <0>         0.0491
     42 H13        -1.9765   -3.4406   -3.0627 H         1 <0>         0.0822
     43 H14        -4.0572   -3.1350   -4.4176 H         1 <0>         0.0813
     44 H15        -4.4287   -3.5821   -2.7180 H         1 <0>         0.0418
     45 H16        -5.3556   -0.1580   -1.7522 H         1 <0>         0.0777
     46 H17        -5.1858   -1.8469   -1.1646 H         1 <0>         0.0416
     47 H18        -3.2739   -0.4640   -0.3972 H         1 <0>         0.0790
     48 H19        -2.9025   -0.0168   -2.0968 H         1 <0>         0.0498
     49 H20        -6.2033   -2.3981   -4.5706 H         1 <0>         0.0810
     50 H21        -6.7595   -2.2927   -2.8659 H         1 <0>         0.0516
     51 H22        -7.9047   -0.5822   -4.2266 H         1 <0>         0.0431
     52 H23        -6.7885    0.2114   -3.0643 H         1 <0>         0.0392
     53 H24        -6.4961    1.1885   -5.4003 H         1 <0>         0.4023
@<TRIPOS>BOND
     1    1    6 ar
     2    1    2 ar
     3    1   32 1
     4    2    3 ar
     5    2   33 1
     6    3    4 ar
     7    3   31 1
     8    4    5 ar
     9    4   34 1
    10    5    6 ar
    11    5   35 1
    12    6    7 1
    13    7    8 1
    14    7   13 1
    15    7    9 1
    16    9   10 1
    17    9   36 1
    18    9   37 1
    19   10   11 1
    20   10   12 1
    21   10   22 1
    22   12   17 ar
    23   12   13 ar
    24   13   14 ar
    25   14   15 ar
    26   14   38 1
    27   15   16 ar
    28   15   39 1
    29   16   17 ar
    30   16   18 1
    31   17   40 1
    32   18   19 1
    33   18   20 1
    34   18   21 1
    35   22   27 1
    36   22   23 1
    37   23   24 1
    38   23   41 1
    39   23   42 1
    40   24   25 1
    41   24   43 1
    42   24   44 1
    43   25   26 1
    44   25   28 1
    45   26   27 1
    46   26   45 1
    47   26   46 1
    48   27   47 1
    49   27   48 1
    50   28   29 1
    51   28   49 1
    52   28   50 1
    53   29   30 1
    54   29   51 1
    55   29   52 1
    56   30   53 1
@<TRIPOS>MOLECULE
ZINC22937855
   54    57     0     0     0
SMALL
USER_CHARGES
2-[4-[(1R,3R)-3-(4-fluorophenyl)-6-(trifluoromethyl)indan-1-yl]piperazin-1-yl]ethanol
@<TRIPOS>ATOM
      1 C1         -0.5753    4.7457    2.8158 C.ar      1 <0>        -0.0838
      2 C2         -0.9754    5.8159    3.5933 C.ar      1 <0>        -0.1492
      3 C3         -0.9811    5.7045    4.9734 C.ar      1 <0>         0.1141
      4 C4         -0.5917    4.5186    5.5727 C.ar      1 <0>        -0.1467
      5 C5         -0.1978    3.4477    4.7929 C.ar      1 <0>        -0.0754
      6 C6         -0.1921    3.5603    3.4151 C.ar      1 <0>        -0.1125
      7 C7          0.2381    2.3920    2.5660 C.3       1 <0>        -0.0108
      8 H1          0.4988    1.5825    3.2637 H         1 <0>         0.1230
      9 C8         -0.8842    2.0048    1.5797 C.3       1 <0>        -0.1340
     10 C9         -0.0906    1.5546    0.3348 C.3       1 <0>         0.1002
     11 H2          0.0480    0.4654    0.2673 H         1 <0>         0.1520
     12 C10         1.2251    2.2990    0.4131 C.ar      1 <0>        -0.1590
     13 C11         1.4140    2.7803    1.6954 C.ar      1 <0>        -0.0217
     14 C12         2.5586    3.4969    2.0009 C.ar      1 <0>        -0.0896
     15 C13         3.5116    3.7322    1.0289 C.ar      1 <0>        -0.0364
     16 C14         3.3228    3.2511   -0.2529 C.ar      1 <0>        -0.1702
     17 C15         2.1814    2.5358   -0.5597 C.ar      1 <0>        -0.0484
     18 C16         4.3612    3.5060   -1.3149 C.3       1 <0>         0.5081
     19 F1          4.0695    4.7050   -1.9740 F         1 <0>        -0.1709
     20 F2          5.6242    3.5963   -0.7199 F         1 <0>        -0.1677
     21 F3          4.3540    2.4535   -2.2364 F         1 <0>        -0.1743
     22 N1         -0.8113    1.9211   -0.8917 N.4       1 <0>        -0.4042
     23 C17        -1.0422    3.3711   -0.9535 C.3       1 <0>        -0.0090
     24 C18        -1.7226    3.7206   -2.2791 C.3       1 <0>         0.0284
     25 N2         -2.9895    2.9835   -2.3857 N.3       1 <0>        -0.5277
     26 C19        -2.7587    1.5335   -2.3238 C.3       1 <0>         0.0223
     27 C20        -2.0782    1.1840   -0.9982 C.3       1 <0>         0.0006
     28 C21        -3.7103    3.3500   -3.6121 C.3       1 <0>         0.0524
     29 C22        -5.1857    2.9711   -3.4691 C.3       1 <0>         0.0894
     30 O1         -5.7717    3.7295   -2.4091 O.3       1 <0>        -0.5930
     31 F4         -1.3659    6.7521    5.7346 F         1 <0>        -0.1308
     32 H3         -0.5659    4.8341    1.7395 H         1 <0>         0.1236
     33 H4         -1.2786    6.7405    3.1247 H         1 <0>         0.1401
     34 H5         -0.5954    4.4306    6.6491 H         1 <0>         0.1430
     35 H6          0.1060    2.5226    5.2602 H         1 <0>         0.1377
     36 H7         -1.4920    1.1976    2.0144 H         1 <0>         0.1178
     37 H8         -1.5214    2.8805    1.3871 H         1 <0>         0.1081
     38 H9          2.7070    3.8729    3.0024 H         1 <0>         0.1471
     39 H10         4.4035    4.2912    1.2705 H         1 <0>         0.1523
     40 H11         2.0344    2.1605   -1.5616 H         1 <0>         0.1375
     41 H12        -1.6885    3.6754   -0.1171 H         1 <0>         0.1380
     42 H13        -0.0796    3.8990   -0.8839 H         1 <0>         0.1335
     43 H14        -1.9221    4.8018   -2.3149 H         1 <0>         0.1236
     44 H15        -1.0635    3.4415   -3.1144 H         1 <0>         0.0594
     45 H16        -3.7213    1.0057   -2.3932 H         1 <0>         0.1233
     46 H17        -2.1125    1.2290   -3.1603 H         1 <0>         0.0603
     47 H18        -1.8777    0.1031   -0.9616 H         1 <0>         0.1379
     48 H19        -2.7363    1.4633   -0.1622 H         1 <0>         0.1382
     49 H20        -3.6245    4.4341   -3.7777 H         1 <0>         0.0941
     50 H21        -3.2750    2.8128   -4.4677 H         1 <0>         0.0635
     51 H22        -5.7128    3.1879   -4.4099 H         1 <0>         0.0537
     52 H23        -5.2683    1.8981   -3.2414 H         1 <0>         0.0406
     53 H24        -6.8335    3.5924   -2.1565 H         1 <0>         0.4145
     54 H25        -0.1818    1.6405   -1.7490 H         1 <0>         0.4372
@<TRIPOS>BOND
     1    1    6 ar
     2    1    2 ar
     3    1   32 1
     4    2    3 ar
     5    2   33 1
     6    3    4 ar
     7    3   31 1
     8    4    5 ar
     9    4   34 1
    10    5    6 ar
    11    5   35 1
    12    6    7 1
    13    7    8 1
    14    7   13 1
    15    7    9 1
    16    9   10 1
    17    9   36 1
    18    9   37 1
    19   10   11 1
    20   10   12 1
    21   10   22 1
    22   12   17 ar
    23   12   13 ar
    24   13   14 ar
    25   14   15 ar
    26   14   38 1
    27   15   16 ar
    28   15   39 1
    29   16   17 ar
    30   16   18 1
    31   17   40 1
    32   18   19 1
    33   18   20 1
    34   18   21 1
    35   22   27 1
    36   22   23 1
    37   22   54 1
    38   23   24 1
    39   23   41 1
    40   23   42 1
    41   24   25 1
    42   24   43 1
    43   24   44 1
    44   25   26 1
    45   25   28 1
    46   26   27 1
    47   26   45 1
    48   26   46 1
    49   27   47 1
    50   27   48 1
    51   28   29 1
    52   28   49 1
    53   28   50 1
    54   29   30 1
    55   29   51 1
    56   29   52 1
    57   30   53 1
@<TRIPOS>MOLECULE
ZINC22937855
   53    56     0     0     0
SMALL
USER_CHARGES
2-[4-[(1R,3R)-3-(4-fluorophenyl)-6-(trifluoromethyl)indan-1-yl]piperazin-1-yl]ethanol
@<TRIPOS>ATOM
      1 C1         -0.5753    4.7457    2.8158 C.ar      1 <0>        -0.0789
      2 C2         -0.9754    5.8159    3.5933 C.ar      1 <0>        -0.1497
      3 C3         -0.9811    5.7045    4.9734 C.ar      1 <0>         0.0990
      4 C4         -0.5917    4.5186    5.5727 C.ar      1 <0>        -0.1511
      5 C5         -0.1978    3.4477    4.7929 C.ar      1 <0>        -0.0844
      6 C6         -0.1921    3.5603    3.4151 C.ar      1 <0>        -0.0930
      7 C7          0.2381    2.3920    2.5660 C.3       1 <0>        -0.0116
      8 H1          0.4988    1.5825    3.2637 H         1 <0>         0.1049
      9 C8         -0.8842    2.0048    1.5797 C.3       1 <0>        -0.1437
     10 C9         -0.0906    1.5546    0.3348 C.3       1 <0>         0.1287
     11 H2          0.0480    0.4654    0.2673 H         1 <0>         0.1076
     12 C10         1.2251    2.2990    0.4131 C.ar      1 <0>        -0.0856
     13 C11         1.4140    2.7803    1.6954 C.ar      1 <0>        -0.0519
     14 C12         2.5586    3.4969    2.0009 C.ar      1 <0>        -0.1014
     15 C13         3.5116    3.7322    1.0289 C.ar      1 <0>        -0.0654
     16 C14         3.3228    3.2511   -0.2529 C.ar      1 <0>        -0.1841
     17 C15         2.1814    2.5358   -0.5597 C.ar      1 <0>        -0.0382
     18 C16         4.3612    3.5060   -1.3149 C.3       1 <0>         0.5095
     19 F1          4.0695    4.7050   -1.9740 F         1 <0>        -0.1762
     20 F2          5.6242    3.5963   -0.7199 F         1 <0>        -0.1767
     21 F3          4.3540    2.4535   -2.2364 F         1 <0>        -0.1760
     22 N1         -0.8113    1.9211   -0.8917 N.3       1 <0>        -0.5310
     23 C17        -1.0422    3.3711   -0.9535 C.3       1 <0>         0.0502
     24 C18        -1.7226    3.7206   -2.2791 C.3       1 <0>         0.0568
     25 N2         -2.9895    2.9835   -2.3857 N.3       1 <0>        -0.5277
     26 C19        -2.7587    1.5335   -2.3238 C.3       1 <0>         0.0542
     27 C20        -2.0782    1.1840   -0.9982 C.3       1 <0>         0.0562
     28 C21        -3.7103    3.3500   -3.6121 C.3       1 <0>         0.0526
     29 C22        -5.1857    2.9711   -3.4691 C.3       1 <0>         0.0924
     30 O1         -5.7717    3.7295   -2.4091 O.3       1 <0>        -0.5876
     31 F4         -1.3659    6.7521    5.7346 F         1 <0>        -0.1386
     32 H3         -0.5659    4.8341    1.7395 H         1 <0>         0.1288
     33 H4         -1.2786    6.7405    3.1247 H         1 <0>         0.1361
     34 H5         -0.5954    4.4306    6.6491 H         1 <0>         0.1368
     35 H6          0.1060    2.5226    5.2602 H         1 <0>         0.1338
     36 H7         -1.4920    1.1976    2.0144 H         1 <0>         0.0859
     37 H8         -1.5214    2.8805    1.3871 H         1 <0>         0.0908
     38 H9          2.7070    3.8729    3.0024 H         1 <0>         0.1324
     39 H10         4.4035    4.2912    1.2705 H         1 <0>         0.1381
     40 H11         2.0344    2.1605   -1.5616 H         1 <0>         0.1388
     41 H12        -1.6885    3.6754   -0.1171 H         1 <0>         0.0494
     42 H13        -0.0796    3.8990   -0.8839 H         1 <0>         0.0798
     43 H14        -1.9221    4.8018   -2.3149 H         1 <0>         0.0796
     44 H15        -1.0635    3.4415   -3.1144 H         1 <0>         0.0413
     45 H16        -3.7213    1.0057   -2.3932 H         1 <0>         0.0793
     46 H17        -2.1125    1.2290   -3.1603 H         1 <0>         0.0421
     47 H18        -1.8777    0.1031   -0.9616 H         1 <0>         0.0816
     48 H19        -2.7363    1.4633   -0.1622 H         1 <0>         0.0489
     49 H20        -3.6245    4.4341   -3.7777 H         1 <0>         0.0806
     50 H21        -3.2750    2.8128   -4.4677 H         1 <0>         0.0517
     51 H22        -5.7128    3.1879   -4.4099 H         1 <0>         0.0430
     52 H23        -5.2683    1.8981   -3.2414 H         1 <0>         0.0395
     53 H24        -6.8335    3.5924   -2.1565 H         1 <0>         0.4024
@<TRIPOS>BOND
     1    1    6 ar
     2    1    2 ar
     3    1   32 1
     4    2    3 ar
     5    2   33 1
     6    3    4 ar
     7    3   31 1
     8    4    5 ar
     9    4   34 1
    10    5    6 ar
    11    5   35 1
    12    6    7 1
    13    7    8 1
    14    7   13 1
    15    7    9 1
    16    9   10 1
    17    9   36 1
    18    9   37 1
    19   10   11 1
    20   10   12 1
    21   10   22 1
    22   12   17 ar
    23   12   13 ar
    24   13   14 ar
    25   14   15 ar
    26   14   38 1
    27   15   16 ar
    28   15   39 1
    29   16   17 ar
    30   16   18 1
    31   17   40 1
    32   18   19 1
    33   18   20 1
    34   18   21 1
    35   22   27 1
    36   22   23 1
    37   23   24 1
    38   23   41 1
    39   23   42 1
    40   24   25 1
    41   24   43 1
    42   24   44 1
    43   25   26 1
    44   25   28 1
    45   26   27 1
    46   26   45 1
    47   26   46 1
    48   27   47 1
    49   27   48 1
    50   28   29 1
    51   28   49 1
    52   28   50 1
    53   29   30 1
    54   29   51 1
    55   29   52 1
    56   30   53 1
@<TRIPOS>MOLECULE
ZINC22937858
   54    57     0     0     0
SMALL
USER_CHARGES
2-[4-[(1S,3R)-3-(4-fluorophenyl)-6-(trifluoromethyl)indan-1-yl]piperazin-1-yl]ethanol
@<TRIPOS>ATOM
      1 C1          0.1870    2.1606   -4.1297 C.ar      1 <0>        -0.0795
      2 C2          0.2538    2.3564   -5.4961 C.ar      1 <0>        -0.1490
      3 C3         -0.2299    3.5289   -6.0514 C.ar      1 <0>         0.1149
      4 C4         -0.7856    4.5014   -5.2374 C.ar      1 <0>        -0.1491
      5 C5         -0.8568    4.3008   -3.8720 C.ar      1 <0>        -0.0775
      6 C6         -0.3732    3.1299   -3.3186 C.ar      1 <0>        -0.1131
      7 C7         -0.4510    2.9126   -1.8294 C.3       1 <0>        -0.0235
      8 H1         -0.9211    3.8142   -1.4098 H         1 <0>         0.1155
      9 C8         -1.2333    1.6192   -1.5171 C.3       1 <0>        -0.1298
     10 C9         -0.5057    1.0861   -0.2646 C.3       1 <0>         0.0942
     11 H2         -0.5210   -0.0102   -0.1759 H         1 <0>         0.1435
     12 C10         0.9011    1.6367   -0.3592 C.ar      1 <0>        -0.1598
     13 C11         0.9325    2.6864   -1.2586 C.ar      1 <0>        -0.0272
     14 C12         2.1241    3.3465   -1.5059 C.ar      1 <0>        -0.0931
     15 C13         3.2809    2.9595   -0.8574 C.ar      1 <0>        -0.0344
     16 C14         3.2495    1.9103    0.0417 C.ar      1 <0>        -0.1744
     17 C15         2.0615    1.2503    0.2898 C.ar      1 <0>        -0.0337
     18 C16         4.5101    1.4860    0.7500 C.3       1 <0>         0.5081
     19 F1          5.5728    2.2966    0.3365 F         1 <0>        -0.1688
     20 F2          4.3349    1.6159    2.1319 F         1 <0>        -0.1732
     21 F3          4.7931    0.1516    0.4392 F         1 <0>        -0.1699
     22 N1         -1.1630    1.5739    0.9553 N.4       1 <0>        -0.4004
     23 C17        -0.3115    1.3599    2.1338 C.3       1 <0>        -0.0057
     24 C18        -0.9958    1.9516    3.3684 C.3       1 <0>         0.0223
     25 N2         -2.3089    1.3170    3.5488 N.3       1 <0>        -0.5323
     26 C19        -3.1604    1.5310    2.3703 C.3       1 <0>         0.0202
     27 C20        -2.4762    0.9393    1.1357 C.3       1 <0>        -0.0030
     28 C21        -2.9662    1.8047    4.7686 C.3       1 <0>         0.0524
     29 C22        -2.8880    3.3321    4.8143 C.3       1 <0>         0.0399
     30 O1         -3.6742    3.8812    3.7549 O.3       1 <0>        -0.6058
     31 F4         -0.1593    3.7241   -7.3864 F         1 <0>        -0.1308
     32 H3          0.5688    1.2483   -3.6958 H         1 <0>         0.1305
     33 H4          0.6877    1.5973   -6.1301 H         1 <0>         0.1410
     34 H5         -1.1635    5.4163   -5.6695 H         1 <0>         0.1423
     35 H6         -1.2902    5.0592   -3.2368 H         1 <0>         0.1353
     36 H7         -2.2882    1.8658   -1.3265 H         1 <0>         0.1102
     37 H8         -1.1662    0.9339   -2.3749 H         1 <0>         0.1272
     38 H9          2.1494    4.1665   -2.2084 H         1 <0>         0.1465
     39 H10         4.2088    3.4765   -1.0525 H         1 <0>         0.1548
     40 H11         2.0377    0.4305    0.9924 H         1 <0>         0.1427
     41 H12        -0.1547    0.2812    2.2818 H         1 <0>         0.1355
     42 H13         0.6592    1.8537    1.9794 H         1 <0>         0.1332
     43 H14        -0.3733    1.7672    4.2564 H         1 <0>         0.1213
     44 H15        -1.1269    3.0351    3.2311 H         1 <0>         0.0655
     45 H16        -4.1311    1.0372    2.5248 H         1 <0>         0.1189
     46 H17        -3.3172    2.6096    2.2222 H         1 <0>         0.0900
     47 H18        -3.0977    1.1238    0.2471 H         1 <0>         0.1355
     48 H19        -2.3442   -0.1442    1.2723 H         1 <0>         0.1342
     49 H20        -4.0206    1.4914    4.7672 H         1 <0>         0.0958
     50 H21        -2.4602    1.3851    5.6506 H         1 <0>         0.1063
     51 H22        -3.2732    3.6902    5.7804 H         1 <0>         0.0589
     52 H23        -1.8413    3.6494    4.6966 H         1 <0>         0.0486
     53 H24        -3.7399    4.9718    3.6270 H         1 <0>         0.4159
     54 H25        -1.3215    2.6566    0.8427 H         1 <0>         0.4327
@<TRIPOS>BOND
     1    1    6 ar
     2    1    2 ar
     3    1   32 1
     4    2    3 ar
     5    2   33 1
     6    3    4 ar
     7    3   31 1
     8    4    5 ar
     9    4   34 1
    10    5    6 ar
    11    5   35 1
    12    6    7 1
    13    7    8 1
    14    7   13 1
    15    7    9 1
    16    9   10 1
    17    9   36 1
    18    9   37 1
    19   10   11 1
    20   10   12 1
    21   10   22 1
    22   12   17 ar
    23   12   13 ar
    24   13   14 ar
    25   14   15 ar
    26   14   38 1
    27   15   16 ar
    28   15   39 1
    29   16   17 ar
    30   16   18 1
    31   17   40 1
    32   18   19 1
    33   18   20 1
    34   18   21 1
    35   22   27 1
    36   22   23 1
    37   22   54 1
    38   23   24 1
    39   23   41 1
    40   23   42 1
    41   24   25 1
    42   24   43 1
    43   24   44 1
    44   25   26 1
    45   25   28 1
    46   26   27 1
    47   26   45 1
    48   26   46 1
    49   27   47 1
    50   27   48 1
    51   28   29 1
    52   28   49 1
    53   28   50 1
    54   29   30 1
    55   29   51 1
    56   29   52 1
    57   30   53 1
@<TRIPOS>MOLECULE
ZINC22937858
   53    56     0     0     0
SMALL
USER_CHARGES
2-[4-[(1S,3R)-3-(4-fluorophenyl)-6-(trifluoromethyl)indan-1-yl]piperazin-1-yl]ethanol
@<TRIPOS>ATOM
      1 C1          0.1870    2.1606   -4.1297 C.ar      1 <0>        -0.0805
      2 C2          0.2538    2.3564   -5.4961 C.ar      1 <0>        -0.1508
      3 C3         -0.2299    3.5289   -6.0514 C.ar      1 <0>         0.0980
      4 C4         -0.7856    4.5014   -5.2374 C.ar      1 <0>        -0.1513
      5 C5         -0.8568    4.3008   -3.8720 C.ar      1 <0>        -0.0832
      6 C6         -0.3732    3.1299   -3.3186 C.ar      1 <0>        -0.0937
      7 C7         -0.4510    2.9126   -1.8294 C.3       1 <0>        -0.0059
      8 H1         -0.9211    3.8142   -1.4098 H         1 <0>         0.1065
      9 C8         -1.2333    1.6192   -1.5171 C.3       1 <0>        -0.1003
     10 C9         -0.5057    1.0861   -0.2646 C.3       1 <0>         0.1287
     11 H2         -0.5210   -0.0102   -0.1759 H         1 <0>         0.0592
     12 C10         0.9011    1.6367   -0.3592 C.ar      1 <0>        -0.0889
     13 C11         0.9325    2.6864   -1.2586 C.ar      1 <0>        -0.0357
     14 C12         2.1241    3.3465   -1.5059 C.ar      1 <0>        -0.1024
     15 C13         3.2809    2.9595   -0.8574 C.ar      1 <0>        -0.0653
     16 C14         3.2495    1.9103    0.0417 C.ar      1 <0>        -0.1831
     17 C15         2.0615    1.2503    0.2898 C.ar      1 <0>        -0.0510
     18 C16         4.5101    1.4860    0.7500 C.3       1 <0>         0.5095
     19 F1          5.5728    2.2966    0.3365 F         1 <0>        -0.1761
     20 F2          4.3349    1.6159    2.1319 F         1 <0>        -0.1760
     21 F3          4.7931    0.1516    0.4392 F         1 <0>        -0.1760
     22 N1         -1.1630    1.5739    0.9553 N.3       1 <0>        -0.5316
     23 C17        -0.3115    1.3599    2.1338 C.3       1 <0>         0.0525
     24 C18        -0.9958    1.9516    3.3684 C.3       1 <0>         0.0535
     25 N2         -2.3089    1.3170    3.5488 N.3       1 <0>        -0.5346
     26 C19        -3.1604    1.5310    2.3703 C.3       1 <0>         0.0518
     27 C20        -2.4762    0.9393    1.1357 C.3       1 <0>         0.0551
     28 C21        -2.9662    1.8047    4.7686 C.3       1 <0>         0.0533
     29 C22        -2.8880    3.3321    4.8143 C.3       1 <0>         0.0447
     30 O1         -3.6742    3.8812    3.7549 O.3       1 <0>        -0.5935
     31 F4         -0.1593    3.7241   -7.3864 F         1 <0>        -0.1392
     32 H3          0.5688    1.2483   -3.6958 H         1 <0>         0.1307
     33 H4          0.6877    1.5973   -6.1301 H         1 <0>         0.1356
     34 H5         -1.1635    5.4163   -5.6695 H         1 <0>         0.1364
     35 H6         -1.2902    5.0592   -3.2368 H         1 <0>         0.1339
     36 H7         -2.2882    1.8658   -1.3265 H         1 <0>         0.0916
     37 H8         -1.1662    0.9339   -2.3749 H         1 <0>         0.0847
     38 H9          2.1494    4.1665   -2.2084 H         1 <0>         0.1333
     39 H10         4.2088    3.4765   -1.0525 H         1 <0>         0.1413
     40 H11         2.0377    0.4305    0.9924 H         1 <0>         0.1308
     41 H12        -0.1547    0.2812    2.2818 H         1 <0>         0.0413
     42 H13         0.6592    1.8537    1.9794 H         1 <0>         0.0830
     43 H14        -0.3733    1.7672    4.2564 H         1 <0>         0.0762
     44 H15        -1.1269    3.0351    3.2311 H         1 <0>         0.0499
     45 H16        -4.1311    1.0372    2.5248 H         1 <0>         0.0733
     46 H17        -3.3172    2.6096    2.2222 H         1 <0>         0.0758
     47 H18        -3.0977    1.1238    0.2471 H         1 <0>         0.0817
     48 H19        -2.3442   -0.1442    1.2723 H         1 <0>         0.0402
     49 H20        -4.0206    1.4914    4.7672 H         1 <0>         0.0815
     50 H21        -2.4602    1.3851    5.6506 H         1 <0>         0.0909
     51 H22        -3.2732    3.6902    5.7804 H         1 <0>         0.0433
     52 H23        -1.8413    3.6494    4.6966 H         1 <0>         0.0477
     53 H24        -3.7399    4.9718    3.6270 H         1 <0>         0.4030
@<TRIPOS>BOND
     1    1    6 ar
     2    1    2 ar
     3    1   32 1
     4    2    3 ar
     5    2   33 1
     6    3    4 ar
     7    3   31 1
     8    4    5 ar
     9    4   34 1
    10    5    6 ar
    11    5   35 1
    12    6    7 1
    13    7    8 1
    14    7   13 1
    15    7    9 1
    16    9   10 1
    17    9   36 1
    18    9   37 1
    19   10   11 1
    20   10   12 1
    21   10   22 1
    22   12   17 ar
    23   12   13 ar
    24   13   14 ar
    25   14   15 ar
    26   14   38 1
    27   15   16 ar
    28   15   39 1
    29   16   17 ar
    30   16   18 1
    31   17   40 1
    32   18   19 1
    33   18   20 1
    34   18   21 1
    35   22   27 1
    36   22   23 1
    37   23   24 1
    38   23   41 1
    39   23   42 1
    40   24   25 1
    41   24   43 1
    42   24   44 1
    43   25   26 1
    44   25   28 1
    45   26   27 1
    46   26   45 1
    47   26   46 1
    48   27   47 1
    49   27   48 1
    50   28   29 1
    51   28   49 1
    52   28   50 1
    53   29   30 1
    54   29   51 1
    55   29   52 1
    56   30   53 1
@<TRIPOS>MOLECULE
ZINC03786466
   49    52     0     0     0
SMALL
USER_CHARGES

@<TRIPOS>ATOM
      1 C1         -0.0187    1.5258    0.0104 C.3       1 <0>        -0.1558
      2 C2          0.0021   -0.0041    0.0020 C.3       1 <0>        -0.1498
      3 C3          0.7421   -0.5109    1.2415 C.3       1 <0>        -0.0188
      4 N1          0.7620   -1.9797    1.2335 N.4       1 <0>        -0.3806
      5 C4         -0.6101   -2.4861    1.3521 C.3       1 <0>        -0.0057
      6 C5         -0.6004   -4.0136    1.2571 C.3       1 <0>        -0.0898
      7 H1         -0.1781   -4.3164    0.2989 H         1 <0>         0.1056
      8 C6          0.2521   -4.5820    2.3946 C.3       1 <0>        -0.1280
      9 C7          1.6621   -3.9884    2.3134 C.3       1 <0>        -0.0374
     10 H2          2.1261   -4.2935    1.3755 H         1 <0>         0.1035
     11 C8          1.5740   -2.4625    2.3580 C.3       1 <0>         0.0403
     12 H3          1.0792   -2.1743    3.2855 H         1 <0>         0.1338
     13 C9          2.9415   -1.7644    2.3169 C.3       1 <0>        -0.0487
     14 C10         3.7806   -2.3188    3.4398 C.2       1 <0>        -0.2002
     15 C11         4.7972   -1.8861    4.1694 C.2       1 <0>         0.0906
     16 N2          5.1731   -2.8522    5.0907 N.pl3     1 <0>        -0.5885
     17 H4          5.8954   -2.7557    5.7308 H         1 <0>         0.4238
     18 C12         4.3837   -3.9557    4.9695 C.ar      1 <0>         0.1146
     19 C13         3.4898   -3.6653    3.9323 C.ar      1 <0>        -0.1355
     20 C14         2.4854   -4.4951    3.4586 C.ar      1 <0>        -0.0472
     21 C15         2.3923   -5.6916    4.0965 C.ar      1 <0>        -0.1170
     22 C16         3.2547   -5.9991    5.1479 C.ar      1 <0>        -0.0959
     23 C17         4.2659   -5.2011    5.5842 C.ar      1 <0>        -0.1047
     24 C18        -2.0313   -4.5424    1.3751 C.3       1 <0>        -0.0921
     25 S1         -2.0359   -6.3376    1.1149 S.3       1 <0>        -0.2398
     26 C19        -3.7814   -6.8013    1.2853 C.3       1 <0>        -0.1232
     27 H5          1.0039    1.9031    0.0027 H         1 <0>         0.0674
     28 H6         -0.5459    1.8868   -0.8726 H         1 <0>         0.0771
     29 H7         -0.5289    1.8773    0.9072 H         1 <0>         0.0665
     30 H8         -1.0205   -0.3814    0.0098 H         1 <0>         0.0853
     31 H9          0.5123   -0.3556   -0.8948 H         1 <0>         0.0868
     32 H10         1.7647   -0.1336    1.2338 H         1 <0>         0.1371
     33 H11         0.2319   -0.1594    2.1383 H         1 <0>         0.1304
     34 H12        -1.0268   -2.1845    2.3131 H         1 <0>         0.1316
     35 H13        -1.2196   -2.0759    0.5469 H         1 <0>         0.1362
     36 H14        -0.1981   -4.3211    3.3524 H         1 <0>         0.0877
     37 H15         0.3078   -5.6666    2.3010 H         1 <0>         0.1093
     38 H16         3.4275   -1.9619    1.3614 H         1 <0>         0.0928
     39 H17         2.8112   -0.6904    2.4498 H         1 <0>         0.0980
     40 H18         5.2667   -0.9194    4.0622 H         1 <0>         0.1734
     41 H19         1.6457   -6.4082    3.7873 H         1 <0>         0.1269
     42 H20         3.1443   -6.9607    5.6271 H         1 <0>         0.1259
     43 H21         4.9178   -5.4969    6.3928 H         1 <0>         0.1359
     44 H22        -2.4207   -4.3182    2.3682 H         1 <0>         0.0922
     45 H23        -2.6585   -4.0646    0.6225 H         1 <0>         0.0926
     46 H24        -4.3718   -6.2760    0.5346 H         1 <0>         0.0810
     47 H25        -3.8871   -7.8768    1.1435 H         1 <0>         0.1099
     48 H26        -4.1340   -6.5296    2.2803 H         1 <0>         0.0813
     49 H27         1.1636   -2.3045    0.3667 H         1 <0>         0.4212
@<TRIPOS>BOND
     1    1    2 1
     2    1   27 1
     3    1   28 1
     4    1   29 1
     5    2    3 1
     6    2   30 1
     7    2   31 1
     8    3    4 1
     9    3   32 1
    10    3   33 1
    11    4   11 1
    12    4    5 1
    13    4   49 1
    14    5    6 1
    15    5   34 1
    16    5   35 1
    17    6    7 1
    18    6    8 1
    19    6   24 1
    20    8    9 1
    21    8   36 1
    22    8   37 1
    23    9   10 1
    24    9   20 1
    25    9   11 1
    26   11   12 1
    27   11   13 1
    28   13   14 1
    29   13   38 1
    30   13   39 1
    31   14   19 1
    32   14   15 2
    33   15   16 1
    34   15   40 1
    35   16   17 1
    36   16   18 1
    37   18   23 ar
    38   18   19 ar
    39   19   20 ar
    40   20   21 ar
    41   21   22 ar
    42   21   41 1
    43   22   23 ar
    44   22   42 1
    45   23   43 1
    46   24   25 1
    47   24   44 1
    48   24   45 1
    49   25   26 1
    50   26   46 1
    51   26   47 1
    52   26   48 1
@<TRIPOS>MOLECULE
ZINC53064442
   59    62     0     0     0
SMALL
USER_CHARGES

@<TRIPOS>ATOM
      1 C1         -0.0173    1.4248    0.0099 C.3       1 <0>         0.0252
      2 O1          0.0021   -0.0041    0.0020 O.3       1 <0>        -0.3038
      3 C2          0.6063   -0.6076   -1.0566 C.ar      1 <0>         0.1200
      4 C3          1.1727    0.1584   -2.0619 C.ar      1 <0>        -0.2067
      5 C4          1.7862   -0.4565   -3.1379 C.ar      1 <0>        -0.0837
      6 C5          1.8369   -1.8361   -3.2138 C.ar      1 <0>        -0.1522
      7 C6          1.2745   -2.6077   -2.2144 C.ar      1 <0>        -0.0880
      8 C7          0.6620   -1.9977   -1.1294 C.ar      1 <0>         0.1392
      9 N1          0.0968   -2.7768   -0.1132 N.pl3     1 <0>        -0.6682
     10 C8         -1.3056   -3.2137   -0.1884 C.3       1 <0>         0.1543
     11 C9         -1.3570   -4.7276    0.0431 C.3       1 <0>         0.0432
     12 N2         -0.6724   -5.0507    1.3020 N.3       1 <0>        -0.5286
     13 C10         0.7517   -4.6956    1.2405 C.3       1 <0>         0.0373
     14 C11         0.8913   -3.1855    1.0551 C.3       1 <0>         0.1540
     15 C12        -0.8472   -6.4678    1.6476 C.3       1 <0>         0.0496
     16 C13        -0.3417   -6.7116    3.0710 C.3       1 <0>         0.0947
     17 N3         -0.5160   -8.1248    3.4157 N.am      1 <0>        -0.5648
     18 C14        -1.6686   -8.5092    3.9834 C.2       1 <0>         0.5224
     19 O2         -2.5368   -7.6868    4.1818 O.2       1 <0>        -0.4928
     20 C15        -1.9055   -9.9436    4.3791 C.3       1 <0>        -0.1313
     21 C16        -1.0927  -10.8580    3.4640 C.3       1 <0>        -0.0666
     22 C17        -1.2370  -12.3190    3.9117 C.3       1 <0>        -0.1127
     23 C18        -1.8643  -13.0802    2.7242 C.3       1 <0>        -0.1253
     24 C19        -1.5011  -12.2210    1.4873 C.3       1 <0>        -0.1236
     25 C20        -1.6310  -10.7733    2.0249 C.3       1 <0>        -0.1241
     26 C21         0.3768  -10.4406    3.4955 C.3       1 <0>        -0.1304
     27 C22         0.4818   -8.9790    3.1448 C.2       1 <0>         0.5233
     28 O3          1.4894   -8.5664    2.6118 O.2       1 <0>        -0.4984
     29 H1          1.0053    1.8021    0.0021 H         1 <0>         0.0536
     30 H2         -0.5445    1.7859   -0.8732 H         1 <0>         0.0536
     31 H3         -0.5275    1.7763    0.9067 H         1 <0>         0.0992
     32 H4          1.1348    1.2363   -2.0057 H         1 <0>         0.1276
     33 H5          2.2267    0.1425   -3.9212 H         1 <0>         0.1244
     34 H6          2.3168   -2.3119   -4.0562 H         1 <0>         0.1237
     35 H7          1.3151   -3.6852   -2.2764 H         1 <0>         0.1250
     36 H8         -1.8890   -2.7058    0.5796 H         1 <0>         0.0594
     37 H9         -1.7097   -2.9800   -1.1734 H         1 <0>         0.0701
     38 H10        -2.3961   -5.0517    0.1006 H         1 <0>         0.0801
     39 H11        -0.8612   -5.2388   -0.7821 H         1 <0>         0.0352
     40 H12         1.2419   -4.9966    2.1663 H         1 <0>         0.0816
     41 H13         1.2181   -5.2073    0.3986 H         1 <0>         0.0367
     42 H14         1.9390   -2.9332    0.8918 H         1 <0>         0.0699
     43 H15         0.5231   -2.6749    1.9450 H         1 <0>         0.0584
     44 H16        -1.9037   -6.7288    1.5875 H         1 <0>         0.0781
     45 H17        -0.2804   -7.0845    0.9501 H         1 <0>         0.0366
     46 H18         0.7149   -6.4507    3.1310 H         1 <0>         0.0953
     47 H19        -0.9085   -6.0950    3.7685 H         1 <0>         0.1048
     48 H20        -1.5937  -10.0924    5.4129 H         1 <0>         0.1126
     49 H21        -2.9654  -10.1783    4.2802 H         1 <0>         0.1162
     50 H22        -0.2581  -12.7361    4.1480 H         1 <0>         0.0750
     51 H23        -1.8902  -12.3805    4.7822 H         1 <0>         0.0752
     52 H24        -1.4301  -14.0763    2.6375 H         1 <0>         0.0698
     53 H25        -2.9462  -13.1434    2.8404 H         1 <0>         0.0689
     54 H26        -0.4799  -12.4224    1.1636 H         1 <0>         0.0695
     55 H27        -2.2064  -12.3960    0.6750 H         1 <0>         0.0702
     56 H28        -2.6746  -10.4585    2.0255 H         1 <0>         0.0752
     57 H29        -1.0253  -10.0894    1.4303 H         1 <0>         0.0639
     58 H30         0.7821  -10.6095    4.4932 H         1 <0>         0.1130
     59 H31         0.9381  -11.0285    2.7693 H         1 <0>         0.1151
@<TRIPOS>BOND
     1    1    2 1
     2    1   29 1
     3    1   30 1
     4    1   31 1
     5    2    3 1
     6    3    8 ar
     7    3    4 ar
     8    4    5 ar
     9    4   32 1
    10    5    6 ar
    11    5   33 1
    12    6    7 ar
    13    6   34 1
    14    7    8 ar
    15    7   35 1
    16    8    9 1
    17    9   14 1
    18    9   10 1
    19   10   11 1
    20   10   36 1
    21   10   37 1
    22   11   12 1
    23   11   38 1
    24   11   39 1
    25   12   13 1
    26   12   15 1
    27   13   14 1
    28   13   40 1
    29   13   41 1
    30   14   42 1
    31   14   43 1
    32   15   16 1
    33   15   44 1
    34   15   45 1
    35   16   17 1
    36   16   46 1
    37   16   47 1
    38   17   27 am
    39   17   18 am
    40   18   19 2
    41   18   20 1
    42   20   21 1
    43   20   48 1
    44   20   49 1
    45   21   25 1
    46   21   22 1
    47   21   26 1
    48   22   23 1
    49   22   50 1
    50   22   51 1
    51   23   24 1
    52   23   52 1
    53   23   53 1
    54   24   25 1
    55   24   54 1
    56   24   55 1
    57   25   56 1
    58   25   57 1
    59   26   27 1
    60   26   58 1
    61   26   59 1
    62   27   28 2
@<TRIPOS>MOLECULE
ZINC19796084
   64    68     0     0     0
SMALL
USER_CHARGES

@<TRIPOS>ATOM
      1 C1         -0.2663   -0.3620    5.4641 C.ar      1 <0>        -0.0986
      2 C2          0.6994    0.5149    5.0004 C.ar      1 <0>        -0.1026
      3 C3          1.8638    0.0332    4.4352 C.ar      1 <0>        -0.1044
      4 C4          2.0664   -1.3346    4.3318 C.ar      1 <0>         0.0788
      5 C5          1.0924   -2.2191    4.7995 C.ar      1 <0>         0.0916
      6 C6         -0.0735   -1.7260    5.3654 C.ar      1 <0>        -0.0998
      7 N1          1.5706   -3.5059    4.5639 N.am      1 <0>        -0.6391
      8 H1          1.1107   -4.3313    4.7830 H         1 <0>         0.4399
      9 C7          2.7798   -3.4086    3.9799 C.2       1 <0>         0.6857
     10 O1          3.4724   -4.3503    3.6415 O.2       1 <0>        -0.5583
     11 N2          3.1062   -2.1115    3.8266 N.am      1 <0>        -0.5378
     12 C8          4.3442   -1.6036    3.2301 C.3       1 <0>         0.1610
     13 C9          4.4622   -2.1072    1.7886 C.3       1 <0>        -0.1674
     14 C10         5.7941   -1.6393    1.1981 C.3       1 <0>         0.0018
     15 N3          6.9027   -2.1747    1.9974 N.4       1 <0>        -0.3868
     16 C11         6.8368   -1.6390    3.3624 C.3       1 <0>        -0.0033
     17 C12         5.5451   -2.1068    4.0361 C.3       1 <0>        -0.1667
     18 C13         8.1794   -1.7878    1.3822 C.3       1 <0>        -0.0099
     19 C14         9.3321   -2.4478    2.1415 C.3       1 <0>        -0.1521
     20 C15        10.6618   -2.0449    1.5008 C.3       1 <0>        -0.1087
     21 C16        11.8145   -2.7048    2.2601 C.3       1 <0>         0.0020
     22 C17        11.7312   -4.2008    2.0984 C.ar      1 <0>        -0.0960
     23 C18        11.6406   -4.7550    0.8351 C.ar      1 <0>        -0.0887
     24 C19        11.5647   -6.1268    0.6856 C.ar      1 <0>        -0.1502
     25 C20        11.5793   -6.9462    1.8016 C.ar      1 <0>         0.1040
     26 C21        11.6701   -6.3900    3.0664 C.ar      1 <0>        -0.1491
     27 C22        11.7512   -5.0182    3.2131 C.ar      1 <0>        -0.0845
     28 F1         11.5046   -8.2873    1.6567 F         1 <0>        -0.1345
     29 C23        13.1272   -2.2122    1.7076 C.ar      1 <0>        -0.0972
     30 C24        13.3682   -2.2667    0.3474 C.ar      1 <0>        -0.0865
     31 C25        14.5714   -1.8148   -0.1604 C.ar      1 <0>        -0.1502
     32 C26        15.5358   -1.3073    0.6937 C.ar      1 <0>         0.1057
     33 C27        15.2933   -1.2531    2.0559 C.ar      1 <0>        -0.1489
     34 C28        14.0872   -1.7008    2.5608 C.ar      1 <0>        -0.0812
     35 F2         16.7126   -0.8656    0.1985 F         1 <0>        -0.1344
     36 H2         -1.1724    0.0221    5.9090 H         1 <0>         0.1403
     37 H3          0.5414    1.5802    5.0807 H         1 <0>         0.1389
     38 H4          2.6148    0.7203    4.0743 H         1 <0>         0.1287
     39 H5         -0.8291   -2.4070    5.7282 H         1 <0>         0.1370
     40 H6          4.3316   -0.5137    3.2367 H         1 <0>         0.1148
     41 H7          4.4224   -3.1964    1.7792 H         1 <0>         0.1076
     42 H8          3.6403   -1.7072    1.1949 H         1 <0>         0.1178
     43 H9          5.8813   -1.9960    0.1718 H         1 <0>         0.1377
     44 H10         5.8327   -0.5501    1.2078 H         1 <0>         0.1327
     45 H11         7.6939   -1.9955    3.9338 H         1 <0>         0.1389
     46 H12         6.8532   -0.5498    3.3259 H         1 <0>         0.1330
     47 H13         5.4972   -1.7066    5.0489 H         1 <0>         0.1174
     48 H14         5.5278   -3.1961    4.0734 H         1 <0>         0.1073
     49 H15         8.1953   -2.1141    0.3423 H         1 <0>         0.1326
     50 H16         8.2896   -0.7042    1.4247 H         1 <0>         0.1320
     51 H17         9.3162   -2.1215    3.1814 H         1 <0>         0.0898
     52 H18         9.2220   -3.5314    2.0990 H         1 <0>         0.0914
     53 H19        10.6777   -2.3712    0.4609 H         1 <0>         0.0799
     54 H20        10.7720   -0.9613    1.5433 H         1 <0>         0.0841
     55 H21        11.7465   -2.4493    3.3175 H         1 <0>         0.0944
     56 H22        11.6289   -4.1157   -0.0352 H         1 <0>         0.1319
     57 H23        11.4935   -6.5595   -0.3014 H         1 <0>         0.1380
     58 H24        11.6812   -7.0281    3.9376 H         1 <0>         0.1387
     59 H25        11.8265   -4.5844    4.1993 H         1 <0>         0.1333
     60 H26        12.6160   -2.6630   -0.3186 H         1 <0>         0.1302
     61 H27        14.7596   -1.8579   -1.2230 H         1 <0>         0.1383
     62 H28        16.0449   -0.8577    2.7231 H         1 <0>         0.1395
     63 H29        13.8961   -1.6545    3.6228 H         1 <0>         0.1335
     64 H30         6.8381   -3.1812    2.0286 H         1 <0>         0.4267
@<TRIPOS>BOND
     1    1    6 ar
     2    1    2 ar
     3    1   36 1
     4    2    3 ar
     5    2   37 1
     6    3    4 ar
     7    3   38 1
     8    4   11 1
     9    4    5 ar
    10    5    6 ar
    11    5    7 1
    12    6   39 1
    13    7    8 1
    14    7    9 am
    15    9   10 2
    16    9   11 am
    17   11   12 1
    18   12   17 1
    19   12   13 1
    20   12   40 1
    21   13   14 1
    22   13   41 1
    23   13   42 1
    24   14   15 1
    25   14   43 1
    26   14   44 1
    27   15   16 1
    28   15   18 1
    29   15   64 1
    30   16   17 1
    31   16   45 1
    32   16   46 1
    33   17   47 1
    34   17   48 1
    35   18   19 1
    36   18   49 1
    37   18   50 1
    38   19   20 1
    39   19   51 1
    40   19   52 1
    41   20   21 1
    42   20   53 1
    43   20   54 1
    44   21   22 1
    45   21   29 1
    46   21   55 1
    47   22   27 ar
    48   22   23 ar
    49   23   24 ar
    50   23   56 1
    51   24   25 ar
    52   24   57 1
    53   25   26 ar
    54   25   28 1
    55   26   27 ar
    56   26   58 1
    57   27   59 1
    58   29   34 ar
    59   29   30 ar
    60   30   31 ar
    61   30   60 1
    62   31   32 ar
    63   31   61 1
    64   32   33 ar
    65   32   35 1
    66   33   34 ar
    67   33   62 1
    68   34   63 1
@<TRIPOS>MOLECULE
ZINC03860825
   53    57     0     0     0
SMALL
USER_CHARGES

@<TRIPOS>ATOM
      1 C1         -0.0173    1.4248    0.0099 C.3       1 <0>         0.0327
      2 O1          0.0021   -0.0041    0.0020 O.3       1 <0>        -0.3479
      3 C2          0.5984   -0.5997   -1.0427 C.2       1 <0>         0.4737
      4 O2          1.0877    0.0699   -1.9214 O.2       1 <0>        -0.5039
      5 C3          0.6575   -2.1036   -1.1196 C.3       1 <0>        -0.0650
      6 H1          1.1947   -2.4917   -0.2542 H         1 <0>         0.1260
      7 C4         -0.7643   -2.6714   -1.1364 C.3       1 <0>         0.1104
      8 H2         -1.2823   -2.3789   -0.2230 H         1 <0>         0.0803
      9 C5         -0.7098   -4.1973   -1.2238 C.3       1 <0>        -0.1531
     10 C6          0.0283   -4.6160   -2.4980 C.3       1 <0>        -0.1090
     11 C7          1.4478   -4.0496   -2.4652 C.3       1 <0>        -0.1066
     12 H3          1.9678   -4.4265   -1.5844 H         1 <0>         0.0984
     13 C8          1.3811   -2.5214   -2.3995 C.3       1 <0>        -0.0762
     14 H4          0.8340   -2.1460   -3.2643 H         1 <0>         0.1112
     15 C9          2.8021   -1.9525   -2.4146 C.3       1 <0>        -0.1520
     16 C10         3.5142   -2.4494   -3.6743 C.3       1 <0>         0.1158
     17 H5          2.9655   -2.1183   -4.5560 H         1 <0>         0.1480
     18 C11         4.9207   -1.9091   -3.7260 C.2       1 <0>         0.0226
     19 C12         5.9775   -2.6629   -4.1115 C.2       1 <0>        -0.1599
     20 C13         7.1508   -1.8219   -4.0411 C.ar      1 <0>        -0.1001
     21 C14         8.5026   -2.0504   -4.3178 C.ar      1 <0>        -0.0652
     22 C15         9.3608   -0.9941   -4.1376 C.ar      1 <0>        -0.1357
     23 C16         8.9212    0.2451   -3.7015 C.ar      1 <0>        -0.0818
     24 C17         7.5903    0.4991   -3.4190 C.ar      1 <0>        -0.1277
     25 C18         6.6952   -0.5542   -3.5938 C.ar      1 <0>         0.1109
     26 N1          5.3444   -0.6471   -3.4127 N.pl3     1 <0>        -0.5612
     27 H6          4.7717    0.0739   -3.1078 H         1 <0>         0.4234
     28 C19         5.8580   -4.1083   -4.5249 C.3       1 <0>        -0.0677
     29 C20         4.3745   -4.4075   -4.7852 C.3       1 <0>        -0.0061
     30 N2          3.5745   -3.9171   -3.6582 N.4       1 <0>        -0.3774
     31 C21         2.2119   -4.4657   -3.7230 C.3       1 <0>         0.0006
     32 O3         -1.4686   -2.1563   -2.2680 O.3       1 <0>        -0.5638
     33 H7          1.0053    1.8021    0.0021 H         1 <0>         0.0628
     34 H8         -0.5445    1.7859   -0.8732 H         1 <0>         0.0656
     35 H9         -0.5275    1.7763    0.9067 H         1 <0>         0.1087
     36 H10        -0.1842   -4.5917   -0.3542 H         1 <0>         0.0829
     37 H11        -1.7242   -4.5957   -1.2448 H         1 <0>         0.0871
     38 H12         0.0713   -5.7038   -2.5532 H         1 <0>         0.0818
     39 H13        -0.4991   -4.2269   -3.3690 H         1 <0>         0.0847
     40 H14         2.7600   -0.8634   -2.4237 H         1 <0>         0.1318
     41 H15         3.3419   -2.2929   -1.5309 H         1 <0>         0.0903
     42 H16         8.8550   -3.0132   -4.6571 H         1 <0>         0.1348
     43 H17        10.4120   -1.1338   -4.3420 H         1 <0>         0.1279
     44 H18         9.6417    1.0401   -3.5774 H         1 <0>         0.1311
     45 H19         7.2605    1.4697   -3.0791 H         1 <0>         0.1352
     46 H20         6.4334   -4.2800   -5.4346 H         1 <0>         0.1209
     47 H21         6.2289   -4.7515   -3.7269 H         1 <0>         0.0998
     48 H22         4.0584   -3.9085   -5.7013 H         1 <0>         0.1319
     49 H23         4.2337   -5.4833   -4.8902 H         1 <0>         0.1399
     50 H24         2.2638   -5.5532   -3.7749 H         1 <0>         0.1399
     51 H25         1.6991   -4.0815   -4.6048 H         1 <0>         0.1347
     52 H26        -2.3787   -2.4743   -2.3430 H         1 <0>         0.3915
     53 H27         4.0031   -4.2176   -2.7956 H         1 <0>         0.4231
@<TRIPOS>BOND
     1    1    2 1
     2    1   33 1
     3    1   34 1
     4    1   35 1
     5    2    3 1
     6    3    4 2
     7    3    5 1
     8    5    6 1
     9    5   13 1
    10    5    7 1
    11    7    8 1
    12    7    9 1
    13    7   32 1
    14    9   10 1
    15    9   36 1
    16    9   37 1
    17   10   11 1
    18   10   38 1
    19   10   39 1
    20   11   12 1
    21   11   31 1
    22   11   13 1
    23   13   14 1
    24   13   15 1
    25   15   16 1
    26   15   40 1
    27   15   41 1
    28   16   17 1
    29   16   30 1
    30   16   18 1
    31   18   26 1
    32   18   19 2
    33   19   20 1
    34   19   28 1
    35   20   25 ar
    36   20   21 ar
    37   21   22 ar
    38   21   42 1
    39   22   23 ar
    40   22   43 1
    41   23   24 ar
    42   23   44 1
    43   24   25 ar
    44   24   45 1
    45   25   26 1
    46   26   27 1
    47   28   29 1
    48   28   46 1
    49   28   47 1
    50   29   30 1
    51   29   48 1
    52   29   49 1
    53   30   31 1
    54   30   53 1
    55   31   50 1
    56   31   51 1
    57   32   52 1
@<TRIPOS>MOLECULE
ZINC00896218
   45    47     0     0     0
SMALL
USER_CHARGES
1-[(3-hydroxy-4-methoxy-phenyl)methyl]-6-methoxy-1,2,3,4-tetrahydroisoquinolin-7-ol
@<TRIPOS>ATOM
      1 C1          2.2215    5.3022    0.0079 C.3       1 <0>         0.0203
      2 O1          2.3211    3.8766   -0.0002 O.3       1 <0>        -0.3013
      3 C2          1.1554    3.1762    0.0076 C.ar      1 <0>         0.1211
      4 C3         -0.0572    3.8465    0.0223 C.ar      1 <0>        -0.1861
      5 C4         -1.2413    3.1330    0.0298 C.ar      1 <0>        -0.0688
      6 C5         -1.2190    1.7507    0.0173 C.ar      1 <0>        -0.1524
      7 C6         -0.0126    1.0758    0.0080 C.ar      1 <0>        -0.1272
      8 C7          1.1779    1.7849    0.0004 C.ar      1 <0>         0.0868
      9 O2          2.3655    1.1226   -0.0136 O.3       1 <0>        -0.4855
     10 C8         -2.5128    0.9779    0.0198 C.3       1 <0>        -0.0922
     11 C9         -2.9435    0.7090    1.4630 C.3       1 <0>         0.0966
     12 H1         -2.9983    1.6537    2.0040 H         1 <0>         0.1463
     13 C10        -4.3013    0.0564    1.4633 C.ar      1 <0>        -0.1517
     14 C11        -5.2657    0.5429    0.5919 C.ar      1 <0>        -0.0839
     15 C12        -6.5279   -0.0217    0.5585 C.ar      1 <0>         0.0935
     16 C13        -6.8311   -1.0842    1.4051 C.ar      1 <0>         0.1337
     17 C14        -5.8674   -1.5653    2.2708 C.ar      1 <0>        -0.1884
     18 C15        -4.6020   -0.9972    2.2992 C.ar      1 <0>        -0.0529
     19 C16        -3.5842   -1.5621    3.2570 C.3       1 <0>        -0.1073
     20 C17        -2.4327   -0.5729    3.4388 C.3       1 <0>         0.0007
     21 O3         -8.0698   -1.6450    1.3812 O.3       1 <0>        -0.2971
     22 C18        -8.3074   -2.7315    2.2785 C.3       1 <0>         0.0196
     23 O4         -7.4685    0.4589   -0.2981 O.3       1 <0>        -0.4794
     24 H2          1.6750    5.6332   -0.8752 H         1 <0>         0.0617
     25 H3          1.6923    5.6243    0.9047 H         1 <0>         0.0610
     26 H4          3.2213    5.7363    0.0004 H         1 <0>         0.1105
     27 H5         -0.0774    4.9263    0.0283 H         1 <0>         0.1423
     28 H6         -2.1858    3.6566    0.0409 H         1 <0>         0.1361
     29 H7          0.0021   -0.0041    0.0020 H         1 <0>         0.1348
     30 H8          2.7009    0.9351   -0.9010 H         1 <0>         0.3979
     31 H9         -3.2836    1.5582   -0.4873 H         1 <0>         0.1222
     32 H10        -2.3709    0.0301   -0.4996 H         1 <0>         0.1006
     33 H11        -5.0293    1.3677   -0.0639 H         1 <0>         0.1487
     34 H12        -6.1006   -2.3897    2.9284 H         1 <0>         0.1445
     35 H13        -3.1960   -2.5003    2.8605 H         1 <0>         0.1067
     36 H14        -4.0580   -1.7469    4.2210 H         1 <0>         0.1242
     37 H15        -1.6213   -1.0520    3.9866 H         1 <0>         0.1414
     38 H16        -2.7804    0.3011    3.9895 H         1 <0>         0.1346
     39 H17        -7.6141   -3.5432    2.0580 H         1 <0>         0.0612
     40 H18        -8.1581   -2.3948    3.3044 H         1 <0>         0.0618
     41 H19        -9.3313   -3.0853    2.1576 H         1 <0>         0.1122
     42 H20        -7.4692    0.0278   -1.1637 H         1 <0>         0.3981
     43 N1         -1.9514   -0.1631    2.1065 N.4       1 <0>        -0.5135
     44 H21        -1.0649    0.3452    2.2062 H         1 <0>         0.4375
     45 H22        -1.8042   -0.9974    1.5262 H         1 <0>         0.4310
@<TRIPOS>BOND
     1    1    2 1
     2    1   24 1
     3    1   25 1
     4    1   26 1
     5    2    3 1
     6    3    8 ar
     7    3    4 ar
     8    4    5 ar
     9    4   27 1
    10    5    6 ar
    11    5   28 1
    12    6    7 ar
    13    6   10 1
    14    7    8 ar
    15    7   29 1
    16    8    9 1
    17    9   30 1
    18   10   11 1
    19   10   31 1
    20   10   32 1
    21   11   12 1
    22   11   13 1
    23   11   43 1
    24   13   18 ar
    25   13   14 ar
    26   14   15 ar
    27   14   33 1
    28   15   16 ar
    29   15   23 1
    30   16   17 ar
    31   16   21 1
    32   17   18 ar
    33   17   34 1
    34   18   19 1
    35   19   20 1
    36   19   35 1
    37   19   36 1
    38   20   37 1
    39   20   38 1
    40   20   43 1
    41   21   22 1
    42   22   39 1
    43   22   40 1
    44   22   41 1
    45   23   42 1
    46   43   44 1
    47   43   45 1
@<TRIPOS>MOLECULE
ZINC00896220
   45    47     0     0     0
SMALL
USER_CHARGES
1-[(3-hydroxy-4-methoxy-phenyl)methyl]-6-methoxy-1,2,3,4-tetrahydroisoquinolin-7-ol
@<TRIPOS>ATOM
      1 C1          1.6300   -5.2215    1.9842 C.3       1 <0>         0.0210
      2 O1          2.6828   -4.4648    1.3833 O.3       1 <0>        -0.3005
      3 C2          2.5352   -3.1132    1.3586 C.ar      1 <0>         0.1202
      4 C3          1.4023   -2.5283    1.9012 C.ar      1 <0>        -0.1882
      5 C4          1.2567   -1.1537    1.8808 C.ar      1 <0>        -0.1048
      6 C5          2.2344   -0.3604    1.3096 C.ar      1 <0>        -0.1507
      7 C6          3.3671   -0.9375    0.7665 C.ar      1 <0>        -0.0925
      8 C7          3.5219   -2.3143    0.7888 C.ar      1 <0>         0.0900
      9 O2          4.6358   -2.8836    0.2553 O.3       1 <0>        -0.4838
     10 C8          2.0677    1.1371    1.2844 C.3       1 <0>        -0.0933
     11 C9          1.3499    1.5489   -0.0025 C.3       1 <0>         0.0968
     12 H1          1.8909    1.1485   -0.8599 H         1 <0>         0.1468
     13 C10         1.3169    3.0522   -0.0933 C.ar      1 <0>        -0.1519
     14 C11         2.4607    3.7581    0.2524 C.ar      1 <0>        -0.0838
     15 C12         2.4794    5.1393    0.1817 C.ar      1 <0>         0.0936
     16 C13         1.3430    5.8239   -0.2398 C.ar      1 <0>         0.1339
     17 C14         0.2049    5.1163   -0.5823 C.ar      1 <0>        -0.1884
     18 C15         0.1909    3.7311   -0.5077 C.ar      1 <0>        -0.0532
     19 C16        -1.0765    3.0060   -0.8823 C.3       1 <0>        -0.1074
     20 C17        -0.7775    1.5282   -1.1348 C.3       1 <0>         0.0009
     21 O3          1.3516    7.1818   -0.3140 O.3       1 <0>        -0.2970
     22 C18         0.1488    7.8150   -0.7549 C.3       1 <0>         0.0197
     23 O4          3.6029    5.8254    0.5227 O.3       1 <0>        -0.4798
     24 H2          1.5147   -4.9204    3.0254 H         1 <0>         0.0609
     25 H3          0.6989   -5.0383    1.4478 H         1 <0>         0.0596
     26 H4          1.8732   -6.2830    1.9377 H         1 <0>         0.1103
     27 H5          0.6350   -3.1461    2.3441 H         1 <0>         0.1414
     28 H6          0.3754   -0.6988    2.3083 H         1 <0>         0.1276
     29 H7          4.1312   -0.3153    0.3245 H         1 <0>         0.1431
     30 H8          5.3627   -2.9900    0.8841 H         1 <0>         0.3981
     31 H9          3.0479    1.6125    1.3218 H         1 <0>         0.1219
     32 H10         1.4783    1.4516    2.1457 H         1 <0>         0.1015
     33 H11         3.3417    3.2256    0.5792 H         1 <0>         0.1488
     34 H12        -0.6779    5.6452   -0.9098 H         1 <0>         0.1445
     35 H13        -1.7982    3.0955   -0.0703 H         1 <0>         0.1066
     36 H14        -1.4939    3.4503   -1.7860 H         1 <0>         0.1241
     37 H15        -0.1909    1.4241   -2.0476 H         1 <0>         0.1348
     38 H16        -1.7127    0.9767   -1.2322 H         1 <0>         0.1410
     39 H17        -0.0974    7.4684   -1.7585 H         1 <0>         0.0614
     40 H18        -0.6645    7.5641   -0.0740 H         1 <0>         0.0615
     41 H19         0.2910    8.8956   -0.7683 H         1 <0>         0.1121
     42 H20         4.2101    5.9772   -0.2144 H         1 <0>         0.3987
     43 N1         -0.0135    1.0014    0.0113 N.4       1 <0>        -0.5133
     44 H21        -0.4802    1.2720    0.8849 H         1 <0>         0.4310
     45 H22         0.0302   -0.0226   -0.0504 H         1 <0>         0.4366
@<TRIPOS>BOND
     1    1    2 1
     2    1   24 1
     3    1   25 1
     4    1   26 1
     5    2    3 1
     6    3    8 ar
     7    3    4 ar
     8    4    5 ar
     9    4   27 1
    10    5    6 ar
    11    5   28 1
    12    6    7 ar
    13    6   10 1
    14    7    8 ar
    15    7   29 1
    16    8    9 1
    17    9   30 1
    18   10   11 1
    19   10   31 1
    20   10   32 1
    21   11   12 1
    22   11   13 1
    23   11   43 1
    24   13   18 ar
    25   13   14 ar
    26   14   15 ar
    27   14   33 1
    28   15   16 ar
    29   15   23 1
    30   16   17 ar
    31   16   21 1
    32   17   18 ar
    33   17   34 1
    34   18   19 1
    35   19   20 1
    36   19   35 1
    37   19   36 1
    38   20   37 1
    39   20   38 1
    40   20   43 1
    41   21   22 1
    42   22   39 1
    43   22   40 1
    44   22   41 1
    45   23   42 1
    46   43   44 1
    47   43   45 1
@<TRIPOS>MOLECULE
ZINC04040585
   46    49     0     0     0
SMALL
USER_CHARGES
phenethylBLAH
@<TRIPOS>ATOM
      1 C1         -0.0167    1.3781    0.0096 C.ar      1 <0>        -0.1041
      2 C2          1.1709    2.0855    0.0021 C.ar      1 <0>        -0.1137
      3 C3          2.3773    1.4107   -0.0136 C.ar      1 <0>        -0.1101
      4 C4          2.3960    0.0285   -0.0217 C.ar      1 <0>        -0.1085
      5 C5          1.2084   -0.6789   -0.0136 C.ar      1 <0>        -0.1101
      6 C6          0.0021   -0.0041    0.0020 C.ar      1 <0>        -0.1138
      7 C7          3.7112   -0.7071   -0.0387 C.3       1 <0>        -0.0993
      8 C8          4.1419   -0.9483   -1.4869 C.3       1 <0>        -0.0006
      9 C9          5.2766   -3.0226   -0.9511 C.3       1 <0>        -0.0012
     10 C10         6.5414   -3.8124   -1.2864 C.3       1 <0>        -0.1147
     11 C11         7.7666   -3.0211   -0.9092 C.2       1 <0>        -0.0488
     12 C12         7.7289   -1.7198   -0.6807 C.2       1 <0>        -0.1586
     13 C13         6.4467   -0.9300   -0.7552 C.3       1 <0>         0.0394
     14 C14         8.9945   -0.9739   -0.3247 C.3       1 <0>        -0.0757
     15 C15         9.8859   -1.8217    0.5791 C.3       1 <0>        -0.0837
     16 C16        10.0968   -3.1706   -0.0564 C.ar      1 <0>        -0.0651
     17 C17         9.0552   -3.7449   -0.7848 C.ar      1 <0>        -0.0764
     18 C18         9.2306   -4.9885   -1.3867 C.ar      1 <0>        -0.0981
     19 C19        10.4382   -5.6456   -1.2533 C.ar      1 <0>        -0.1213
     20 C20        11.4664   -5.0724   -0.5269 C.ar      1 <0>        -0.0963
     21 C21        11.2962   -3.8354    0.0720 C.ar      1 <0>        -0.1147
     22 H1         -0.9592    1.9054    0.0170 H         1 <0>         0.1298
     23 H2          1.1563    3.1654    0.0081 H         1 <0>         0.1295
     24 H3          3.3051    1.9634   -0.0195 H         1 <0>         0.1238
     25 H4          1.2231   -1.7587   -0.0199 H         1 <0>         0.1235
     26 H5         -0.9258   -0.5567    0.0079 H         1 <0>         0.1294
     27 H6          4.4678   -0.1105    0.4708 H         1 <0>         0.0947
     28 H7          3.5989   -1.6640    0.4711 H         1 <0>         0.0940
     29 H8          3.3852   -1.5449   -1.9964 H         1 <0>         0.1337
     30 H9          4.2541    0.0085   -1.9968 H         1 <0>         0.1325
     31 H10         5.1526   -2.9682    0.1304 H         1 <0>         0.1337
     32 H11         4.4095   -3.5095   -1.3975 H         1 <0>         0.1378
     33 H12         6.5358   -4.7533   -0.7361 H         1 <0>         0.1242
     34 H13         6.5641   -4.0202   -2.3562 H         1 <0>         0.1059
     35 H14         6.6397    0.0210   -1.2517 H         1 <0>         0.1382
     36 H15         6.0840   -0.7391    0.2548 H         1 <0>         0.1411
     37 H16         9.5371   -0.7312   -1.2383 H         1 <0>         0.0872
     38 H17         8.7334   -0.0507    0.1927 H         1 <0>         0.0854
     39 H18        10.8480   -1.3264    0.7097 H         1 <0>         0.0908
     40 H19         9.4057   -1.9476    1.5495 H         1 <0>         0.0836
     41 H20         8.4277   -5.4362   -1.9535 H         1 <0>         0.1257
     42 H21        10.5803   -6.6101   -1.7181 H         1 <0>         0.1300
     43 H22        12.4073   -5.5929   -0.4259 H         1 <0>         0.1306
     44 H23        12.1025   -3.3926    0.6380 H         1 <0>         0.1310
     45 N1          5.4348   -1.6707   -1.5225 N.4       1 <0>        -0.3935
     46 H24         5.7453   -1.7523   -2.4978 H         1 <0>         0.4326
@<TRIPOS>BOND
     1    1    6 ar
     2    1    2 ar
     3    1   22 1
     4    2    3 ar
     5    2   23 1
     6    3    4 ar
     7    3   24 1
     8    4    5 ar
     9    4    7 1
    10    5    6 ar
    11    5   25 1
    12    6   26 1
    13    7    8 1
    14    7   27 1
    15    7   28 1
    16    8   29 1
    17    8   30 1
    18    8   45 1
    19    9   10 1
    20    9   31 1
    21    9   32 1
    22    9   45 1
    23   10   11 1
    24   10   33 1
    25   10   34 1
    26   11   17 1
    27   11   12 2
    28   12   13 1
    29   12   14 1
    30   13   35 1
    31   13   36 1
    32   13   45 1
    33   14   15 1
    34   14   37 1
    35   14   38 1
    36   15   16 1
    37   15   39 1
    38   15   40 1
    39   16   21 ar
    40   16   17 ar
    41   17   18 ar
    42   18   19 ar
    43   18   41 1
    44   19   20 ar
    45   19   42 1
    46   20   21 ar
    47   20   43 1
    48   21   44 1
    49   45   46 1
@<TRIPOS>MOLECULE
ZINC00056583
   39    41     0     0     0
SMALL
USER_CHARGES
1-[(3,4-dihydroxyphenyl)methyl]-1,2,3,4-tetrahydroisoquinoline-6,7-diol
@<TRIPOS>ATOM
      1 C1         -1.2416    3.1328    0.0308 C.ar      1 <0>        -0.0950
      2 C2         -0.0572    3.8465    0.0234 C.ar      1 <0>        -0.1182
      3 C3          1.1551    3.1765    0.0081 C.ar      1 <0>         0.1003
      4 C4          1.1775    1.7847    0.0004 C.ar      1 <0>         0.0938
      5 C5         -0.0126    1.0758    0.0080 C.ar      1 <0>        -0.1517
      6 C6         -1.2194    1.7509    0.0173 C.ar      1 <0>        -0.1213
      7 C7         -2.5132    0.9781    0.0187 C.3       1 <0>        -0.0967
      8 C8         -2.9445    0.7082    1.4617 C.3       1 <0>         0.0925
      9 H1         -2.9995    1.6525    2.0033 H         1 <0>         0.1498
     10 C9         -4.3023    0.0556    1.4610 C.ar      1 <0>        -0.1207
     11 C10        -5.2663    0.5427    0.5895 C.ar      1 <0>        -0.1074
     12 C11        -6.5285   -0.0218    0.5552 C.ar      1 <0>         0.0986
     13 C12        -6.8320   -1.0850    1.4010 C.ar      1 <0>         0.1136
     14 C13        -5.8686   -1.5667    2.2667 C.ar      1 <0>        -0.1190
     15 C14        -4.6033   -0.9986    2.2960 C.ar      1 <0>        -0.0788
     16 C15        -3.5858   -1.5642    3.2537 C.3       1 <0>        -0.1063
     17 C16        -2.4344   -0.5751    3.4367 C.3       1 <0>        -0.0003
     18 O1         -8.0707   -1.6458    1.3762 O.3       1 <0>        -0.4815
     19 O2         -7.4688    0.4594   -0.3014 O.3       1 <0>        -0.4805
     20 O3          2.3652    1.1224   -0.0141 O.3       1 <0>        -0.4868
     21 O4          2.3208    3.8768    0.0003 O.3       1 <0>        -0.4852
     22 H2         -2.1861    3.6564    0.0427 H         1 <0>         0.1385
     23 H3         -0.0774    4.9263    0.0297 H         1 <0>         0.1442
     24 H4          0.0021   -0.0041    0.0020 H         1 <0>         0.1327
     25 H5         -3.2838    1.5588   -0.4882 H         1 <0>         0.1247
     26 H6         -2.3711    0.0307   -0.5013 H         1 <0>         0.1026
     27 H7         -5.0296    1.3680   -0.0656 H         1 <0>         0.1466
     28 H8         -6.1021   -2.3915    2.9236 H         1 <0>         0.1466
     29 H9         -3.1975   -2.5021    2.8567 H         1 <0>         0.1070
     30 H10        -4.0600   -1.7497    4.2175 H         1 <0>         0.1262
     31 H11        -1.6233   -1.0547    3.9845 H         1 <0>         0.1427
     32 H12        -2.7823    0.2985    3.9879 H         1 <0>         0.1355
     33 H13        -8.1587   -2.3775    0.7501 H         1 <0>         0.4006
     34 H14        -7.4691    0.0289   -1.1673 H         1 <0>         0.3988
     35 H15         2.7004    0.9353   -0.9016 H         1 <0>         0.3989
     36 H16         2.6491    4.0842   -0.8853 H         1 <0>         0.3996
     37 N1         -1.9526   -0.1644    2.1048 N.4       1 <0>        -0.5139
     38 H17        -1.0661    0.3438    2.2051 H         1 <0>         0.4381
     39 H18        -1.8053   -0.9982    1.5240 H         1 <0>         0.4312
@<TRIPOS>BOND
     1    1    6 ar
     2    1    2 ar
     3    1   22 1
     4    2    3 ar
     5    2   23 1
     6    3    4 ar
     7    3   21 1
     8    4    5 ar
     9    4   20 1
    10    5    6 ar
    11    5   24 1
    12    6    7 1
    13    7    8 1
    14    7   25 1
    15    7   26 1
    16    8    9 1
    17    8   10 1
    18    8   37 1
    19   10   15 ar
    20   10   11 ar
    21   11   12 ar
    22   11   27 1
    23   12   13 ar
    24   12   19 1
    25   13   14 ar
    26   13   18 1
    27   14   15 ar
    28   14   28 1
    29   15   16 1
    30   16   17 1
    31   16   29 1
    32   16   30 1
    33   17   31 1
    34   17   32 1
    35   17   37 1
    36   18   33 1
    37   19   34 1
    38   20   35 1
    39   21   36 1
    40   37   38 1
    41   37   39 1
@<TRIPOS>MOLECULE
ZINC00056584
   39    41     0     0     0
SMALL
USER_CHARGES

@<TRIPOS>ATOM
      1 C1         -0.0167    1.3779    0.0096 C.ar      1 <0>        -0.0949
      2 C2          1.1696    2.0886    0.0021 C.ar      1 <0>        -0.1186
      3 C3          2.3802    1.4154   -0.0130 C.ar      1 <0>         0.1002
      4 C4          2.3990    0.0236   -0.0206 C.ar      1 <0>         0.0940
      5 C5          1.2071   -0.6822   -0.0130 C.ar      1 <0>        -0.1515
      6 C6          0.0021   -0.0041    0.0020 C.ar      1 <0>        -0.1210
      7 C7         -1.2936   -0.7736    0.0102 C.3       1 <0>        -0.0983
      8 C8         -1.7458   -1.0263   -1.4294 C.3       1 <0>         0.0902
      9 H1         -1.8058   -0.0756   -1.9593 H         1 <0>         0.1504
     10 C9         -3.1055   -1.6742   -1.4164 C.ar      1 <0>        -0.1223
     11 C10        -4.0486   -1.2136   -0.5088 C.ar      1 <0>        -0.1063
     12 C11        -5.3108   -1.7777   -0.4645 C.ar      1 <0>         0.0982
     13 C12        -5.6353   -2.8134   -1.3361 C.ar      1 <0>         0.1143
     14 C13        -4.6912   -3.2704   -2.2384 C.ar      1 <0>        -0.1186
     15 C14        -3.4272   -2.7016   -2.2779 C.ar      1 <0>        -0.0788
     16 C15        -2.4271   -3.2355   -3.2719 C.3       1 <0>        -0.1067
     17 C16        -1.2761   -2.2418   -3.4332 C.3       1 <0>        -0.0036
     18 N1         -0.7695   -1.8912   -2.0978 N.4       1 <0>        -0.5057
     19 O1         -6.8742   -3.3731   -1.3012 O.3       1 <0>        -0.4819
     20 O2         -6.2313   -1.3220    0.4269 O.3       1 <0>        -0.4810
     21 O3          3.5850   -0.6417   -0.0359 O.3       1 <0>        -0.4868
     22 O4          3.5476    2.1129   -0.0209 O.3       1 <0>        -0.4853
     23 H2         -0.9598    1.9038    0.0259 H         1 <0>         0.1383
     24 H3          1.1522    3.1684    0.0077 H         1 <0>         0.1441
     25 H4          1.2190   -1.7621   -0.0189 H         1 <0>         0.1328
     26 H5         -1.1467   -1.7271    0.5175 H         1 <0>         0.1034
     27 H6         -2.0555   -0.1967    0.5344 H         1 <0>         0.1254
     28 H7         -3.7959   -0.4097    0.1667 H         1 <0>         0.1469
     29 H8         -4.9402   -4.0739   -2.9158 H         1 <0>         0.1470
     30 H9         -2.0359   -4.1886   -2.9160 H         1 <0>         0.1079
     31 H10        -2.9164   -3.3827   -4.2348 H         1 <0>         0.1267
     32 H11        -0.4783   -2.6979   -4.0194 H         1 <0>         0.1434
     33 H12        -1.6356   -1.3439   -3.9357 H         1 <0>         0.1363
     34 H13         0.1086   -1.4025   -2.1881 H         1 <0>         0.4340
     35 H14        -7.5153   -2.9459   -1.8857 H         1 <0>         0.4013
     36 H15        -6.7815   -0.6015    0.0904 H         1 <0>         0.3994
     37 H16         3.9367   -0.8389    0.8430 H         1 <0>         0.3991
     38 H17         3.8938    2.3101    0.8602 H         1 <0>         0.3997
     39 H18        -0.6357   -2.7315   -1.5555 H         1 <0>         0.4283
@<TRIPOS>BOND
     1    1    6 ar
     2    1    2 ar
     3    1   23 1
     4    2    3 ar
     5    2   24 1
     6    3    4 ar
     7    3   22 1
     8    4    5 ar
     9    4   21 1
    10    5    6 ar
    11    5   25 1
    12    6    7 1
    13    7    8 1
    14    7   26 1
    15    7   27 1
    16    8    9 1
    17    8   18 1
    18    8   10 1
    19   10   15 ar
    20   10   11 ar
    21   11   12 ar
    22   11   28 1
    23   12   13 ar
    24   12   20 1
    25   13   14 ar
    26   13   19 1
    27   14   15 ar
    28   14   29 1
    29   15   16 1
    30   16   17 1
    31   16   30 1
    32   16   31 1
    33   17   18 1
    34   17   32 1
    35   17   33 1
    36   18   34 1
    37   18   39 1
    38   19   35 1
    39   20   36 1
    40   21   37 1
    41   22   38 1
@<TRIPOS>MOLECULE
ZINC00056584
   38    40     0     0     0
SMALL
USER_CHARGES

@<TRIPOS>ATOM
      1 C1         -0.0167    1.3779    0.0096 C.ar      1 <0>        -0.1099
      2 C2          1.1696    2.0886    0.0021 C.ar      1 <0>        -0.1284
      3 C3          2.3802    1.4154   -0.0130 C.ar      1 <0>         0.0769
      4 C4          2.3990    0.0236   -0.0206 C.ar      1 <0>         0.0828
      5 C5          1.2071   -0.6822   -0.0130 C.ar      1 <0>        -0.1216
      6 C6          0.0021   -0.0041    0.0020 C.ar      1 <0>        -0.0784
      7 C7         -1.2936   -0.7736    0.0102 C.3       1 <0>        -0.0737
      8 C8         -1.7458   -1.0263   -1.4294 C.3       1 <0>         0.1353
      9 H1         -1.8059   -0.0758   -1.9596 H         1 <0>         0.0554
     10 C9         -3.1052   -1.6755   -1.4169 C.ar      1 <0>        -0.0674
     11 C10        -4.0541   -1.1991   -0.5232 C.ar      1 <0>        -0.1266
     12 C11        -5.3174   -1.7603   -0.4780 C.ar      1 <0>         0.0781
     13 C12        -5.6373   -2.8094   -1.3352 C.ar      1 <0>         0.0838
     14 C13        -4.6876   -3.2824   -2.2229 C.ar      1 <0>        -0.1322
     15 C14        -3.4212   -2.7172   -2.2627 C.ar      1 <0>        -0.0556
     16 C15        -2.4178   -3.2751   -3.2395 C.3       1 <0>        -0.0779
     17 C16        -1.2657   -2.2875   -3.4261 C.3       1 <0>         0.0533
     18 N1         -0.7700   -1.8926   -2.0982 N.3       1 <0>        -0.6791
     19 O1         -6.8774   -3.3663   -1.3005 O.3       1 <0>        -0.4877
     20 O2         -6.2428   -1.2896    0.4003 O.3       1 <0>        -0.4869
     21 O3          3.5850   -0.6417   -0.0359 O.3       1 <0>        -0.4877
     22 O4          3.5476    2.1129   -0.0209 O.3       1 <0>        -0.4888
     23 H2         -0.9598    1.9038    0.0259 H         1 <0>         0.1292
     24 H3          1.1522    3.1684    0.0077 H         1 <0>         0.1334
     25 H4          1.2190   -1.7621   -0.0189 H         1 <0>         0.1398
     26 H5         -1.1467   -1.7271    0.5175 H         1 <0>         0.0888
     27 H6         -2.0555   -0.1967    0.5344 H         1 <0>         0.0842
     28 H7         -3.8046   -0.3847    0.1409 H         1 <0>         0.1356
     29 H8         -4.9335   -4.0960   -2.8891 H         1 <0>         0.1339
     30 H9         -2.0274   -4.2186   -2.8581 H         1 <0>         0.0882
     31 H10        -2.9048   -3.4483   -4.1992 H         1 <0>         0.0801
     32 H11        -0.4633   -2.7633   -3.9900 H         1 <0>         0.0839
     33 H12        -1.6211   -1.4071   -3.9614 H         1 <0>         0.0381
     34 H13        -7.5134   -2.9476   -1.8965 H         1 <0>         0.3877
     35 H14        -6.7898   -0.5736    0.0493 H         1 <0>         0.3869
     36 H15         3.9367   -0.8389    0.8430 H         1 <0>         0.3885
     37 H16         3.8938    2.3101    0.8602 H         1 <0>         0.3879
     38 H17         0.1283   -1.4385   -2.1684 H         1 <0>         0.3504
@<TRIPOS>BOND
     1    1    6 ar
     2    1    2 ar
     3    1   23 1
     4    2    3 ar
     5    2   24 1
     6    3    4 ar
     7    3   22 1
     8    4    5 ar
     9    4   21 1
    10    5    6 ar
    11    5   25 1
    12    6    7 1
    13    7    8 1
    14    7   26 1
    15    7   27 1
    16    8    9 1
    17    8   18 1
    18    8   10 1
    19   10   15 ar
    20   10   11 ar
    21   11   12 ar
    22   11   28 1
    23   12   13 ar
    24   12   20 1
    25   13   14 ar
    26   13   19 1
    27   14   15 ar
    28   14   29 1
    29   15   16 1
    30   16   17 1
    31   16   30 1
    32   16   31 1
    33   17   18 1
    34   17   32 1
    35   17   33 1
    36   18   38 1
    37   19   34 1
    38   20   35 1
    39   21   36 1
    40   22   37 1
@<TRIPOS>MOLECULE
ZINC01561184
   39    42     0     0     0
SMALL
USER_CHARGES

@<TRIPOS>ATOM
      1 C1         -0.0178    1.4648    0.0101 C.3       1 <0>        -0.0532
      2 N1          0.0021   -0.0041    0.0020 N.4       1 <0>        -0.3820
      3 C2         -1.3708   -0.5099    0.0087 C.3       1 <0>        -0.0042
      4 C3         -1.3935   -2.0162   -0.1933 C.3       1 <0>        -0.1059
      5 C4         -0.2772   -2.7023    0.5426 C.ar      1 <0>        -0.0638
      6 C5         -0.2620   -4.0904    0.5658 C.ar      1 <0>        -0.1377
      7 C6          0.7274   -4.7767    1.2506 C.ar      1 <0>         0.1452
      8 C7          1.7173   -4.0729    1.9172 C.ar      1 <0>        -0.1298
      9 C8          1.7185   -2.6844    1.8776 C.ar      1 <0>         0.0131
     10 C9          0.7125   -1.9966    1.1928 C.ar      1 <0>        -0.1372
     11 C10         0.7132   -0.4905    1.1932 C.3       1 <0>         0.0911
     12 H1          0.2081   -0.1287    2.0889 H         1 <0>         0.1473
     13 C11         2.1396    0.0551    1.1685 C.3       1 <0>        -0.0934
     14 C12         2.9707   -0.5756    2.2523 C.ar      1 <0>        -0.0774
     15 C13         2.7710   -1.9147    2.5824 C.ar      1 <0>        -0.0682
     16 C14         3.5535   -2.5150    3.5677 C.ar      1 <0>         0.1062
     17 C15         4.5228   -1.7645    4.2256 C.ar      1 <0>         0.0996
     18 C16         4.7033   -0.4298    3.8999 C.ar      1 <0>        -0.1146
     19 C17         3.9295    0.1611    2.9162 C.ar      1 <0>        -0.0941
     20 O1          5.2923   -2.3402    5.1879 O.3       1 <0>        -0.4821
     21 O2          3.3704   -3.8244    3.8838 O.3       1 <0>        -0.4743
     22 O3          0.7268   -6.1356    1.2689 O.3       1 <0>        -0.4901
     23 H2          1.0047    1.8421    0.0024 H         1 <0>         0.1276
     24 H3         -0.5450    1.8259   -0.8730 H         1 <0>         0.1294
     25 H4         -0.5280    1.8163    0.9069 H         1 <0>         0.1256
     26 H5         -1.8368   -0.2692    0.9642 H         1 <0>         0.1312
     27 H6         -1.9327   -0.0321   -0.7938 H         1 <0>         0.1406
     28 H7         -2.3461   -2.4071    0.1643 H         1 <0>         0.1251
     29 H8         -1.3012   -2.2322   -1.2577 H         1 <0>         0.1067
     30 H9         -1.0306   -4.6414    0.0442 H         1 <0>         0.1426
     31 H10         2.4838   -4.6010    2.4650 H         1 <0>         0.1586
     32 H11         2.5897   -0.1611    0.1996 H         1 <0>         0.1017
     33 H12         2.1136    1.1344    1.3185 H         1 <0>         0.1090
     34 H13         5.4517    0.1527    4.4167 H         1 <0>         0.1459
     35 H14         4.0767    1.2018    2.6677 H         1 <0>         0.1409
     36 H15         6.1085   -2.7367    4.8538 H         1 <0>         0.3974
     37 H16         3.9112   -4.4340    3.3631 H         1 <0>         0.3937
     38 H17         1.2246   -6.5390    0.5447 H         1 <0>         0.4034
     39 H18         0.4753   -0.3290   -0.8278 H         1 <0>         0.4258
@<TRIPOS>BOND
     1    1    2 1
     2    1   23 1
     3    1   24 1
     4    1   25 1
     5    2   11 1
     6    2    3 1
     7    2   39 1
     8    3    4 1
     9    3   26 1
    10    3   27 1
    11    4    5 1
    12    4   28 1
    13    4   29 1
    14    5   10 ar
    15    5    6 ar
    16    6    7 ar
    17    6   30 1
    18    7    8 ar
    19    7   22 1
    20    8    9 ar
    21    8   31 1
    22    9   15 1
    23    9   10 ar
    24   10   11 1
    25   11   12 1
    26   11   13 1
    27   13   14 1
    28   13   32 1
    29   13   33 1
    30   14   19 ar
    31   14   15 ar
    32   15   16 ar
    33   16   17 ar
    34   16   21 1
    35   17   18 ar
    36   17   20 1
    37   18   19 ar
    38   18   34 1
    39   19   35 1
    40   20   36 1
    41   21   37 1
    42   22   38 1
@<TRIPOS>MOLECULE
ZINC01561184
   38    41     0     0     0
SMALL
USER_CHARGES

@<TRIPOS>ATOM
      1 C1         -0.0178    1.4648    0.0101 C.3       1 <0>         0.0189
      2 N1          0.0021   -0.0041    0.0020 N.3       1 <0>        -0.5348
      3 C2         -1.3553   -0.5467   -0.0778 C.3       1 <0>         0.0547
      4 C3         -1.3240   -2.0433   -0.3388 C.3       1 <0>        -0.0781
      5 C4         -0.2118   -2.7303    0.4016 C.ar      1 <0>        -0.0479
      6 C5         -0.1664   -4.1182    0.3703 C.ar      1 <0>        -0.1439
      7 C6          0.8210   -4.8108    1.0512 C.ar      1 <0>         0.1077
      8 C7          1.7794   -4.1145    1.7693 C.ar      1 <0>        -0.1363
      9 C8          1.7492   -2.7258    1.7874 C.ar      1 <0>        -0.0221
     10 C9          0.7432   -2.0320    1.1086 C.ar      1 <0>        -0.0689
     11 C10         0.7069   -0.5280    1.1814 C.3       1 <0>         0.1302
     12 H1          0.1781   -0.2223    2.0842 H         1 <0>         0.0580
     13 C11         2.1193    0.0523    1.2086 C.3       1 <0>        -0.0727
     14 C12         2.9447   -0.6077    2.2796 C.ar      1 <0>        -0.0631
     15 C13         2.7702   -1.9644    2.5457 C.ar      1 <0>        -0.0553
     16 C14         3.5495   -2.5910    3.5173 C.ar      1 <0>         0.0966
     17 C15         4.4883   -1.8490    4.2274 C.ar      1 <0>         0.0807
     18 C16         4.6425   -0.4968    3.9660 C.ar      1 <0>        -0.1236
     19 C17         3.8733    0.1200    2.9943 C.ar      1 <0>        -0.1049
     20 O1          5.2535   -2.4501    5.1776 O.3       1 <0>        -0.4859
     21 O2          3.3929   -3.9175    3.7695 O.3       1 <0>        -0.4757
     22 O3          0.8498   -6.1690    1.0146 O.3       1 <0>        -0.4963
     23 H2          1.0047    1.8421    0.0024 H         1 <0>         0.0752
     24 H3         -0.5450    1.8259   -0.8730 H         1 <0>         0.0735
     25 H4         -0.5280    1.8163    0.9069 H         1 <0>         0.0291
     26 H5         -1.8730   -0.3575    0.8626 H         1 <0>         0.0369
     27 H6         -1.8920   -0.0526   -0.8876 H         1 <0>         0.0852
     28 H7         -2.2750   -2.4759   -0.0280 H         1 <0>         0.0827
     29 H8         -1.1939   -2.2126   -1.4077 H         1 <0>         0.0853
     30 H9         -0.9096   -4.6638   -0.1921 H         1 <0>         0.1295
     31 H10         2.5453   -4.6482    2.3123 H         1 <0>         0.1478
     32 H11         2.5925   -0.1091    0.2400 H         1 <0>         0.0943
     33 H12         2.0639    1.1228    1.4065 H         1 <0>         0.0853
     34 H13         5.3670    0.0787    4.5230 H         1 <0>         0.1370
     35 H14         4.0008    1.1738    2.7951 H         1 <0>         0.1351
     36 H15         6.0851   -2.8119    4.8419 H         1 <0>         0.3884
     37 H16         3.9577   -4.4894    3.2319 H         1 <0>         0.3870
     38 H17         1.3736   -6.5319    0.2873 H         1 <0>         0.3906
@<TRIPOS>BOND
     1    1    2 1
     2    1   23 1
     3    1   24 1
     4    1   25 1
     5    2   11 1
     6    2    3 1
     7    3    4 1
     8    3   26 1
     9    3   27 1
    10    4    5 1
    11    4   28 1
    12    4   29 1
    13    5   10 ar
    14    5    6 ar
    15    6    7 ar
    16    6   30 1
    17    7    8 ar
    18    7   22 1
    19    8    9 ar
    20    8   31 1
    21    9   15 1
    22    9   10 ar
    23   10   11 1
    24   11   12 1
    25   11   13 1
    26   13   14 1
    27   13   32 1
    28   13   33 1
    29   14   19 ar
    30   14   15 ar
    31   15   16 ar
    32   16   17 ar
    33   16   21 1
    34   17   18 ar
    35   17   20 1
    36   18   19 ar
    37   18   34 1
    38   19   35 1
    39   20   36 1
    40   21   37 1
    41   22   38 1
@<TRIPOS>MOLECULE
ZINC02021799
   46    47     0     0     0
SMALL
USER_CHARGES

@<TRIPOS>ATOM
      1 C1         -0.0187    1.5258    0.0104 C.3       1 <0>        -0.1893
      2 C2          0.0021   -0.0041    0.0020 C.3       1 <0>        -0.0139
      3 N1          0.6897   -0.4778   -1.2066 N.4       1 <0>        -0.3974
      4 C3         -0.0977   -0.1111   -2.4030 C.3       1 <0>        -0.0113
      5 C4          0.0876   -1.3002   -3.3783 C.3       1 <0>        -0.1438
      6 C5          0.0948   -2.5070   -2.4033 C.3       1 <0>        -0.1317
      7 C6          0.8183   -1.9459   -1.1611 C.3       1 <0>         0.0120
      8 H1          0.3514   -2.3311   -0.2546 H         1 <0>         0.1485
      9 C7          2.2961   -2.3403   -1.1970 C.3       1 <0>         0.0981
     10 N2          3.0089   -1.6628   -0.1111 N.am      1 <0>        -0.7506
     11 C8          4.3318   -1.8612    0.0535 C.2       1 <0>         0.5956
     12 O1          4.9339   -2.6026   -0.6995 O.2       1 <0>        -0.4886
     13 C9          5.0481   -1.1803    1.1449 C.ar      1 <0>        -0.1951
     14 C10         5.1651   -1.7913    2.4021 C.ar      1 <0>         0.1950
     15 C11         5.8414   -1.1425    3.4220 C.ar      1 <0>        -0.2063
     16 C12         6.4005    0.1034    3.2045 C.ar      1 <0>        -0.0098
     17 C13         6.2909    0.7153    1.9693 C.ar      1 <0>        -0.1548
     18 C14         5.6232    0.0809    0.9331 C.ar      1 <0>         0.1945
     19 O2          5.5216    0.6806   -0.2797 O.3       1 <0>        -0.3149
     20 C15         4.3878    1.5236   -0.4937 C.3       1 <0>         0.0360
     21 Br1         7.0607    2.4199    1.6905 Br        1 <0>        -0.0145
     22 O3          4.6172   -3.0135    2.6186 O.3       1 <0>        -0.3071
     23 C16         4.7762   -3.5738    3.9235 C.3       1 <0>         0.0205
     24 H2          1.0039    1.9031    0.0027 H         1 <0>         0.0783
     25 H3         -0.5459    1.8868   -0.8726 H         1 <0>         0.0837
     26 H4         -0.5289    1.8773    0.9072 H         1 <0>         0.1093
     27 H5          0.5293   -0.3651    0.8851 H         1 <0>         0.1245
     28 H6         -1.0205   -0.3814    0.0098 H         1 <0>         0.1359
     29 H7         -1.1498    0.0064   -2.1435 H         1 <0>         0.1364
     30 H8          0.2896    0.8066   -2.8456 H         1 <0>         0.1355
     31 H9         -0.7473   -1.3669   -4.0759 H         1 <0>         0.1218
     32 H10         1.0351   -1.2237   -3.9118 H         1 <0>         0.1008
     33 H11        -0.9229   -2.8070   -2.1539 H         1 <0>         0.1079
     34 H12         0.6508   -3.3426   -2.8285 H         1 <0>         0.1192
     35 H13         2.3873   -3.4195   -1.0737 H         1 <0>         0.1181
     36 H14         2.7275   -2.0462   -2.1538 H         1 <0>         0.0987
     37 H15         2.5287   -1.0715    0.4895 H         1 <0>         0.3931
     38 H16         5.9322   -1.6112    4.3907 H         1 <0>         0.1530
     39 H17         6.9262    0.6024    4.0052 H         1 <0>         0.1522
     40 H18         3.4743    0.9403   -0.3780 H         1 <0>         0.0251
     41 H19         4.3956    2.3347    0.2344 H         1 <0>         0.0638
     42 H20         4.4287    1.9388   -1.5007 H         1 <0>         0.1080
     43 H21         5.8378   -3.6855    4.1441 H         1 <0>         0.0679
     44 H22         4.3194   -2.9134    4.6606 H         1 <0>         0.0653
     45 H23         4.2926   -4.5500    3.9611 H         1 <0>         0.1113
     46 H24         1.6056   -0.0583   -1.2636 H         1 <0>         0.4191
@<TRIPOS>BOND
     1    1    2 1
     2    1   24 1
     3    1   25 1
     4    1   26 1
     5    2    3 1
     6    2   27 1
     7    2   28 1
     8    3    7 1
     9    3    4 1
    10    3   46 1
    11    4    5 1
    12    4   29 1
    13    4   30 1
    14    5    6 1
    15    5   31 1
    16    5   32 1
    17    6    7 1
    18    6   33 1
    19    6   34 1
    20    7    8 1
    21    7    9 1
    22    9   10 1
    23    9   35 1
    24    9   36 1
    25   10   11 am
    26   10   37 1
    27   11   12 2
    28   11   13 1
    29   13   18 ar
    30   13   14 ar
    31   14   15 ar
    32   14   22 1
    33   15   16 ar
    34   15   38 1
    35   16   17 ar
    36   16   39 1
    37   17   18 ar
    38   17   21 1
    39   18   19 1
    40   19   20 1
    41   20   40 1
    42   20   41 1
    43   20   42 1
    44   22   23 1
    45   23   43 1
    46   23   44 1
    47   23   45 1
@<TRIPOS>MOLECULE
ZINC03917109
   63    66     0     0     0
SMALL
USER_CHARGES

@<TRIPOS>ATOM
      1 C1         -0.0173    1.4248    0.0099 C.3       1 <0>         0.0228
      2 O1          0.0021   -0.0041    0.0020 O.3       1 <0>        -0.3111
      3 C2          0.6063   -0.6076   -1.0566 C.ar      1 <0>         0.1291
      4 C3          1.1727    0.1584   -2.0619 C.ar      1 <0>        -0.2022
      5 C4          1.7862   -0.4565   -3.1379 C.ar      1 <0>        -0.0669
      6 C5          1.8369   -1.8361   -3.2138 C.ar      1 <0>        -0.1491
      7 C6          1.2745   -2.6077   -2.2144 C.ar      1 <0>        -0.0822
      8 C7          0.6620   -1.9977   -1.1294 C.ar      1 <0>         0.1088
      9 N1          0.0968   -2.7768   -0.1132 N.pl3     1 <0>        -0.6636
     10 C8         -1.3057   -3.2146   -0.1871 C.3       1 <0>         0.1216
     11 C9         -1.3569   -4.7253    0.0636 C.3       1 <0>        -0.0220
     12 N2         -0.6925   -5.0320    1.3366 N.4       1 <0>        -0.3806
     13 C10         0.7338   -4.6939    1.2505 C.3       1 <0>        -0.0274
     14 C11         0.8902   -3.1864    1.0559 C.3       1 <0>         0.1218
     15 C12        -0.8376   -6.4641    1.6301 C.3       1 <0>        -0.0087
     16 C13        -0.2558   -6.7628    3.0132 C.3       1 <0>        -0.1461
     17 C14        -0.4069   -8.2543    3.3189 C.3       1 <0>        -0.1300
     18 C15         0.1750   -8.5530    4.7020 C.3       1 <0>         0.1193
     19 N3          0.0302   -9.9811    4.9947 N.am      1 <0>        -0.7331
     20 C16         0.4752  -10.4775    6.1660 C.2       1 <0>         0.5643
     21 O2          0.9967   -9.7401    6.9797 O.2       1 <0>        -0.5315
     22 C17         0.3293  -11.9181    6.4612 C.ar      1 <0>        -0.1484
     23 C18        -0.2697  -12.7675    5.5136 C.ar      1 <0>        -0.0967
     24 C19        -0.4150  -14.0939    5.7614 C.ar      1 <0>        -0.1051
     25 C20         0.0356  -14.6361    6.9791 C.ar      1 <0>        -0.0320
     26 C21        -0.1038  -16.0058    7.2582 C.ar      1 <0>        -0.1147
     27 C22         0.3421  -16.5017    8.4450 C.ar      1 <0>        -0.0983
     28 C23         0.9368  -15.6705    9.3925 C.ar      1 <0>        -0.1143
     29 C24         1.0892  -14.3386    9.1579 C.ar      1 <0>        -0.0963
     30 C25         0.6411  -13.7901    7.9427 C.ar      1 <0>        -0.0651
     31 C26         0.7884  -12.4225    7.6665 C.ar      1 <0>        -0.0245
     32 H1          1.0053    1.8021    0.0021 H         1 <0>         0.0589
     33 H2         -0.5445    1.7859   -0.8732 H         1 <0>         0.0589
     34 H3         -0.5275    1.7763    0.9067 H         1 <0>         0.1037
     35 H4          1.1348    1.2363   -2.0057 H         1 <0>         0.1341
     36 H5          2.2267    0.1425   -3.9212 H         1 <0>         0.1320
     37 H6          2.3168   -2.3119   -4.0562 H         1 <0>         0.1305
     38 H7          1.3151   -3.6852   -2.2764 H         1 <0>         0.1264
     39 H8         -1.8914   -2.6971    0.5728 H         1 <0>         0.0778
     40 H9         -1.7068   -2.9936   -1.1762 H         1 <0>         0.1138
     41 H10        -2.3961   -5.0513    0.1082 H         1 <0>         0.1357
     42 H11        -0.8470   -5.2457   -0.7471 H         1 <0>         0.1295
     43 H12         1.2353   -4.9969    2.1697 H         1 <0>         0.1375
     44 H13         1.1804   -5.2153    0.4039 H         1 <0>         0.1298
     45 H14         1.9402   -2.9468    0.8881 H         1 <0>         0.1137
     46 H15         0.5300   -2.6661    1.9434 H         1 <0>         0.0774
     47 H16        -1.8938   -6.7330    1.6144 H         1 <0>         0.1318
     48 H17        -0.3036   -7.0450    0.8781 H         1 <0>         0.1294
     49 H18         0.8004   -6.4939    3.0289 H         1 <0>         0.0916
     50 H19        -0.7898   -6.1819    3.7652 H         1 <0>         0.0922
     51 H20        -1.4631   -8.5232    3.3032 H         1 <0>         0.0826
     52 H21         0.1271   -8.8352    2.5669 H         1 <0>         0.0820
     53 H22         1.2312   -8.2841    4.7177 H         1 <0>         0.0723
     54 H23        -0.3590   -7.9721    5.4540 H         1 <0>         0.0726
     55 H24        -0.3859  -10.5695    4.3454 H         1 <0>         0.4021
     56 H25        -0.6188  -12.3588    4.5768 H         1 <0>         0.1223
     57 H26        -0.8770  -14.7335    5.0239 H         1 <0>         0.1343
     58 H27        -0.5632  -16.6627    6.5343 H         1 <0>         0.1320
     59 H28         0.2331  -17.5553    8.6557 H         1 <0>         0.1293
     60 H29         1.2814  -16.0892   10.3264 H         1 <0>         0.1298
     61 H30         1.5515  -13.7060    9.9012 H         1 <0>         0.1331
     62 H31         1.2517  -11.7677    8.3897 H         1 <0>         0.1429
     63 H32        -1.1202   -4.4947    2.0759 H         1 <0>         0.4226
@<TRIPOS>BOND
     1    1    2 1
     2    1   32 1
     3    1   33 1
     4    1   34 1
     5    2    3 1
     6    3    8 ar
     7    3    4 ar
     8    4    5 ar
     9    4   35 1
    10    5    6 ar
    11    5   36 1
    12    6    7 ar
    13    6   37 1
    14    7    8 ar
    15    7   38 1
    16    8    9 1
    17    9   14 1
    18    9   10 1
    19   10   11 1
    20   10   39 1
    21   10   40 1
    22   11   12 1
    23   11   41 1
    24   11   42 1
    25   12   13 1
    26   12   15 1
    27   12   63 1
    28   13   14 1
    29   13   43 1
    30   13   44 1
    31   14   45 1
    32   14   46 1
    33   15   16 1
    34   15   47 1
    35   15   48 1
    36   16   17 1
    37   16   49 1
    38   16   50 1
    39   17   18 1
    40   17   51 1
    41   17   52 1
    42   18   19 1
    43   18   53 1
    44   18   54 1
    45   19   20 am
    46   19   55 1
    47   20   21 2
    48   20   22 1
    49   22   31 ar
    50   22   23 ar
    51   23   24 ar
    52   23   56 1
    53   24   25 ar
    54   24   57 1
    55   25   30 ar
    56   25   26 ar
    57   26   27 ar
    58   26   58 1
    59   27   28 ar
    60   27   59 1
    61   28   29 ar
    62   28   60 1
    63   29   30 ar
    64   29   61 1
    65   30   31 ar
    66   31   62 1
@<TRIPOS>MOLECULE
ZINC03917109
   62    65     0     0     0
SMALL
USER_CHARGES

@<TRIPOS>ATOM
      1 C1         -0.0173    1.4248    0.0099 C.3       1 <0>         0.0251
      2 O1          0.0021   -0.0041    0.0020 O.3       1 <0>        -0.3039
      3 C2         -1.2013   -0.6380    0.0101 C.ar      1 <0>         0.1197
      4 C3         -2.3740    0.0989    0.0195 C.ar      1 <0>        -0.2065
      5 C4         -3.5967   -0.5469    0.0283 C.ar      1 <0>        -0.0836
      6 C5         -3.6532   -1.9283    0.0271 C.ar      1 <0>        -0.1523
      7 C6         -2.4875   -2.6710    0.0173 C.ar      1 <0>        -0.0882
      8 C7         -1.2572   -2.0300    0.0032 C.ar      1 <0>         0.1390
      9 N1         -0.0754   -2.7797   -0.0127 N.pl3     1 <0>        -0.6683
     10 C8          0.5713   -3.1961    1.2410 C.3       1 <0>         0.1532
     11 C9          0.8354   -4.7041    1.1750 C.3       1 <0>         0.0416
     12 N2          1.5913   -5.0126   -0.0462 N.3       1 <0>        -0.5348
     13 C10         0.8175   -4.6811   -1.2500 C.3       1 <0>         0.0379
     14 C11         0.5494   -3.1773   -1.2834 C.3       1 <0>         0.1529
     15 C12         2.0135   -6.4196   -0.0626 C.3       1 <0>         0.0570
     16 C13         2.9994   -6.6428   -1.2111 C.3       1 <0>        -0.1132
     17 C14         3.4391   -8.1081   -1.2283 C.3       1 <0>        -0.1303
     18 C15         4.4250   -8.3314   -2.3768 C.3       1 <0>         0.1194
     19 N3          4.8460   -9.7345   -2.3932 N.am      1 <0>        -0.7276
     20 C16         5.7188  -10.1653   -3.3255 C.2       1 <0>         0.5586
     21 O2          6.1567   -9.3896   -4.1527 O.2       1 <0>        -0.5351
     22 C17         6.1435  -11.5806   -3.3420 C.ar      1 <0>        -0.1394
     23 C18         5.6291  -12.4748   -2.3860 C.ar      1 <0>        -0.0931
     24 C19         6.0037  -13.7793   -2.3806 C.ar      1 <0>        -0.1083
     25 C20         6.9183  -14.2530   -3.3393 C.ar      1 <0>        -0.0339
     26 C21         7.3209  -15.5988   -3.3538 C.ar      1 <0>        -0.1133
     27 C22         8.2070  -16.0282   -4.2939 C.ar      1 <0>        -0.1034
     28 C23         8.7244  -15.1520   -5.2462 C.ar      1 <0>        -0.1183
     29 C24         8.3580  -13.8415   -5.2638 C.ar      1 <0>        -0.0955
     30 C25         7.4441  -13.3613   -4.3084 C.ar      1 <0>        -0.0641
     31 C26         7.0406  -12.0176   -4.3023 C.ar      1 <0>        -0.0303
     32 H1          1.0053    1.8021    0.0021 H         1 <0>         0.0993
     33 H2         -0.5445    1.7859   -0.8732 H         1 <0>         0.0537
     34 H3         -0.5275    1.7763    0.9067 H         1 <0>         0.0537
     35 H4         -2.3335    1.1781    0.0204 H         1 <0>         0.1277
     36 H5         -4.5101    0.0293    0.0363 H         1 <0>         0.1245
     37 H6         -4.6104   -2.4284    0.0343 H         1 <0>         0.1238
     38 H7         -2.5344   -3.7500    0.0168 H         1 <0>         0.1249
     39 H8          1.5150   -2.6639    1.3604 H         1 <0>         0.0581
     40 H9         -0.0855   -2.9758    2.0825 H         1 <0>         0.0690
     41 H10         1.4125   -5.0108    2.0473 H         1 <0>         0.0793
     42 H11        -0.1140   -5.2393    1.1600 H         1 <0>         0.0339
     43 H12         1.3817   -4.9710   -2.1364 H         1 <0>         0.0831
     44 H13        -0.1317   -5.2166   -1.2312 H         1 <0>         0.0333
     45 H14        -0.1219   -2.9447   -2.1101 H         1 <0>         0.0686
     46 H15         1.4910   -2.6433   -1.4113 H         1 <0>         0.0577
     47 H16         2.4960   -6.6652    0.8834 H         1 <0>         0.0748
     48 H17         1.1418   -7.0588   -0.2026 H         1 <0>         0.0322
     49 H18         2.5169   -6.3971   -2.1571 H         1 <0>         0.0668
     50 H19         3.8711   -6.0035   -1.0711 H         1 <0>         0.0766
     51 H20         3.9216   -8.3538   -0.2823 H         1 <0>         0.0712
     52 H21         2.5674   -8.7474   -1.3683 H         1 <0>         0.0684
     53 H22         3.9425   -8.0857   -3.3228 H         1 <0>         0.0696
     54 H23         5.2967   -7.6921   -2.2368 H         1 <0>         0.0713
     55 H24         4.4966  -10.3534   -1.7332 H         1 <0>         0.4001
     56 H25         4.9272  -12.1188   -1.6463 H         1 <0>         0.1252
     57 H26         5.6001  -14.4539   -1.6401 H         1 <0>         0.1336
     58 H27         6.9294  -16.2899   -2.6219 H         1 <0>         0.1303
     59 H28         8.5140  -17.0636   -4.3016 H         1 <0>         0.1266
     60 H29         9.4265  -15.5182   -5.9806 H         1 <0>         0.1272
     61 H30         8.7671  -13.1735   -6.0073 H         1 <0>         0.1318
     62 H31         7.4298  -11.3288   -5.0374 H         1 <0>         0.1429
@<TRIPOS>BOND
     1    1    2 1
     2    1   32 1
     3    1   33 1
     4    1   34 1
     5    2    3 1
     6    3    8 ar
     7    3    4 ar
     8    4    5 ar
     9    4   35 1
    10    5    6 ar
    11    5   36 1
    12    6    7 ar
    13    6   37 1
    14    7    8 ar
    15    7   38 1
    16    8    9 1
    17    9   14 1
    18    9   10 1
    19   10   11 1
    20   10   39 1
    21   10   40 1
    22   11   12 1
    23   11   41 1
    24   11   42 1
    25   12   13 1
    26   12   15 1
    27   13   14 1
    28   13   43 1
    29   13   44 1
    30   14   45 1
    31   14   46 1
    32   15   16 1
    33   15   47 1
    34   15   48 1
    35   16   17 1
    36   16   49 1
    37   16   50 1
    38   17   18 1
    39   17   51 1
    40   17   52 1
    41   18   19 1
    42   18   53 1
    43   18   54 1
    44   19   20 am
    45   19   55 1
    46   20   21 2
    47   20   22 1
    48   22   31 ar
    49   22   23 ar
    50   23   24 ar
    51   23   56 1
    52   24   25 ar
    53   24   57 1
    54   25   30 ar
    55   25   26 ar
    56   26   27 ar
    57   26   58 1
    58   27   28 ar
    59   27   59 1
    60   28   29 ar
    61   28   60 1
    62   29   30 ar
    63   29   61 1
    64   30   31 ar
    65   31   62 1
@<TRIPOS>MOLECULE
ZINC25758512
   37    40     0     0     0
SMALL
USER_CHARGES

@<TRIPOS>ATOM
      1 C1         -0.0166    1.3758    0.0096 C.ar      1 <0>        -0.1157
      2 C2          1.1763    2.0743    0.0020 C.ar      1 <0>        -0.1192
      3 C3          2.3733    1.3896   -0.0385 C.ar      1 <0>        -0.1176
      4 C4          2.4009    0.0034   -0.0861 C.ar      1 <0>        -0.0687
      5 C5          1.2046   -0.6903   -0.0209 C.ar      1 <0>        -0.1153
      6 C6          0.0021   -0.0041    0.0020 C.ar      1 <0>        -0.1124
      7 C7          1.1747   -2.1927    0.1001 C.3       1 <0>         0.0903
      8 N1          2.4687   -2.6697    0.6185 N.3       1 <0>        -0.6611
      9 C8          3.5248   -2.2256   -0.2859 C.3       1 <0>         0.0873
     10 H1          3.2495   -2.4784   -1.3135 H         1 <0>         0.0869
     11 C9          3.7062   -0.7101   -0.1807 C.3       1 <0>        -0.0427
     12 H2          4.2639   -0.5125    0.7432 H         1 <0>         0.0912
     13 C10         4.5908   -0.3033   -1.3255 C.ar      1 <0>        -0.0537
     14 C11         4.3958    0.8864   -1.9965 C.ar      1 <0>        -0.1327
     15 C12         5.2340    1.2611   -3.0353 C.ar      1 <0>         0.0776
     16 C13         6.2733    0.4178   -3.4135 C.ar      1 <0>         0.0830
     17 C14         6.4491   -0.7850   -2.7594 C.ar      1 <0>        -0.1337
     18 C15         5.6055   -1.1624   -1.7191 C.ar      1 <0>        -0.0657
     19 C16         5.8510   -2.5104   -1.0979 C.3       1 <0>        -0.0803
     20 C17         4.8823   -2.8512    0.0309 C.3       1 <0>        -0.1091
     21 O1          7.1132    0.7761   -4.4215 O.3       1 <0>        -0.4882
     22 O2          5.0382    2.4433   -3.6773 O.3       1 <0>        -0.4862
     23 H3         -0.9564    1.9057    0.0259 H         1 <0>         0.1245
     24 H4          1.1697    3.1547    0.0285 H         1 <0>         0.1242
     25 H5          3.3025    1.9411   -0.0098 H         1 <0>         0.1225
     26 H6         -0.9296   -0.5512    0.0145 H         1 <0>         0.1248
     27 H7          0.3852   -2.4841    0.7865 H         1 <0>         0.0925
     28 H8          1.0003   -2.6301   -0.8788 H         1 <0>         0.0889
     29 H9          2.6220   -2.3300    1.5564 H         1 <0>         0.3432
     30 H10         3.5793    1.5447   -1.7458 H         1 <0>         0.1418
     31 H11         7.2519   -1.4441   -3.0565 H         1 <0>         0.1336
     32 H12         5.7665   -3.2743   -1.8756 H         1 <0>         0.0813
     33 H13         6.8713   -2.5358   -0.7070 H         1 <0>         0.0819
     34 H14         5.2573   -2.4506    0.9741 H         1 <0>         0.0674
     35 H15         4.7745   -3.9334    0.1136 H         1 <0>         0.0849
     36 H16         7.8888    1.2742   -4.1290 H         1 <0>         0.3876
     37 H17         5.5166    3.1871   -3.2864 H         1 <0>         0.3869
@<TRIPOS>BOND
     1    1    6 ar
     2    1    2 ar
     3    1   23 1
     4    2    3 ar
     5    2   24 1
     6    3    4 ar
     7    3   25 1
     8    4   11 1
     9    4    5 ar
    10    5    6 ar
    11    5    7 1
    12    6   26 1
    13    7    8 1
    14    7   27 1
    15    7   28 1
    16    8    9 1
    17    8   29 1
    18    9   10 1
    19    9   20 1
    20    9   11 1
    21   11   12 1
    22   11   13 1
    23   13   18 ar
    24   13   14 ar
    25   14   15 ar
    26   14   30 1
    27   15   16 ar
    28   15   22 1
    29   16   17 ar
    30   16   21 1
    31   17   18 ar
    32   17   31 1
    33   18   19 1
    34   19   20 1
    35   19   32 1
    36   19   33 1
    37   20   34 1
    38   20   35 1
    39   21   36 1
    40   22   37 1
@<TRIPOS>MOLECULE
ZINC00020229
   47    48     0     0     0
SMALL
USER_CHARGES

@<TRIPOS>ATOM
      1 C1         -1.2761   -4.3639   -3.1085 C.3       1 <0>        -0.1860
      2 C2         -0.7301   -3.6161   -1.8905 C.3       1 <0>        -0.0234
      3 N1          0.2843   -2.6466   -2.3253 N.4       1 <0>        -0.3833
      4 C3          1.4464   -3.3632   -2.8927 C.3       1 <0>        -0.0112
      5 C4          2.6766   -2.5276   -2.4593 C.3       1 <0>        -0.1411
      6 C5          2.2619   -2.0751   -1.0345 C.3       1 <0>        -0.1419
      7 C6          0.7406   -1.8536   -1.1692 C.3       1 <0>         0.0089
      8 H1          0.5334   -0.7970   -1.3392 H         1 <0>         0.1471
      9 C7          0.0311   -2.3285    0.1004 C.3       1 <0>         0.1054
     10 N2          0.4414   -1.4922    1.2311 N.am      1 <0>        -0.7353
     11 C8          0.0201   -1.7888    2.4765 C.2       1 <0>         0.5739
     12 O1         -0.7005   -2.7505    2.6616 O.2       1 <0>        -0.5006
     13 C9          0.4333   -0.9466    3.6152 C.ar      1 <0>        -0.2025
     14 C10         1.2564    0.1627    3.4063 C.ar      1 <0>         0.0538
     15 C11         1.6384    0.9456    4.4739 C.ar      1 <0>        -0.7232
     16 C12         1.2099    0.6379    5.7550 C.ar      1 <0>         0.0546
     17 C13         0.3962   -0.4554    5.9756 C.ar      1 <0>        -0.2336
     18 C14        -0.0024   -1.2513    4.9118 C.ar      1 <0>         0.2462
     19 O2         -0.8061   -2.3229    5.1263 O.3       1 <0>        -0.2744
     20 C15        -1.2100   -2.5714    6.4743 C.3       1 <0>         0.0127
     21 S1          2.6771    2.3440    4.2087 S.o2      1 <0>         2.7060
     22 O3          3.3381    2.5983    5.4406 O.2       1 <0>        -0.9541
     23 O4          3.3846    2.1011    3.0005 O.2       1 <0>        -0.9646
     24 N3          1.6882    3.6417    3.9255 N.pl3     1 <0>        -1.2497
     25 H2         -1.7267   -3.6520   -3.8000 H         1 <0>         0.0803
     26 H3         -0.4617   -4.8893   -3.6074 H         1 <0>         0.0801
     27 H4         -2.0288   -5.0832   -2.7858 H         1 <0>         0.1066
     28 H5         -1.5444   -3.0907   -1.3916 H         1 <0>         0.1351
     29 H6         -0.2794   -4.3280   -1.1990 H         1 <0>         0.1332
     30 H7          1.5084   -4.3710   -2.4820 H         1 <0>         0.1334
     31 H8          1.3761   -3.3993   -3.9799 H         1 <0>         0.1378
     32 H9          3.5754   -3.1435   -2.4272 H         1 <0>         0.1196
     33 H10         2.8167   -1.6692   -3.1163 H         1 <0>         0.1013
     34 H11         2.4744   -2.8565   -0.3048 H         1 <0>         0.1036
     35 H12         2.7641   -1.1464   -0.7636 H         1 <0>         0.1180
     36 H13        -1.0477   -2.2516   -0.0358 H         1 <0>         0.0915
     37 H14         0.2990   -3.3661    0.2999 H         1 <0>         0.0952
     38 H15         1.0162   -0.7250    1.0834 H         1 <0>         0.4053
     39 H16         1.5932    0.4061    2.4094 H         1 <0>         0.1478
     40 H17         1.5144    1.2568    6.5860 H         1 <0>         0.1569
     41 H18         0.0663   -0.6888    6.9771 H         1 <0>         0.1535
     42 H19        -0.3283   -2.7381    7.0930 H         1 <0>         0.0668
     43 H20        -1.7619   -1.7109    6.8527 H         1 <0>         0.0666
     44 H21        -1.8481   -3.4546    6.5055 H         1 <0>         0.1133
     45 H22         0.7249    3.5276    3.9304 H         1 <0>         0.4171
     46 H23         2.0722    4.5159    3.7546 H         1 <0>         0.4246
     47 H24        -0.1083   -2.0336   -3.0240 H         1 <0>         0.4289
@<TRIPOS>BOND
     1    1    2 1
     2    1   25 1
     3    1   26 1
     4    1   27 1
     5    2    3 1
     6    2   28 1
     7    2   29 1
     8    3    7 1
     9    3    4 1
    10    3   47 1
    11    4    5 1
    12    4   30 1
    13    4   31 1
    14    5    6 1
    15    5   32 1
    16    5   33 1
    17    6    7 1
    18    6   34 1
    19    6   35 1
    20    7    8 1
    21    7    9 1
    22    9   10 1
    23    9   36 1
    24    9   37 1
    25   10   11 am
    26   10   38 1
    27   11   12 2
    28   11   13 1
    29   13   18 ar
    30   13   14 ar
    31   14   15 ar
    32   14   39 1
    33   15   16 ar
    34   15   21 1
    35   16   17 ar
    36   16   40 1
    37   17   18 ar
    38   17   41 1
    39   18   19 1
    40   19   20 1
    41   20   42 1
    42   20   43 1
    43   20   44 1
    44   21   22 2
    45   21   23 2
    46   21   24 1
    47   24   45 1
    48   24   46 1
@<TRIPOS>MOLECULE
ZINC00057008
   47    48     0     0     0
SMALL
USER_CHARGES

@<TRIPOS>ATOM
      1 C1         -0.0187    1.5258    0.0104 C.3       1 <0>        -0.1897
      2 C2          0.0021   -0.0041    0.0020 C.3       1 <0>        -0.0136
      3 N1          0.6897   -0.4778   -1.2066 N.4       1 <0>        -0.3974
      4 C3         -0.0977   -0.1111   -2.4030 C.3       1 <0>        -0.0106
      5 C4          0.0876   -1.3002   -3.3783 C.3       1 <0>        -0.1438
      6 C5          0.0948   -2.5070   -2.4033 C.3       1 <0>        -0.1316
      7 C6          0.8183   -1.9459   -1.1611 C.3       1 <0>         0.0107
      8 H1          0.3514   -2.3311   -0.2546 H         1 <0>         0.1483
      9 C7          2.2961   -2.3403   -1.1970 C.3       1 <0>         0.1010
     10 N2          3.0089   -1.6628   -0.1111 N.am      1 <0>        -0.7578
     11 C8          4.3318   -1.8612    0.0535 C.2       1 <0>         0.5719
     12 O1          4.9337   -2.6023   -0.6993 O.2       1 <0>        -0.4872
     13 C9          5.0496   -1.1789    1.1471 C.ar      1 <0>        -0.2038
     14 C10         4.3608   -0.3309    2.0180 C.ar      1 <0>         0.0500
     15 C11         5.0369    0.3029    3.0376 C.ar      1 <0>        -0.7236
     16 C12         6.3978    0.1034    3.2039 C.ar      1 <0>         0.0551
     17 C13         7.0907   -0.7318    2.3505 C.ar      1 <0>        -0.2312
     18 C14         6.4251   -1.3822    1.3219 C.ar      1 <0>         0.2480
     19 O2          7.1035   -2.2073    0.4857 O.3       1 <0>        -0.2733
     20 C15         8.5034   -2.3657    0.7254 C.3       1 <0>         0.0122
     21 S1          4.1669    1.3725    4.1347 S.o2      1 <0>         2.7072
     22 O3          5.1271    2.2718    4.6717 O.2       1 <0>        -0.9524
     23 O4          3.0123    1.8184    3.4366 O.2       1 <0>        -0.9690
     24 N3          3.6282    0.4460    5.3971 N.pl3     1 <0>        -1.2496
     25 H2          1.0039    1.9031    0.0027 H         1 <0>         0.0828
     26 H3         -0.5459    1.8868   -0.8726 H         1 <0>         0.0811
     27 H4         -0.5289    1.8773    0.9072 H         1 <0>         0.1105
     28 H5          0.5293   -0.3651    0.8851 H         1 <0>         0.1249
     29 H6         -1.0205   -0.3814    0.0098 H         1 <0>         0.1346
     30 H7         -1.1498    0.0064   -2.1435 H         1 <0>         0.1360
     31 H8          0.2896    0.8066   -2.8456 H         1 <0>         0.1357
     32 H9         -0.7473   -1.3669   -4.0759 H         1 <0>         0.1211
     33 H10         1.0351   -1.2237   -3.9118 H         1 <0>         0.0999
     34 H11        -0.9229   -2.8070   -2.1539 H         1 <0>         0.1077
     35 H12         0.6508   -3.3426   -2.8285 H         1 <0>         0.1183
     36 H13         2.3873   -3.4195   -1.0737 H         1 <0>         0.1172
     37 H14         2.7275   -2.0462   -2.1538 H         1 <0>         0.0984
     38 H15         2.5287   -1.0715    0.4895 H         1 <0>         0.3924
     39 H16         3.3000   -0.1722    1.8919 H         1 <0>         0.1417
     40 H17         6.9199    0.6046    4.0056 H         1 <0>         0.1577
     41 H18         8.1514   -0.8823    2.4865 H         1 <0>         0.1548
     42 H19         8.9974   -1.3974    0.6459 H         1 <0>         0.0674
     43 H20         8.6572   -2.7711    1.7254 H         1 <0>         0.0675
     44 H21         8.9232   -3.0494   -0.0124 H         1 <0>         0.1149
     45 H22         3.8201   -0.5046    5.4176 H         1 <0>         0.4178
     46 H23         3.1208    0.8539    6.1162 H         1 <0>         0.4251
     47 H24         1.6056   -0.0583   -1.2636 H         1 <0>         0.4224
@<TRIPOS>BOND
     1    1    2 1
     2    1   25 1
     3    1   26 1
     4    1   27 1
     5    2    3 1
     6    2   28 1
     7    2   29 1
     8    3    7 1
     9    3    4 1
    10    3   47 1
    11    4    5 1
    12    4   30 1
    13    4   31 1
    14    5    6 1
    15    5   32 1
    16    5   33 1
    17    6    7 1
    18    6   34 1
    19    6   35 1
    20    7    8 1
    21    7    9 1
    22    9   10 1
    23    9   36 1
    24    9   37 1
    25   10   11 am
    26   10   38 1
    27   11   12 2
    28   11   13 1
    29   13   18 ar
    30   13   14 ar
    31   14   15 ar
    32   14   39 1
    33   15   16 ar
    34   15   21 1
    35   16   17 ar
    36   16   40 1
    37   17   18 ar
    38   17   41 1
    39   18   19 1
    40   19   20 1
    41   20   42 1
    42   20   43 1
    43   20   44 1
    44   21   22 2
    45   21   23 2
    46   21   24 1
    47   24   45 1
    48   24   46 1
@<TRIPOS>MOLECULE
ZINC03872369
   27    28     0     0     0
SMALL
USER_CHARGES

@<TRIPOS>ATOM
      1 C1         -0.0167    1.3781    0.0096 C.ar      1 <0>        -0.1278
      2 C2          1.1699    2.1013    0.0022 C.ar      1 <0>        -0.0760
      3 C3          2.3760    1.4373   -0.0096 C.ar      1 <0>        -0.0871
      4 C4          2.3994    0.0479   -0.0213 C.ar      1 <0>        -0.1240
      5 C5          1.2214   -0.6754   -0.0154 C.ar      1 <0>         0.0920
      6 C6          0.0021   -0.0041    0.0020 C.ar      1 <0>         0.1009
      7 O1         -1.1639   -0.7039    0.0111 O.3       1 <0>        -0.4894
      8 O2          1.2536   -2.0349   -0.0267 O.3       1 <0>        -0.4893
      9 C7          3.6985    2.1589   -0.0019 C.3       1 <0>        -0.0938
     10 C8          3.5179    3.6167   -0.4196 C.3       1 <0>         0.0260
     11 H1          3.2457    3.6655   -1.4739 H         1 <0>         0.1479
     12 C9          2.3990    4.2287    0.4314 C.3       1 <0>        -0.1401
     13 C10         1.0724    3.6047    0.0035 C.3       1 <0>        -0.0778
     14 N1          4.7691    4.3537   -0.1972 N.4       1 <0>        -0.6353
     15 H2         -0.9618    1.9005    0.0260 H         1 <0>         0.1401
     16 H3          3.3462   -0.4714   -0.0354 H         1 <0>         0.1375
     17 H4         -1.5109   -0.9016   -0.8696 H         1 <0>         0.4018
     18 H5          1.2716   -2.4352    0.8534 H         1 <0>         0.4007
     19 H6          4.1219    2.1225    1.0018 H         1 <0>         0.0992
     20 H7          4.3799    1.6678   -0.6967 H         1 <0>         0.1015
     21 H8          2.5814    4.0169    1.4850 H         1 <0>         0.0947
     22 H9          2.3655    5.3067    0.2736 H         1 <0>         0.0960
     23 H10         0.8201    3.9494   -0.9994 H         1 <0>         0.0921
     24 H11         0.2898    3.9135    0.6965 H         1 <0>         0.0998
     25 H12         5.5067    3.9374   -0.7456 H         1 <0>         0.4376
     26 H13         4.6463    5.3161   -0.4741 H         1 <0>         0.4386
     27 H14         5.0137    4.3137    0.7809 H         1 <0>         0.4342
@<TRIPOS>BOND
     1    1    6 ar
     2    1    2 ar
     3    1   15 1
     4    2   13 1
     5    2    3 ar
     6    3    4 ar
     7    3    9 1
     8    4    5 ar
     9    4   16 1
    10    5    6 ar
    11    5    8 1
    12    6    7 1
    13    7   17 1
    14    8   18 1
    15    9   10 1
    16    9   19 1
    17    9   20 1
    18   10   11 1
    19   10   12 1
    20   10   14 1
    21   12   13 1
    22   12   21 1
    23   12   22 1
    24   13   23 1
    25   13   24 1
    26   14   25 1
    27   14   26 1
    28   14   27 1
@<TRIPOS>MOLECULE
ZINC03872370
   27    28     0     0     0
SMALL
USER_CHARGES

@<TRIPOS>ATOM
      1 C1         -0.0167    1.3781    0.0096 C.ar      1 <0>        -0.1279
      2 C2          1.1699    2.1013    0.0022 C.ar      1 <0>        -0.0759
      3 C3          2.3760    1.4373   -0.0161 C.ar      1 <0>        -0.0872
      4 C4          2.3994    0.0479   -0.0197 C.ar      1 <0>        -0.1239
      5 C5          1.2215   -0.6754   -0.0113 C.ar      1 <0>         0.0920
      6 C6          0.0021   -0.0041    0.0020 C.ar      1 <0>         0.1009
      7 O1         -1.1639   -0.7039    0.0071 O.3       1 <0>        -0.4896
      8 O2          1.2537   -2.0349   -0.0165 O.3       1 <0>        -0.4892
      9 C7          3.6981    2.1591   -0.0413 C.3       1 <0>        -0.0938
     10 C8          3.5257    3.6124    0.3953 C.3       1 <0>         0.0259
     11 H1          3.2736    3.6498    1.4550 H         1 <0>         0.1479
     12 C9          2.3908    4.2333   -0.4277 C.3       1 <0>        -0.1401
     13 C10         1.0726    3.6046    0.0188 C.3       1 <0>        -0.0778
     14 N1          4.7725    4.3518    0.1570 N.4       1 <0>        -0.6353
     15 H2         -0.9618    1.9005    0.0260 H         1 <0>         0.1402
     16 H3          3.3463   -0.4714   -0.0296 H         1 <0>         0.1375
     17 H4         -1.5079   -0.9016   -0.8747 H         1 <0>         0.4019
     18 H5          1.2713   -2.4313    0.8653 H         1 <0>         0.4006
     19 H6          4.3926    1.6607    0.6351 H         1 <0>         0.1014
     20 H7          4.1023    2.1334   -1.0533 H         1 <0>         0.0992
     21 H8          2.3605    5.3095   -0.2578 H         1 <0>         0.0960
     22 H9          2.5531    4.0327   -1.4867 H         1 <0>         0.0946
     23 H10         0.2769    3.9207   -0.6559 H         1 <0>         0.0998
     24 H11         0.8394    3.9385    1.0299 H         1 <0>         0.0921
     25 H12         4.9984    4.3223   -0.8260 H         1 <0>         0.4343
     26 H13         4.6551    5.3112    0.4464 H         1 <0>         0.4387
     27 H14         5.5203    3.9297    0.6868 H         1 <0>         0.4376
@<TRIPOS>BOND
     1    1    6 ar
     2    1    2 ar
     3    1   15 1
     4    2   13 1
     5    2    3 ar
     6    3    4 ar
     7    3    9 1
     8    4    5 ar
     9    4   16 1
    10    5    6 ar
    11    5    8 1
    12    6    7 1
    13    7   17 1
    14    8   18 1
    15    9   10 1
    16    9   19 1
    17    9   20 1
    18   10   11 1
    19   10   12 1
    20   10   14 1
    21   12   13 1
    22   12   21 1
    23   12   22 1
    24   13   23 1
    25   13   24 1
    26   14   25 1
    27   14   26 1
    28   14   27 1
@<TRIPOS>MOLECULE
ZINC00643233
   56    59     0     0     0
SMALL
USER_CHARGES

@<TRIPOS>ATOM
      1 C1         -0.0167    1.3786    0.0096 C.ar      1 <0>        -0.1573
      2 C2          1.1695    2.0894    0.0021 C.ar      1 <0>        -0.0635
      3 C3          2.3774    1.4200   -0.0130 C.ar      1 <0>        -0.1784
      4 C4          2.3998    0.0311   -0.0206 C.ar      1 <0>         0.2317
      5 C5          1.2064   -0.6798   -0.0130 C.ar      1 <0>        -0.1988
      6 C6          0.0021   -0.0041    0.0020 C.ar      1 <0>        -0.0706
      7 N1          3.6196   -0.6492   -0.0363 N.pl3     1 <0>        -0.6334
      8 C7          4.9637   -0.0571   -0.0400 C.3       1 <0>         0.3326
      9 N2          5.9388   -1.1470   -0.0572 N.am      1 <0>        -0.7166
     10 C8          5.3099   -2.3344   -0.0641 C.2       1 <0>         0.5288
     11 O1          5.8532   -3.4187   -0.0778 O.2       1 <0>        -0.5133
     12 C9          3.8222   -2.1026   -0.0461 C.3       1 <0>         0.1361
     13 C10         3.1820   -2.7114   -1.2943 C.3       1 <0>        -0.1499
     14 C11         3.3480   -4.2326   -1.2552 C.3       1 <0>        -0.0132
     15 N3          2.7020   -4.7671   -0.0503 N.4       1 <0>        -0.3794
     16 C12         3.3698   -4.2457    1.1482 C.3       1 <0>        -0.0190
     17 C13         3.2050   -2.7250    1.2070 C.3       1 <0>        -0.1492
     18 C14         2.7905   -6.2335   -0.0591 C.3       1 <0>        -0.0094
     19 C15         2.0109   -6.7986    1.1299 C.3       1 <0>        -0.1425
     20 C16         2.1030   -8.3258    1.1207 C.3       1 <0>        -0.1654
     21 C17         1.3351   -8.8824    2.2919 C.2       1 <0>         0.4040
     22 O2          0.7698   -8.1316    3.0583 O.2       1 <0>        -0.4484
     23 C18         1.2712  -10.3355    2.5052 C.ar      1 <0>        -0.1962
     24 C19         1.9272  -11.2044    1.6259 C.ar      1 <0>        -0.0430
     25 C20         1.8634  -12.5650    1.8315 C.ar      1 <0>        -0.1669
     26 C21         1.1505  -13.0743    2.9070 C.ar      1 <0>         0.1434
     27 C22         0.4980  -12.2186    3.7823 C.ar      1 <0>        -0.1651
     28 C23         0.5590  -10.8557    3.5917 C.ar      1 <0>        -0.0262
     29 F1          1.0910  -14.4098    3.1025 F         1 <0>        -0.1261
     30 H1         -0.9598    1.9046    0.0260 H         1 <0>         0.1276
     31 H2          1.1513    3.1692    0.0077 H         1 <0>         0.1312
     32 H3          3.3034    1.9757   -0.0192 H         1 <0>         0.1257
     33 H4          1.2204   -1.7597   -0.0193 H         1 <0>         0.1144
     34 H5         -0.9261   -0.5561    0.0079 H         1 <0>         0.1276
     35 H6          5.0901    0.5643   -0.9265 H         1 <0>         0.0880
     36 H7          5.1025    0.5473    0.8564 H         1 <0>         0.0877
     37 H8          6.9016   -1.0295   -0.0627 H         1 <0>         0.4365
     38 H9          2.1214   -2.4613   -1.3183 H         1 <0>         0.1096
     39 H10         3.6706   -2.3147   -2.1843 H         1 <0>         0.1192
     40 H11         2.8858   -4.6710   -2.1397 H         1 <0>         0.1383
     41 H12         4.4090   -4.4817   -1.2391 H         1 <0>         0.1470
     42 H13         2.9238   -4.6937    2.0361 H         1 <0>         0.1399
     43 H14         4.4303   -4.4946    1.1101 H         1 <0>         0.1471
     44 H15         3.7099   -2.3380    2.0921 H         1 <0>         0.1189
     45 H16         2.1450   -2.4752    1.2532 H         1 <0>         0.1098
     46 H17         2.3668   -6.6175   -0.9870 H         1 <0>         0.1347
     47 H18         3.8354   -6.5348    0.0153 H         1 <0>         0.1347
     48 H19         2.4346   -6.4145    2.0578 H         1 <0>         0.0947
     49 H20         0.9660   -6.4972    1.0555 H         1 <0>         0.0950
     50 H21         1.6793   -8.7098    0.1928 H         1 <0>         0.1132
     51 H22         3.1479   -8.6271    1.1951 H         1 <0>         0.1132
     52 H23         2.4820  -10.8091    0.7879 H         1 <0>         0.1415
     53 H24         2.3692  -13.2366    1.1537 H         1 <0>         0.1468
     54 H25        -0.0554  -12.6215    4.6177 H         1 <0>         0.1475
     55 H26         0.0543  -10.1903    4.2765 H         1 <0>         0.1457
     56 H27         1.7315   -4.4913   -0.0400 H         1 <0>         0.4195
@<TRIPOS>BOND
     1    1    6 ar
     2    1    2 ar
     3    1   30 1
     4    2    3 ar
     5    2   31 1
     6    3    4 ar
     7    3   32 1
     8    4    5 ar
     9    4    7 1
    10    5    6 ar
    11    5   33 1
    12    6   34 1
    13    7   12 1
    14    7    8 1
    15    8    9 1
    16    8   35 1
    17    8   36 1
    18    9   10 am
    19    9   37 1
    20   10   11 2
    21   10   12 1
    22   12   17 1
    23   12   13 1
    24   13   14 1
    25   13   38 1
    26   13   39 1
    27   14   15 1
    28   14   40 1
    29   14   41 1
    30   15   16 1
    31   15   18 1
    32   15   56 1
    33   16   17 1
    34   16   42 1
    35   16   43 1
    36   17   44 1
    37   17   45 1
    38   18   19 1
    39   18   46 1
    40   18   47 1
    41   19   20 1
    42   19   48 1
    43   19   49 1
    44   20   21 1
    45   20   50 1
    46   20   51 1
    47   21   22 2
    48   21   23 1
    49   23   28 ar
    50   23   24 ar
    51   24   25 ar
    52   24   52 1
    53   25   26 ar
    54   25   53 1
    55   26   27 ar
    56   26   29 1
    57   27   28 ar
    58   27   54 1
    59   28   55 1
@<TRIPOS>MOLECULE
ZINC28764148
   66    69     0     0     0
SMALL
USER_CHARGES
8-[4-[4-(2-methoxyphenyl)piperazin-1-yl]butyl]-8-azaspiro[4.5]decane-7,9-dione
@<TRIPOS>ATOM
      1 C1         -1.1455    3.4824    0.0264 C.3       1 <0>         0.0170
      2 O1         -1.2029    2.0546    0.0189 O.3       1 <0>        -0.2995
      3 C2         -0.0168    1.3889    0.0097 C.ar      1 <0>         0.1636
      4 C3          1.1751    2.0944    0.0021 C.ar      1 <0>        -0.2029
      5 C4          2.3802    1.4164   -0.0135 C.ar      1 <0>        -0.0629
      6 C5          2.3999    0.0340   -0.0207 C.ar      1 <0>        -0.1460
      7 C6          1.2148   -0.6775   -0.0132 C.ar      1 <0>        -0.1059
      8 C7          0.0021   -0.0041    0.0020 C.ar      1 <0>         0.0250
      9 N1         -1.1993   -0.7222    0.0092 N.pl3     1 <0>        -0.4820
     10 C8         -1.3293   -1.5189    1.2371 C.3       1 <0>         0.0306
     11 C9         -2.6874   -2.2247    1.2428 C.3       1 <0>        -0.0027
     12 N2         -2.7984   -3.0773    0.0510 N.4       1 <0>        -0.4006
     13 C10        -2.6684   -2.2806   -1.1770 C.3       1 <0>         0.0019
     14 C11        -1.3103   -1.5748   -1.1826 C.3       1 <0>         0.0296
     15 C12        -4.0593   -3.8310    0.0585 C.3       1 <0>        -0.0045
     16 C13        -4.0493   -4.8302    1.2171 C.3       1 <0>        -0.1441
     17 C14        -5.3625   -5.6152    1.2249 C.3       1 <0>        -0.1297
     18 C15        -5.3525   -6.6144    2.3836 C.3       1 <0>         0.0887
     19 N3         -6.6100   -7.3660    2.3911 N.am      1 <0>        -0.5672
     20 C16        -7.6401   -6.8859    3.1031 C.2       1 <0>         0.5272
     21 O2         -7.5108   -5.8424    3.7063 O.2       1 <0>        -0.4992
     22 C17        -8.9569   -7.6156    3.1633 C.3       1 <0>        -0.1365
     23 C18        -9.1441   -8.4260    1.8817 C.3       1 <0>        -0.0691
     24 C19       -10.4291   -9.2611    1.9664 C.3       1 <0>        -0.1176
     25 C20       -11.3343   -8.7893    0.8083 C.3       1 <0>        -0.1284
     26 C21       -10.3488   -8.1812   -0.2209 C.3       1 <0>        -0.1196
     27 C22        -9.3023   -7.4777    0.6800 C.3       1 <0>        -0.1167
     28 C23        -7.9364   -9.3376    1.6701 C.3       1 <0>        -0.1354
     29 C24        -6.6794   -8.5072    1.6899 C.2       1 <0>         0.5275
     30 O3         -5.7121   -8.8778    1.0603 O.2       1 <0>        -0.4993
     31 H1         -2.1670    3.8904    0.0334 H         1 <0>         0.1068
     32 H2         -0.6169    3.8328   -0.8724 H         1 <0>         0.0598
     33 H3         -0.6084    3.8230    0.9239 H         1 <0>         0.0598
     34 H4          1.1633    3.1743    0.0076 H         1 <0>         0.1379
     35 H5          3.3085    1.9682   -0.0198 H         1 <0>         0.1337
     36 H6          3.3435   -0.4913   -0.0325 H         1 <0>         0.1306
     37 H7          1.2330   -1.7573   -0.0195 H         1 <0>         0.1243
     38 H8         -0.5252   -2.2686    1.2746 H         1 <0>         0.0626
     39 H9         -1.2550   -0.8575    2.1129 H         1 <0>         0.1233
     40 H10        -2.7748   -2.8443    2.1475 H         1 <0>         0.1378
     41 H11        -3.4910   -1.4736    1.2337 H         1 <0>         0.1372
     42 H12        -2.7426   -2.9421   -2.0528 H         1 <0>         0.1372
     43 H13        -3.4725   -1.5309   -1.2146 H         1 <0>         0.1367
     44 H14        -1.2221   -0.9545   -2.0867 H         1 <0>         0.1237
     45 H15        -0.5060   -2.3251   -1.1729 H         1 <0>         0.0629
     46 H16        -4.9019   -3.1348    0.1820 H         1 <0>         0.1293
     47 H17        -4.1681   -4.3732   -0.8924 H         1 <0>         0.1324
     48 H18        -3.2067   -5.5264    1.0936 H         1 <0>         0.0915
     49 H19        -3.9406   -4.2880    2.1680 H         1 <0>         0.0909
     50 H20        -6.2051   -4.9190    1.3484 H         1 <0>         0.0797
     51 H21        -5.4712   -6.1574    0.2740 H         1 <0>         0.0797
     52 H22        -4.5099   -7.3106    2.2601 H         1 <0>         0.0995
     53 H23        -5.2437   -6.0722    3.3345 H         1 <0>         0.0995
     54 H24        -8.9619   -8.2920    4.0308 H         1 <0>         0.1166
     55 H25        -9.7755   -6.8874    3.2614 H         1 <0>         0.1199
     56 H26       -10.1808  -10.3276    1.8623 H         1 <0>         0.0760
     57 H27       -10.9137   -9.0907    2.9391 H         1 <0>         0.0760
     58 H28       -11.8818   -9.6501    0.3968 H         1 <0>         0.0721
     59 H29       -12.0512   -8.0441    1.1834 H         1 <0>         0.0696
     60 H30        -9.9118   -8.9862   -0.8300 H         1 <0>         0.0719
     61 H31       -10.8876   -7.4787   -0.8737 H         1 <0>         0.0716
     62 H32        -9.6523   -6.4958    1.0313 H         1 <0>         0.0742
     63 H33        -8.3324   -7.3617    0.1742 H         1 <0>         0.0603
     64 H34        -7.8968  -10.0865    2.4748 H         1 <0>         0.1165
     65 H35        -8.0271   -9.8470    0.6994 H         1 <0>         0.1198
     66 H36        -1.9720   -3.8030    0.0743 H         1 <0>         0.4373
@<TRIPOS>BOND
     1    1    2 1
     2    1   31 1
     3    1   32 1
     4    1   33 1
     5    2    3 1
     6    3    8 ar
     7    3    4 ar
     8    4    5 ar
     9    4   34 1
    10    5    6 ar
    11    5   35 1
    12    6    7 ar
    13    6   36 1
    14    7    8 ar
    15    7   37 1
    16    8    9 1
    17    9   14 1
    18    9   10 1
    19   10   11 1
    20   10   38 1
    21   10   39 1
    22   11   12 1
    23   11   40 1
    24   11   41 1
    25   12   13 1
    26   12   15 1
    27   12   66 1
    28   13   14 1
    29   13   42 1
    30   13   43 1
    31   14   44 1
    32   14   45 1
    33   15   16 1
    34   15   46 1
    35   15   47 1
    36   16   17 1
    37   16   48 1
    38   16   49 1
    39   17   18 1
    40   17   50 1
    41   17   51 1
    42   18   19 1
    43   18   52 1
    44   18   53 1
    45   19   29 am
    46   19   20 am
    47   20   21 2
    48   20   22 1
    49   22   23 1
    50   22   54 1
    51   22   55 1
    52   23   27 1
    53   23   24 1
    54   23   28 1
    55   24   25 1
    56   24   56 1
    57   24   57 1
    58   25   26 1
    59   25   58 1
    60   25   59 1
    61   26   27 1
    62   26   60 1
    63   26   61 1
    64   27   62 1
    65   27   63 1
    66   28   29 1
    67   28   64 1
    68   28   65 1
    69   29   30 2
@<TRIPOS>MOLECULE
ZINC28764148
   65    68     0     0     0
SMALL
USER_CHARGES
8-[4-[4-(2-methoxyphenyl)piperazin-1-yl]butyl]-8-azaspiro[4.5]decane-7,9-dione
@<TRIPOS>ATOM
      1 C1         -1.1455    3.4824    0.0264 C.3       1 <0>         0.0199
      2 O1         -1.2029    2.0546    0.0189 O.3       1 <0>        -0.2957
      3 C2         -0.0168    1.3889    0.0097 C.ar      1 <0>         0.1513
      4 C3          1.1751    2.0944    0.0021 C.ar      1 <0>        -0.2073
      5 C4          2.3802    1.4164   -0.0135 C.ar      1 <0>        -0.0803
      6 C5          2.3999    0.0340   -0.0207 C.ar      1 <0>        -0.1493
      7 C6          1.2148   -0.6775   -0.0132 C.ar      1 <0>        -0.1080
      8 C7          0.0021   -0.0041    0.0020 C.ar      1 <0>         0.0531
      9 N1         -1.1993   -0.7222    0.0092 N.pl3     1 <0>        -0.4905
     10 C8         -1.3293   -1.5189    1.2371 C.3       1 <0>         0.0628
     11 C9         -2.6874   -2.2247    1.2428 C.3       1 <0>         0.0540
     12 N2         -2.7984   -3.0773    0.0510 N.3       1 <0>        -0.5390
     13 C10        -2.6684   -2.2806   -1.1770 C.3       1 <0>         0.0570
     14 C11        -1.3103   -1.5748   -1.1826 C.3       1 <0>         0.0624
     15 C12        -4.0593   -3.8310    0.0585 C.3       1 <0>         0.0573
     16 C13        -4.0493   -4.8302    1.2171 C.3       1 <0>        -0.1116
     17 C14        -5.3625   -5.6152    1.2249 C.3       1 <0>        -0.1278
     18 C15        -5.3525   -6.6144    2.3836 C.3       1 <0>         0.0901
     19 N3         -6.6100   -7.3660    2.3911 N.am      1 <0>        -0.5653
     20 C16        -7.6401   -6.8859    3.1031 C.2       1 <0>         0.5233
     21 O2         -7.5108   -5.8424    3.7063 O.2       1 <0>        -0.4981
     22 C17        -8.9569   -7.6156    3.1633 C.3       1 <0>        -0.1344
     23 C18        -9.1441   -8.4260    1.8817 C.3       1 <0>        -0.0690
     24 C19       -10.4291   -9.2611    1.9664 C.3       1 <0>        -0.1160
     25 C20       -11.3343   -8.7893    0.8083 C.3       1 <0>        -0.1271
     26 C21       -10.3488   -8.1812   -0.2209 C.3       1 <0>        -0.1182
     27 C22        -9.3023   -7.4777    0.6800 C.3       1 <0>        -0.1196
     28 C23        -7.9364   -9.3376    1.6701 C.3       1 <0>        -0.1333
     29 C24        -6.6794   -8.5072    1.6899 C.2       1 <0>         0.5232
     30 O3         -5.7121   -8.8778    1.0603 O.2       1 <0>        -0.4970
     31 H1         -2.1670    3.8904    0.0334 H         1 <0>         0.1015
     32 H2         -0.6169    3.8328   -0.8724 H         1 <0>         0.0547
     33 H3         -0.6084    3.8230    0.9239 H         1 <0>         0.0547
     34 H4          1.1633    3.1743    0.0076 H         1 <0>         0.1310
     35 H5          3.3085    1.9682   -0.0198 H         1 <0>         0.1259
     36 H6          3.3435   -0.4913   -0.0325 H         1 <0>         0.1243
     37 H7          1.2330   -1.7573   -0.0195 H         1 <0>         0.1266
     38 H8         -0.5252   -2.2686    1.2746 H         1 <0>         0.0461
     39 H9         -1.2550   -0.8575    2.1129 H         1 <0>         0.0800
     40 H10        -2.7748   -2.8443    2.1475 H         1 <0>         0.0846
     41 H11        -3.4910   -1.4736    1.2337 H         1 <0>         0.0445
     42 H12        -2.7426   -2.9421   -2.0528 H         1 <0>         0.0818
     43 H13        -3.4725   -1.5309   -1.2146 H         1 <0>         0.0445
     44 H14        -1.2221   -0.9545   -2.0867 H         1 <0>         0.0805
     45 H15        -0.5060   -2.3251   -1.1729 H         1 <0>         0.0466
     46 H16        -4.9019   -3.1348    0.1820 H         1 <0>         0.0352
     47 H17        -4.1681   -4.3732   -0.8924 H         1 <0>         0.0755
     48 H18        -3.2067   -5.5264    1.0936 H         1 <0>         0.0754
     49 H19        -3.9406   -4.2880    2.1680 H         1 <0>         0.0665
     50 H20        -6.2051   -4.9190    1.3484 H         1 <0>         0.0663
     51 H21        -5.4712   -6.1574    0.2740 H         1 <0>         0.0681
     52 H22        -4.5099   -7.3106    2.2601 H         1 <0>         0.0969
     53 H23        -5.2437   -6.0722    3.3345 H         1 <0>         0.0959
     54 H24        -8.9619   -8.2920    4.0308 H         1 <0>         0.1128
     55 H25        -9.7755   -6.8874    3.2614 H         1 <0>         0.1167
     56 H26       -10.1808  -10.3276    1.8623 H         1 <0>         0.0742
     57 H27       -10.9137   -9.0907    2.9391 H         1 <0>         0.0740
     58 H28       -11.8818   -9.6501    0.3968 H         1 <0>         0.0693
     59 H29       -12.0512   -8.0441    1.1834 H         1 <0>         0.0681
     60 H30        -9.9118   -8.9862   -0.8300 H         1 <0>         0.0710
     61 H31       -10.8876   -7.4787   -0.8737 H         1 <0>         0.0705
     62 H32        -9.6523   -6.4958    1.0313 H         1 <0>         0.0749
     63 H33        -8.3324   -7.3617    0.1742 H         1 <0>         0.0648
     64 H34        -7.8968  -10.0865    2.4748 H         1 <0>         0.1127
     65 H35        -8.0271   -9.8470    0.6994 H         1 <0>         0.1168
@<TRIPOS>BOND
     1    1    2 1
     2    1   31 1
     3    1   32 1
     4    1   33 1
     5    2    3 1
     6    3    8 ar
     7    3    4 ar
     8    4    5 ar
     9    4   34 1
    10    5    6 ar
    11    5   35 1
    12    6    7 ar
    13    6   36 1
    14    7    8 ar
    15    7   37 1
    16    8    9 1
    17    9   14 1
    18    9   10 1
    19   10   11 1
    20   10   38 1
    21   10   39 1
    22   11   12 1
    23   11   40 1
    24   11   41 1
    25   12   13 1
    26   12   15 1
    27   13   14 1
    28   13   42 1
    29   13   43 1
    30   14   44 1
    31   14   45 1
    32   15   16 1
    33   15   46 1
    34   15   47 1
    35   16   17 1
    36   16   48 1
    37   16   49 1
    38   17   18 1
    39   17   50 1
    40   17   51 1
    41   18   19 1
    42   18   52 1
    43   18   53 1
    44   19   29 am
    45   19   20 am
    46   20   21 2
    47   20   22 1
    48   22   23 1
    49   22   54 1
    50   22   55 1
    51   23   27 1
    52   23   24 1
    53   23   28 1
    54   24   25 1
    55   24   56 1
    56   24   57 1
    57   25   26 1
    58   25   58 1
    59   25   59 1
    60   26   27 1
    61   26   60 1
    62   26   61 1
    63   27   62 1
    64   27   63 1
    65   28   29 1
    66   28   64 1
    67   28   65 1
    68   29   30 2
@<TRIPOS>MOLECULE
ZINC27653862
   40    43     0     0     0
SMALL
USER_CHARGES
2-chloroethylBLAHdiol
@<TRIPOS>ATOM
      1 C1          1.2256    3.2277   -0.2317 C.ar      1 <0>        -0.1198
      2 C2          0.0704    3.9587   -0.0395 C.ar      1 <0>        -0.1191
      3 C3         -1.1729    3.3386   -0.0374 C.ar      1 <0>        -0.0669
      4 C4         -1.2535    1.9747   -0.2171 C.ar      1 <0>        -0.0646
      5 C5         -0.0856    1.2303   -0.3989 C.ar      1 <0>        -0.0336
      6 C6          1.1529    1.8627   -0.4206 C.ar      1 <0>        -0.1036
      7 C7         -0.1805   -0.2358   -0.5951 C.ar      1 <0>        -0.0461
      8 C8         -1.3557   -0.8932   -0.2313 C.ar      1 <0>        -0.0738
      9 C9         -1.4710   -2.2537   -0.4257 C.ar      1 <0>        -0.1098
     10 C10        -0.4134   -2.9736   -0.9543 C.ar      1 <0>        -0.1174
     11 C11         0.7705   -2.3353   -1.2879 C.ar      1 <0>         0.0671
     12 C12         0.8939   -0.9615   -1.1048 C.ar      1 <0>         0.0803
     13 O1          2.0560   -0.3312   -1.4211 O.3       1 <0>        -0.4840
     14 O2          1.8108   -3.0509   -1.7932 O.3       1 <0>        -0.4965
     15 C13        -2.4797   -0.1136    0.3954 C.3       1 <0>        -0.0701
     16 C14        -2.5864    1.2738   -0.2344 C.3       1 <0>         0.1253
     17 H1         -2.9306    1.1938   -1.2761 H         1 <0>         0.0580
     18 N1         -3.5602    2.0686    0.5282 N.3       1 <0>        -0.5193
     19 C15        -3.6825    3.4166   -0.0297 C.3       1 <0>         0.0460
     20 C16        -2.3912    4.1965    0.1530 C.3       1 <0>        -0.0786
     21 C17        -4.8662    1.3977    0.5748 C.3       1 <0>         0.0403
     22 C18        -5.4474    1.3143   -0.8381 C.3       1 <0>        -0.0784
     23 Cl1        -7.0612    0.5124   -0.7777 Cl        1 <0>        -0.1740
     24 H2          2.1850    3.7237   -0.2350 H         1 <0>         0.1239
     25 H3          0.1339    5.0262    0.1115 H         1 <0>         0.1216
     26 H4          2.0529    1.2884   -0.5837 H         1 <0>         0.1488
     27 H5         -2.3889   -2.7590   -0.1640 H         1 <0>         0.1344
     28 H6         -0.5116   -4.0381   -1.1078 H         1 <0>         0.1339
     29 H7          2.9023   -0.9073   -1.8233 H         1 <0>         0.4076
     30 H8          2.7503   -2.5436   -2.0578 H         1 <0>         0.4150
     31 H9         -3.4280   -0.6493    0.2413 H         1 <0>         0.0845
     32 H10        -2.2924   -0.0026    1.4736 H         1 <0>         0.0954
     33 H11        -3.9068    3.3496   -1.1045 H         1 <0>         0.0385
     34 H12        -4.4955    3.9528    0.4818 H         1 <0>         0.0883
     35 H13        -2.3887    4.6164    1.1697 H         1 <0>         0.0851
     36 H14        -2.3817    5.0151   -0.5817 H         1 <0>         0.0819
     37 H15        -4.7428    0.3829    0.9810 H         1 <0>         0.0966
     38 H16        -5.5497    1.9700    1.2193 H         1 <0>         0.0951
     39 H17        -5.5570    2.3284   -1.2499 H         1 <0>         0.0951
     40 H18        -4.7711    0.7295   -1.4789 H         1 <0>         0.0930
@<TRIPOS>BOND
     1    1    6 ar
     2    1    2 ar
     3    1   24 1
     4    2    3 ar
     5    2   25 1
     6    3   20 1
     7    3    4 ar
     8    4   16 1
     9    4    5 ar
    10    5    6 ar
    11    5    7 1
    12    6   26 1
    13    7   12 ar
    14    7    8 ar
    15    8    9 ar
    16    8   15 1
    17    9   10 ar
    18    9   27 1
    19   10   11 ar
    20   10   28 1
    21   11   12 ar
    22   11   14 1
    23   12   13 1
    24   13   29 1
    25   14   30 1
    26   15   16 1
    27   15   31 1
    28   15   32 1
    29   16   17 1
    30   16   18 1
    31   18   19 1
    32   18   21 1
    33   19   20 1
    34   19   33 1
    35   19   34 1
    36   20   35 1
    37   20   36 1
    38   21   22 1
    39   21   37 1
    40   21   38 1
    41   22   23 1
    42   22   39 1
    43   22   40 1
@<TRIPOS>MOLECULE
ZINC28770699
   34    35     0     0     0
SMALL
USER_CHARGES
6-chloro-2-(4-methylpiperazin-1-yl)-5-methylsulfanyl-pyrimidin-4-amine
@<TRIPOS>ATOM
      1 C1          0.6329   -4.0517    1.0341 C.3       1 <0>        -0.0450
      2 N1          0.6130   -2.5829    1.0422 N.4       1 <0>        -0.4061
      3 C2          1.3581   -2.0398   -0.1022 C.3       1 <0>        -0.0021
      4 C3          1.3810   -0.5120   -0.0139 C.3       1 <0>         0.0381
      5 N2          0.0021   -0.0041    0.0020 N.pl3     1 <0>        -0.4609
      6 C4         -0.7430   -0.5472    1.1464 C.3       1 <0>         0.0358
      7 C5         -0.7659   -2.0750    1.0581 C.3       1 <0>         0.0013
      8 C6         -0.0167    1.3826    0.0096 C.ar      1 <0>         0.5597
      9 N3         -1.1829    2.0111    0.0187 N.ar      1 <0>        -0.5883
     10 C7         -1.2385    3.3384    0.0309 C.ar      1 <0>         0.5183
     11 C8         -0.0426    4.0680    0.0234 C.ar      1 <0>        -0.3086
     12 C9          1.1560    3.3688    0.0087 C.ar      1 <0>         0.3138
     13 N4          1.1309    2.0420    0.0022 N.ar      1 <0>        -0.5956
     14 Cl1         2.6694    4.2191   -0.0006 Cl        1 <0>         0.0231
     15 S1         -0.0599    5.8299    0.0330 S.3       1 <0>        -0.0878
     16 C10        -0.0803    6.2781   -1.7246 C.3       1 <0>        -0.1493
     17 N5         -2.4628    3.9923    0.0457 N.pl3     1 <0>        -0.8308
     18 H1          1.6748   -4.4042    1.0223 H         1 <0>         0.1264
     19 H2          0.1108   -4.4205    0.1389 H         1 <0>         0.1209
     20 H3          0.1280   -4.4302    1.9351 H         1 <0>         0.1259
     21 H4          2.3885   -2.4246   -0.0848 H         1 <0>         0.1454
     22 H5          0.8679   -2.3467   -1.0379 H         1 <0>         0.1374
     23 H6          1.8963   -0.2057    0.9084 H         1 <0>         0.0833
     24 H7          1.9137   -0.1023   -0.8848 H         1 <0>         0.1371
     25 H8         -0.2528   -0.2403    2.0821 H         1 <0>         0.0731
     26 H9         -1.7734   -0.1624    1.1290 H         1 <0>         0.1413
     27 H10        -1.2805   -2.3823    0.1357 H         1 <0>         0.1400
     28 H11        -1.2979   -2.4856    1.9289 H         1 <0>         0.1450
     29 H12        -0.0920    7.3736   -1.8235 H         1 <0>         0.1163
     30 H13        -0.9787    5.8574   -2.1999 H         1 <0>         0.0791
     31 H14         0.8174    5.8751   -2.2162 H         1 <0>         0.0819
     32 H15        -2.4991    5.0917    0.0557 H         1 <0>         0.4502
     33 H16        -3.3967    3.4111    0.0474 H         1 <0>         0.4378
     34 H17         1.1104   -2.2444    1.9631 H         1 <0>         0.4431
@<TRIPOS>BOND
     1    1    2 1
     2    1   18 1
     3    1   19 1
     4    1   20 1
     5    2    7 1
     6    2    3 1
     7    2   34 1
     8    3    4 1
     9    3   21 1
    10    3   22 1
    11    4    5 1
    12    4   23 1
    13    4   24 1
    14    5    6 1
    15    5    8 1
    16    6    7 1
    17    6   25 1
    18    6   26 1
    19    7   27 1
    20    7   28 1
    21    8   13 ar
    22    8    9 ar
    23    9   10 ar
    24   10   11 ar
    25   10   17 1
    26   11   12 ar
    27   11   15 1
    28   12   13 ar
    29   12   14 1
    30   15   16 1
    31   16   29 1
    32   16   30 1
    33   16   31 1
    34   17   32 1
    35   17   33 1
@<TRIPOS>MOLECULE
ZINC28770699
   33    34     0     0     0
SMALL
USER_CHARGES
6-chloro-2-(4-methylpiperazin-1-yl)-5-methylsulfanyl-pyrimidin-4-amine
@<TRIPOS>ATOM
      1 C1          0.6329   -4.0517    1.0341 C.3       1 <0>         0.0226
      2 N1          0.6130   -2.5829    1.0422 N.3       1 <0>        -0.5467
      3 C2          1.3581   -2.0398   -0.1022 C.3       1 <0>         0.0511
      4 C3          1.3810   -0.5120   -0.0139 C.3       1 <0>         0.0688
      5 N2          0.0021   -0.0041    0.0020 N.pl3     1 <0>        -0.4580
      6 C4         -0.7430   -0.5472    1.1464 C.3       1 <0>         0.0688
      7 C5         -0.7659   -2.0750    1.0581 C.3       1 <0>         0.0538
      8 C6         -0.0167    1.3826    0.0096 C.ar      1 <0>         0.5740
      9 N3         -1.1829    2.0111    0.0187 N.ar      1 <0>        -0.5921
     10 C7         -1.2385    3.3384    0.0309 C.ar      1 <0>         0.5166
     11 C8         -0.0426    4.0680    0.0234 C.ar      1 <0>        -0.3239
     12 C9          1.1560    3.3688    0.0087 C.ar      1 <0>         0.3176
     13 N4          1.1309    2.0420    0.0022 N.ar      1 <0>        -0.5917
     14 Cl1         2.6694    4.2191   -0.0006 Cl        1 <0>         0.0069
     15 S1         -0.0599    5.8299    0.0330 S.3       1 <0>        -0.0957
     16 C10        -0.0803    6.2781   -1.7246 C.3       1 <0>        -0.1491
     17 N5         -2.4628    3.9923    0.0457 N.pl3     1 <0>        -0.8391
     18 H1          1.6748   -4.4042    1.0223 H         1 <0>         0.0720
     19 H2          0.1108   -4.4205    0.1389 H         1 <0>         0.0287
     20 H3          0.1280   -4.4302    1.9351 H         1 <0>         0.0718
     21 H4          2.3885   -2.4246   -0.0848 H         1 <0>         0.0912
     22 H5          0.8679   -2.3467   -1.0379 H         1 <0>         0.0457
     23 H6          1.8963   -0.2057    0.9084 H         1 <0>         0.0682
     24 H7          1.9137   -0.1023   -0.8848 H         1 <0>         0.0963
     25 H8         -0.2528   -0.2403    2.0821 H         1 <0>         0.0575
     26 H9         -1.7734   -0.1624    1.1290 H         1 <0>         0.1018
     27 H10        -1.2805   -2.3823    0.1357 H         1 <0>         0.0487
     28 H11        -1.2979   -2.4856    1.9289 H         1 <0>         0.0910
     29 H12        -0.0920    7.3736   -1.8235 H         1 <0>         0.1100
     30 H13        -0.9787    5.8574   -2.1999 H         1 <0>         0.0764
     31 H14         0.8174    5.8751   -2.2162 H         1 <0>         0.0794
     32 H15        -2.4991    5.0917    0.0557 H         1 <0>         0.4435
     33 H16        -3.3967    3.4111    0.0474 H         1 <0>         0.4338
@<TRIPOS>BOND
     1    1    2 1
     2    1   18 1
     3    1   19 1
     4    1   20 1
     5    2    7 1
     6    2    3 1
     7    3    4 1
     8    3   21 1
     9    3   22 1
    10    4    5 1
    11    4   23 1
    12    4   24 1
    13    5    6 1
    14    5    8 1
    15    6    7 1
    16    6   25 1
    17    6   26 1
    18    7   27 1
    19    7   28 1
    20    8   13 ar
    21    8    9 ar
    22    9   10 ar
    23   10   11 ar
    24   10   17 1
    25   11   12 ar
    26   11   15 1
    27   12   13 ar
    28   12   14 1
    29   15   16 1
    30   16   29 1
    31   16   30 1
    32   16   31 1
    33   17   32 1
    34   17   33 1
@<TRIPOS>MOLECULE
ZINC00011665
   45    48     0     0     0
SMALL
USER_CHARGES

@<TRIPOS>ATOM
      1 C1         -0.0187    1.5258    0.0104 C.3       1 <0>        -0.1561
      2 C2          0.0021   -0.0041    0.0020 C.3       1 <0>        -0.1495
      3 C3          0.7182   -0.4975   -1.2568 C.3       1 <0>        -0.0183
      4 N1          0.7381   -1.9663   -1.2649 N.4       1 <0>        -0.3803
      5 C4          1.5437   -2.4487   -0.1429 C.3       1 <0>        -0.0096
      6 C5          1.4303   -3.9582   -0.0047 C.3       1 <0>        -0.1046
      7 C6          1.4107   -4.6482   -1.3395 C.ar      1 <0>        -0.0634
      8 C7          1.4568   -6.0357   -1.3618 C.ar      1 <0>        -0.1375
      9 C8          1.4682   -6.7249   -2.5634 C.ar      1 <0>         0.1449
     10 C9          1.4284   -6.0248   -3.7584 C.ar      1 <0>        -0.1297
     11 C10         1.3594   -4.6375   -3.7400 C.ar      1 <0>         0.0130
     12 C11         1.3575   -3.9466   -2.5249 C.ar      1 <0>        -0.1359
     13 C12         1.3186   -2.4410   -2.5294 C.3       1 <0>         0.0921
     14 H1          2.3322   -2.0532   -2.6302 H         1 <0>         0.1470
     15 C13         0.4665   -1.9202   -3.6851 C.3       1 <0>        -0.0936
     16 C14         0.8939   -2.5432   -4.9859 C.ar      1 <0>        -0.0768
     17 C15         1.3133   -3.8719   -5.0083 C.ar      1 <0>        -0.0678
     18 C16         1.6871   -4.4658   -6.2130 C.ar      1 <0>         0.1063
     19 C17         1.6508   -3.7188   -7.3862 C.ar      1 <0>         0.0996
     20 C18         1.2462   -2.3940   -7.3506 C.ar      1 <0>        -0.1145
     21 C19         0.8689   -1.8097   -6.1539 C.ar      1 <0>        -0.0942
     22 O1          2.0126   -4.2883   -8.5670 O.3       1 <0>        -0.4821
     23 O2          2.0848   -5.7654   -6.2411 O.3       1 <0>        -0.4742
     24 O3          1.5187   -8.0830   -2.5701 O.3       1 <0>        -0.4900
     25 H2          1.0039    1.9031    0.0027 H         1 <0>         0.0675
     26 H3         -0.5459    1.8868   -0.8726 H         1 <0>         0.0676
     27 H4         -0.5289    1.8773    0.9072 H         1 <0>         0.0780
     28 H5          0.5293   -0.3651    0.8851 H         1 <0>         0.0870
     29 H6         -1.0205   -0.3814    0.0098 H         1 <0>         0.0868
     30 H7          0.1910   -0.1364   -2.1398 H         1 <0>         0.1351
     31 H8          1.7408   -0.1202   -1.2645 H         1 <0>         0.1331
     32 H9          2.5872   -2.1814   -0.3097 H         1 <0>         0.1316
     33 H10         1.1963   -1.9775    0.7766 H         1 <0>         0.1415
     34 H11         2.2793   -4.3258    0.5715 H         1 <0>         0.1252
     35 H12         0.5112   -4.1967    0.5307 H         1 <0>         0.1065
     36 H13         1.4846   -6.5839   -0.4317 H         1 <0>         0.1426
     37 H14         1.4512   -6.5549   -4.6991 H         1 <0>         0.1586
     38 H15        -0.5794   -2.1630   -3.4976 H         1 <0>         0.1018
     39 H16         0.5763   -0.8378   -3.7525 H         1 <0>         0.1082
     40 H17         1.2253   -1.8141   -8.2614 H         1 <0>         0.1459
     41 H18         0.5541   -0.7768   -6.1345 H         1 <0>         0.1407
     42 H19         1.2813   -4.7050   -9.0431 H         1 <0>         0.3973
     43 H20         1.3641   -6.3942   -6.3839 H         1 <0>         0.3936
     44 H21         0.6505   -8.5089   -2.5615 H         1 <0>         0.4032
     45 H22        -0.2043   -2.3156   -1.1758 H         1 <0>         0.4235
@<TRIPOS>BOND
     1    1    2 1
     2    1   25 1
     3    1   26 1
     4    1   27 1
     5    2    3 1
     6    2   28 1
     7    2   29 1
     8    3    4 1
     9    3   30 1
    10    3   31 1
    11    4   13 1
    12    4    5 1
    13    4   45 1
    14    5    6 1
    15    5   32 1
    16    5   33 1
    17    6    7 1
    18    6   34 1
    19    6   35 1
    20    7   12 ar
    21    7    8 ar
    22    8    9 ar
    23    8   36 1
    24    9   10 ar
    25    9   24 1
    26   10   11 ar
    27   10   37 1
    28   11   17 1
    29   11   12 ar
    30   12   13 1
    31   13   14 1
    32   13   15 1
    33   15   16 1
    34   15   38 1
    35   15   39 1
    36   16   21 ar
    37   16   17 ar
    38   17   18 ar
    39   18   19 ar
    40   18   23 1
    41   19   20 ar
    42   19   22 1
    43   20   21 ar
    44   20   40 1
    45   21   41 1
    46   22   42 1
    47   23   43 1
    48   24   44 1
@<TRIPOS>MOLECULE
ZINC00011665
   44    47     0     0     0
SMALL
USER_CHARGES

@<TRIPOS>ATOM
      1 C1         -0.0187    1.5258    0.0104 C.3       1 <0>        -0.1527
      2 C2          0.0021   -0.0041    0.0020 C.3       1 <0>        -0.1210
      3 C3         -1.4333   -0.5336    0.0129 C.3       1 <0>         0.0480
      4 N1         -1.4134   -2.0025    0.0048 N.3       1 <0>        -0.5300
      5 C4         -0.8674   -2.5129   -1.2541 C.3       1 <0>         0.0518
      6 C5         -0.6133   -4.0083   -1.1655 C.3       1 <0>        -0.0773
      7 C6         -1.6802   -4.7251   -0.3877 C.ar      1 <0>        -0.0473
      8 C7         -1.6483   -6.1135   -0.3622 C.ar      1 <0>        -0.1440
      9 C8         -2.6165   -6.8326    0.3186 C.ar      1 <0>         0.1075
     10 C9         -3.6280   -6.1627    0.9874 C.ar      1 <0>        -0.1364
     11 C10        -3.6528   -4.7739    0.9809 C.ar      1 <0>        -0.0223
     12 C11        -2.6801   -4.0531    0.2819 C.ar      1 <0>        -0.0675
     13 C12        -2.7557   -2.5491    0.2531 C.3       1 <0>         0.1314
     14 H1         -3.4273   -2.2359   -0.5463 H         1 <0>         0.0574
     15 C13        -3.2715   -2.0020    1.5824 C.3       1 <0>        -0.0730
     16 C14        -4.5515   -2.6869    1.9783 C.ar      1 <0>        -0.0630
     17 C15        -4.7242   -4.0406    1.6961 C.ar      1 <0>        -0.0549
     18 C16        -5.8954   -4.6904    2.0833 C.ar      1 <0>         0.0965
     19 C17        -6.8932   -3.9744    2.7374 C.ar      1 <0>         0.0807
     20 C18        -6.7179   -2.6248    2.9990 C.ar      1 <0>        -0.1236
     21 C19        -5.5499   -1.9849    2.6210 C.ar      1 <0>        -0.1050
     22 O1         -8.0397   -4.5983    3.1193 O.3       1 <0>        -0.4859
     23 O2         -6.0616   -6.0143    1.8233 O.3       1 <0>        -0.4757
     24 O3         -2.5743   -8.1909    0.3309 O.3       1 <0>        -0.4964
     25 H2          1.0039    1.9031    0.0027 H         1 <0>         0.0577
     26 H3         -0.5459    1.8868   -0.8726 H         1 <0>         0.0529
     27 H4         -0.5289    1.8773    0.9072 H         1 <0>         0.0553
     28 H5          0.5123   -0.3556   -0.8948 H         1 <0>         0.0624
     29 H6          0.5293   -0.3651    0.8851 H         1 <0>         0.0717
     30 H7         -1.9435   -0.1821    0.9097 H         1 <0>         0.0820
     31 H8         -1.9605   -0.1726   -0.8702 H         1 <0>         0.0362
     32 H9         -1.5766   -2.3166   -2.0582 H         1 <0>         0.0360
     33 H10         0.0705   -2.0020   -1.4715 H         1 <0>         0.0881
     34 H11        -0.5748   -4.4202   -2.1740 H         1 <0>         0.0819
     35 H12         0.3488   -4.1749   -0.6812 H         1 <0>         0.0848
     36 H13        -0.8587   -6.6386   -0.8791 H         1 <0>         0.1291
     37 H14        -4.3931   -6.7171    1.5106 H         1 <0>         0.1475
     38 H15        -2.5210   -2.1693    2.3550 H         1 <0>         0.0946
     39 H16        -3.4525   -0.9317    1.4843 H         1 <0>         0.0852
     40 H17        -7.4964   -2.0693    3.5007 H         1 <0>         0.1369
     41 H18        -5.4200   -0.9334    2.8301 H         1 <0>         0.1349
     42 H19        -8.0038   -4.9776    4.0081 H         1 <0>         0.3884
     43 H20        -5.7420   -6.5963    2.5263 H         1 <0>         0.3870
     44 H21        -2.0651   -8.5620    1.0644 H         1 <0>         0.3904
@<TRIPOS>BOND
     1    1    2 1
     2    1   25 1
     3    1   26 1
     4    1   27 1
     5    2    3 1
     6    2   28 1
     7    2   29 1
     8    3    4 1
     9    3   30 1
    10    3   31 1
    11    4   13 1
    12    4    5 1
    13    5    6 1
    14    5   32 1
    15    5   33 1
    16    6    7 1
    17    6   34 1
    18    6   35 1
    19    7   12 ar
    20    7    8 ar
    21    8    9 ar
    22    8   36 1
    23    9   10 ar
    24    9   24 1
    25   10   11 ar
    26   10   37 1
    27   11   17 1
    28   11   12 ar
    29   12   13 1
    30   13   14 1
    31   13   15 1
    32   15   16 1
    33   15   38 1
    34   15   39 1
    35   16   21 ar
    36   16   17 ar
    37   17   18 ar
    38   18   19 ar
    39   18   23 1
    40   19   20 ar
    41   19   22 1
    42   20   21 ar
    43   20   40 1
    44   21   41 1
    45   22   42 1
    46   23   43 1
    47   24   44 1
@<TRIPOS>MOLECULE
ZINC01611847
   34    36     0     0     0
SMALL
USER_CHARGES
(4aR,10bR)-9-methoxy-3,4,4a,5,6,10b-hexahydro-2H-benzo[h][1,4]benzoxazine
@<TRIPOS>ATOM
      1 C1         -0.0127    1.0858    0.0080 C.3       1 <0>         0.0233
      2 O1         -0.6816    1.5467    1.1837 O.3       1 <0>        -0.3122
      3 C2         -1.9749    1.1630    1.3482 C.ar      1 <0>         0.1356
      4 C3         -2.5909    0.3594    0.3995 C.ar      1 <0>        -0.1859
      5 C4         -3.9038   -0.0212    0.5730 C.ar      1 <0>        -0.0738
      6 C5         -4.6200    0.3879    1.6919 C.ar      1 <0>        -0.1147
      7 C6         -4.0055    1.1816    2.6387 C.ar      1 <0>        -0.0585
      8 C7         -2.6845    1.5668    2.4665 C.ar      1 <0>        -0.1229
      9 C8         -4.7267    1.6381    3.8735 C.3       1 <0>         0.1279
     10 H1         -4.4659    0.9628    4.6884 H         1 <0>         0.0924
     11 C9         -6.2382    1.5795    3.6500 C.3       1 <0>        -0.0061
     12 H2         -6.5163    2.2814    2.8638 H         1 <0>         0.1513
     13 C10        -6.5981    0.1594    3.2155 C.3       1 <0>        -0.1324
     14 C11        -6.0540   -0.0585    1.8038 C.3       1 <0>        -0.0737
     15 C12        -6.5269    3.3143    5.2913 C.3       1 <0>        -0.0392
     16 C13        -5.0081    3.4005    5.4491 C.3       1 <0>         0.0330
     17 O2         -4.3648    2.9666    4.2440 O.3       1 <0>        -0.3443
     18 H3          0.0021   -0.0041    0.0020 H         1 <0>         0.0602
     19 H4          1.0099    1.4631    0.0003 H         1 <0>         0.1082
     20 H5         -0.5399    1.4469   -0.8751 H         1 <0>         0.0601
     21 H6         -2.0430    0.0330   -0.4721 H         1 <0>         0.1381
     22 H7         -4.3816   -0.6446   -0.1682 H         1 <0>         0.1344
     23 H8         -2.2070    2.1898    3.2081 H         1 <0>         0.1396
     24 H9         -7.6813    0.0381    3.2151 H         1 <0>         0.0994
     25 H10        -6.1475   -0.5605    3.8987 H         1 <0>         0.0950
     26 H11        -6.6600    0.5082    1.0968 H         1 <0>         0.0893
     27 H12        -6.1178   -1.1182    1.5569 H         1 <0>         0.0992
     28 H13        -6.8515    4.0184    4.5251 H         1 <0>         0.1403
     29 H14        -7.0024    3.5664    6.2391 H         1 <0>         0.1479
     30 H15        -4.7242    4.4315    5.6598 H         1 <0>         0.1449
     31 H16        -4.6937    2.7641    6.2763 H         1 <0>         0.0837
     32 N1         -6.9171    1.9478    4.8984 N.4       1 <0>        -0.5110
     33 H17        -6.6492    1.2898    5.6397 H         1 <0>         0.4312
     34 H18        -7.9336    1.9100    4.7582 H         1 <0>         0.4395
@<TRIPOS>BOND
     1    1    2 1
     2    1   18 1
     3    1   19 1
     4    1   20 1
     5    2    3 1
     6    3    8 ar
     7    3    4 ar
     8    4    5 ar
     9    4   21 1
    10    5    6 ar
    11    5   22 1
    12    6   14 1
    13    6    7 ar
    14    7    8 ar
    15    7    9 1
    16    8   23 1
    17    9   10 1
    18    9   17 1
    19    9   11 1
    20   11   12 1
    21   11   13 1
    22   11   32 1
    23   13   14 1
    24   13   24 1
    25   13   25 1
    26   14   26 1
    27   14   27 1
    28   15   16 1
    29   15   28 1
    30   15   29 1
    31   15   32 1
    32   16   17 1
    33   16   30 1
    34   16   31 1
    35   32   33 1
    36   32   34 1
@<TRIPOS>MOLECULE
ZINC01611849
   34    36     0     0     0
SMALL
USER_CHARGES
(4aR,10bS)-9-methoxy-3,4,4a,5,6,10b-hexahydro-2H-benzo[h][1,4]benzoxazine
@<TRIPOS>ATOM
      1 C1         -3.1324    1.6937    7.2752 C.3       1 <0>         0.0234
      2 O1         -2.5655    1.0984    6.1063 O.3       1 <0>        -0.3127
      3 C2         -2.8679    1.6732    4.9126 C.ar      1 <0>         0.1345
      4 C3         -3.6931    2.7877    4.8639 C.ar      1 <0>        -0.1821
      5 C4         -3.9964    3.3616    3.6481 C.ar      1 <0>        -0.0759
      6 C5         -3.4824    2.8355    2.4685 C.ar      1 <0>        -0.1061
      7 C6         -2.6583    1.7336    2.5161 C.ar      1 <0>        -0.0588
      8 C7         -2.3540    1.1505    3.7381 C.ar      1 <0>        -0.1248
      9 C8         -2.0499    1.1238    1.2776 C.3       1 <0>         0.1298
     10 H1         -2.0854    0.0370    1.3533 H         1 <0>         0.0973
     11 C9         -2.8204    1.5723    0.0392 C.3       1 <0>        -0.0045
     12 H2         -3.8231    1.1464    0.0767 H         1 <0>         0.1519
     13 C10        -2.9190    3.0996    0.0508 C.3       1 <0>        -0.1328
     14 C11        -3.8641    3.5122    1.1778 C.3       1 <0>        -0.0732
     15 C12        -0.7572    1.5950   -1.2300 C.3       1 <0>        -0.0440
     16 C13        -0.0127    1.0858    0.0080 C.3       1 <0>         0.0337
     17 O2         -0.6851    1.5484    1.1811 O.3       1 <0>        -0.3462
     18 H3         -2.7975    2.7279    7.3550 H         1 <0>         0.0604
     19 H4         -4.2198    1.6682    7.2050 H         1 <0>         0.0602
     20 H5         -2.8121    1.1391    8.1572 H         1 <0>         0.1082
     21 H6         -4.0960    3.2040    5.7753 H         1 <0>         0.1384
     22 H7         -4.6393    4.2286    3.6115 H         1 <0>         0.1344
     23 H8         -1.7118    0.2829    3.7731 H         1 <0>         0.1358
     24 H9         -1.9324    3.5300    0.2228 H         1 <0>         0.0980
     25 H10        -3.3114    3.4495   -0.9041 H         1 <0>         0.0936
     26 H11        -3.8140    4.5929    1.3107 H         1 <0>         0.0981
     27 H12        -4.8832    3.2308    0.9128 H         1 <0>         0.0891
     28 H13        -0.7457    2.6849   -1.2402 H         1 <0>         0.1409
     29 H14        -0.2729    1.2147   -2.1293 H         1 <0>         0.1462
     30 H15         0.0021   -0.0041    0.0020 H         1 <0>         0.0820
     31 H16         1.0094    1.4644    0.0003 H         1 <0>         0.1432
     32 N1         -2.1520    1.1109   -1.1886 N.4       1 <0>        -0.5117
     33 H17        -2.6592    1.4710   -2.0055 H         1 <0>         0.4394
     34 H18        -2.1543    0.0843   -1.2095 H         1 <0>         0.4343
@<TRIPOS>BOND
     1    1    2 1
     2    1   18 1
     3    1   19 1
     4    1   20 1
     5    2    3 1
     6    3    8 ar
     7    3    4 ar
     8    4    5 ar
     9    4   21 1
    10    5    6 ar
    11    5   22 1
    12    6   14 1
    13    6    7 ar
    14    7    8 ar
    15    7    9 1
    16    8   23 1
    17    9   10 1
    18    9   17 1
    19    9   11 1
    20   11   12 1
    21   11   13 1
    22   11   32 1
    23   13   14 1
    24   13   24 1
    25   13   25 1
    26   14   26 1
    27   14   27 1
    28   15   16 1
    29   15   28 1
    30   15   29 1
    31   15   32 1
    32   16   17 1
    33   16   30 1
    34   16   31 1
    35   32   33 1
    36   32   34 1
@<TRIPOS>MOLECULE
ZINC00003897
   43    46     0     0     0
SMALL
USER_CHARGES

@<TRIPOS>ATOM
      1 C1         -0.0178    1.4648    0.0101 C.3       1 <0>        -0.0643
      2 N1          0.0021   -0.0041    0.0020 N.4       1 <0>        -0.3783
      3 C2          0.5651   -0.4783   -1.2793 C.3       1 <0>         0.0030
      4 C3          1.6130    0.4650   -1.8175 C.3       1 <0>        -0.1179
      5 C4          2.5466    1.1632   -0.9180 C.ar      1 <0>        -0.0792
      6 C5          3.1196    2.3627   -1.3347 C.ar      1 <0>        -0.0925
      7 C6          3.9970    3.0439   -0.5188 C.ar      1 <0>        -0.0497
      8 C7          4.3162    2.5319    0.7320 C.ar      1 <0>         0.1311
      9 C8          3.7475    1.3396    1.1456 C.ar      1 <0>        -0.1201
     10 C9          2.8634    0.6594    0.3194 C.ar      1 <0>        -0.0869
     11 C10         2.2696   -0.6209    0.8039 C.3       1 <0>        -0.0061
     12 H1          2.3316   -1.3285   -0.0229 H         1 <0>         0.1039
     13 C11         0.8167   -0.4865    1.1303 C.3       1 <0>         0.0306
     14 H2          0.7252    0.2389    1.9387 H         1 <0>         0.1337
     15 C12         0.2782   -1.8142    1.6644 C.3       1 <0>        -0.1325
     16 C13         0.9258   -2.0821    3.0231 C.3       1 <0>        -0.0787
     17 C14         2.4193   -1.9005    2.9633 C.ar      1 <0>        -0.0792
     18 C15         3.0470   -1.2168    1.9418 C.ar      1 <0>        -0.0879
     19 C16         4.4258   -1.0720    1.9521 C.ar      1 <0>        -0.1081
     20 C17         5.1794   -1.6148    2.9734 C.ar      1 <0>        -0.1118
     21 C18         4.5538   -2.3077    3.9926 C.ar      1 <0>        -0.0996
     22 C19         3.1816   -2.4485    3.9864 C.ar      1 <0>        -0.1134
     23 O1          5.1801    3.1966    1.5441 O.3       1 <0>        -0.4793
     24 Cl1         4.7017    4.5377   -1.0535 Cl        1 <0>        -0.0291
     25 H3          0.9919    1.8409    0.1747 H         1 <0>         0.1309
     26 H4         -0.3893    1.8284   -0.9480 H         1 <0>         0.1268
     27 H5         -0.6709    1.8149    0.8095 H         1 <0>         0.1229
     28 H6          1.0152   -1.4593   -1.1275 H         1 <0>         0.1298
     29 H7         -0.2398   -0.5679   -2.0088 H         1 <0>         0.1423
     30 H8          2.2161   -0.0994   -2.5287 H         1 <0>         0.1206
     31 H9          1.0901    1.2297   -2.3918 H         1 <0>         0.1003
     32 H10         2.8735    2.7631   -2.3071 H         1 <0>         0.1479
     33 H11         3.9925    0.9365    2.1171 H         1 <0>         0.1568
     34 H12        -0.8040   -1.7525    1.7788 H         1 <0>         0.0975
     35 H13         0.5300   -2.6179    0.9724 H         1 <0>         0.0930
     36 H14         0.5116   -1.3918    3.7580 H         1 <0>         0.0900
     37 H15         0.7026   -3.1040    3.3295 H         1 <0>         0.0995
     38 H16         4.9140   -0.5310    1.1550 H         1 <0>         0.1296
     39 H17         6.2531   -1.4988    2.9758 H         1 <0>         0.1321
     40 H18         5.1382   -2.7382    4.7923 H         1 <0>         0.1319
     41 H19         2.6957   -2.9895    4.7848 H         1 <0>         0.1297
     42 H20         4.7543    3.8340    2.1337 H         1 <0>         0.4022
     43 H21        -0.9404   -0.3512    0.0984 H         1 <0>         0.4285
@<TRIPOS>BOND
     1    1    2 1
     2    1   25 1
     3    1   26 1
     4    1   27 1
     5    2   13 1
     6    2    3 1
     7    2   43 1
     8    3    4 1
     9    3   28 1
    10    3   29 1
    11    4    5 1
    12    4   30 1
    13    4   31 1
    14    5   10 ar
    15    5    6 ar
    16    6    7 ar
    17    6   32 1
    18    7    8 ar
    19    7   24 1
    20    8    9 ar
    21    8   23 1
    22    9   10 ar
    23    9   33 1
    24   10   11 1
    25   11   12 1
    26   11   18 1
    27   11   13 1
    28   13   14 1
    29   13   15 1
    30   15   16 1
    31   15   34 1
    32   15   35 1
    33   16   17 1
    34   16   36 1
    35   16   37 1
    36   17   22 ar
    37   17   18 ar
    38   18   19 ar
    39   19   20 ar
    40   19   38 1
    41   20   21 ar
    42   20   39 1
    43   21   22 ar
    44   21   40 1
    45   22   41 1
    46   23   42 1
@<TRIPOS>MOLECULE
ZINC00000802
   49    51     0     0     0
SMALL
USER_CHARGES
1-[(3,4,5-trimethoxyphenyl)methyl]-1,2,3,4-tetrahydroisoquinoline-6,7-diol
@<TRIPOS>ATOM
      1 C1          5.1993    6.9705    5.7400 C.3       1 <0>         0.0226
      2 O1          5.1823    5.9507    6.7408 O.3       1 <0>        -0.2936
      3 C2          4.5674    4.7808    6.4198 C.ar      1 <0>         0.1626
      4 C3          3.9930    4.6190    5.1681 C.ar      1 <0>        -0.2591
      5 C4          3.3686    3.4301    4.8406 C.ar      1 <0>        -0.0513
      6 C5          3.3087    2.4002    5.7607 C.ar      1 <0>        -0.2210
      7 C6          3.8852    2.5521    7.0127 C.ar      1 <0>         0.1641
      8 C7          4.5143    3.7458    7.3457 C.ar      1 <0>         0.0415
      9 O2          5.0764    3.9008    8.5754 O.3       1 <0>        -0.3123
     10 C8          4.2424    4.4305    9.6079 C.3       1 <0>         0.0347
     11 O3          3.8305    1.5363    7.9153 O.3       1 <0>        -0.2943
     12 C9          3.1682    0.3385    7.5046 C.3       1 <0>         0.0213
     13 C10         2.7462    3.2584    3.4790 C.3       1 <0>        -0.0997
     14 C11         3.7839    2.6840    2.5126 C.3       1 <0>         0.0944
     15 H1          4.1827    1.7562    2.9228 H         1 <0>         0.1501
     16 C12         3.1257    2.3993    1.1877 C.ar      1 <0>        -0.1211
     17 C13         1.8633    1.8227    1.1902 C.ar      1 <0>        -0.1081
     18 C14         1.2237    1.5328   -0.0014 C.ar      1 <0>         0.0997
     19 C15         1.8468    1.8323   -1.2096 C.ar      1 <0>         0.1152
     20 C16         3.1021    2.4135   -1.2070 C.ar      1 <0>        -0.1198
     21 C17         3.7409    2.6988   -0.0091 C.ar      1 <0>        -0.0784
     22 C18         5.1034    3.3418   -0.0587 C.3       1 <0>        -0.1063
     23 C19         5.7996    3.1955    1.2945 C.3       1 <0>        -0.0003
     24 O4          1.2249    1.5544   -2.3866 O.3       1 <0>        -0.4865
     25 O5         -0.0110    0.9628    0.0073 O.3       1 <0>        -0.4860
     26 H2          5.7189    7.8482    6.1244 H         1 <0>         0.1116
     27 H3          5.7160    6.6015    4.8540 H         1 <0>         0.0529
     28 H4          4.1760    7.2397    5.4781 H         1 <0>         0.0612
     29 H5          4.0339    5.4229    4.4480 H         1 <0>         0.1340
     30 H6          2.8161    1.4744    5.5025 H         1 <0>         0.1422
     31 H7          3.3871    3.7717    9.7578 H         1 <0>         0.0485
     32 H8          4.8124    4.5025   10.5342 H         1 <0>         0.1009
     33 H9          3.8917    5.4213    9.3191 H         1 <0>         0.0479
     34 H10         3.1962   -0.3887    8.3161 H         1 <0>         0.1114
     35 H11         2.1316    0.5640    7.2544 H         1 <0>         0.0614
     36 H12         3.6717   -0.0735    6.6300 H         1 <0>         0.0598
     37 H13         2.4037    4.2258    3.1114 H         1 <0>         0.1050
     38 H14         1.8991    2.5762    3.5501 H         1 <0>         0.1253
     39 H15         1.3790    1.5952    2.1283 H         1 <0>         0.1461
     40 H16         3.5875    2.6469   -2.1431 H         1 <0>         0.1467
     41 H17         5.7040    2.8579   -0.8288 H         1 <0>         0.1262
     42 H18         4.9956    4.3999   -0.2977 H         1 <0>         0.1071
     43 H19         6.7013    3.8077    1.3105 H         1 <0>         0.1425
     44 H20         6.0630    2.1513    1.4630 H         1 <0>         0.1357
     45 H21         0.6735    2.2755   -2.7199 H         1 <0>         0.4062
     46 H22         0.0021   -0.0041    0.0020 H         1 <0>         0.4048
     47 N1          4.8763    3.6530    2.3494 N.4       1 <0>        -0.5146
     48 H23         5.3883    3.7412    3.2351 H         1 <0>         0.4381
     49 H24         4.4856    4.5656    2.0876 H         1 <0>         0.4309
@<TRIPOS>BOND
     1    1    2 1
     2    1   26 1
     3    1   27 1
     4    1   28 1
     5    2    3 1
     6    3    8 ar
     7    3    4 ar
     8    4    5 ar
     9    4   29 1
    10    5    6 ar
    11    5   13 1
    12    6    7 ar
    13    6   30 1
    14    7    8 ar
    15    7   11 1
    16    8    9 1
    17    9   10 1
    18   10   31 1
    19   10   32 1
    20   10   33 1
    21   11   12 1
    22   12   34 1
    23   12   35 1
    24   12   36 1
    25   13   14 1
    26   13   37 1
    27   13   38 1
    28   14   15 1
    29   14   16 1
    30   14   47 1
    31   16   21 ar
    32   16   17 ar
    33   17   18 ar
    34   17   39 1
    35   18   19 ar
    36   18   25 1
    37   19   20 ar
    38   19   24 1
    39   20   21 ar
    40   20   40 1
    41   21   22 1
    42   22   23 1
    43   22   41 1
    44   22   42 1
    45   23   43 1
    46   23   44 1
    47   23   47 1
    48   24   45 1
    49   25   46 1
    50   47   48 1
    51   47   49 1
@<TRIPOS>MOLECULE
ZINC02017274
   49    51     0     0     0
SMALL
USER_CHARGES

@<TRIPOS>ATOM
      1 C1         -0.0173    1.4248    0.0099 C.3       1 <0>         0.0214
      2 O1          0.0021   -0.0041    0.0020 O.3       1 <0>        -0.2943
      3 C2         -1.2011   -0.6379    0.0101 C.ar      1 <0>         0.1641
      4 C3         -2.3748    0.1005    0.0195 C.ar      1 <0>        -0.2213
      5 C4         -3.5982   -0.5428    0.0277 C.ar      1 <0>        -0.0510
      6 C5         -3.6572   -1.9238    0.0266 C.ar      1 <0>        -0.2591
      7 C6         -2.4882   -2.6696    0.0172 C.ar      1 <0>         0.1629
      8 C7         -1.2561   -2.0266    0.0032 C.ar      1 <0>         0.0414
      9 O2         -0.1065   -2.7549   -0.0117 O.3       1 <0>        -0.3122
     10 C8          0.4536   -3.1089    1.2544 C.3       1 <0>         0.0344
     11 O3         -2.5472   -4.0282    0.0166 O.3       1 <0>        -0.2936
     12 C9         -3.8474   -4.6211    0.0259 C.3       1 <0>         0.0225
     13 C10        -4.8712    0.2637    0.0384 C.3       1 <0>        -0.1004
     14 C11        -5.3128    0.5387   -1.4005 C.3       1 <0>         0.0914
     15 H1         -4.4968    1.0179   -1.9414 H         1 <0>         0.1509
     16 C12        -6.5063    1.4574   -1.3866 C.ar      1 <0>        -0.1221
     17 C13        -6.5159    2.5154   -0.4889 C.ar      1 <0>        -0.1064
     18 C14        -7.5904    3.3854   -0.4443 C.ar      1 <0>         0.0985
     19 C15        -8.6675    3.1971   -1.3056 C.ar      1 <0>         0.1147
     20 C16        -8.6543    2.1400   -2.1981 C.ar      1 <0>        -0.1184
     21 C17        -7.5748    1.2705   -2.2380 C.ar      1 <0>        -0.0787
     22 C18        -7.6055    0.1278   -3.2210 C.3       1 <0>        -0.1065
     23 C19        -6.1995   -0.4496   -3.3880 C.3       1 <0>        -0.0038
     24 N1         -5.6468   -0.7298   -2.0543 N.4       1 <0>        -0.5061
     25 O4         -9.7275    4.0484   -1.2704 O.3       1 <0>        -0.4818
     26 O5         -7.5941    4.4208    0.4373 O.3       1 <0>        -0.4808
     27 H2          1.0053    1.8021    0.0021 H         1 <0>         0.1113
     28 H3         -0.5445    1.7859   -0.8732 H         1 <0>         0.0596
     29 H4         -0.5275    1.7763    0.9067 H         1 <0>         0.0614
     30 H5         -2.3329    1.1797    0.0207 H         1 <0>         0.1422
     31 H6         -4.6151   -2.4227    0.0334 H         1 <0>         0.1339
     32 H7          1.3650   -3.6864    1.0998 H         1 <0>         0.1009
     33 H8          0.6878   -2.2033    1.8141 H         1 <0>         0.0485
     34 H9         -0.2648   -3.7070    1.8151 H         1 <0>         0.0480
     35 H10        -3.7517   -5.7069    0.0243 H         1 <0>         0.1118
     36 H11        -4.3845   -4.3050    0.9202 H         1 <0>         0.0614
     37 H12        -4.3978   -4.3036   -0.8597 H         1 <0>         0.0529
     38 H13        -5.6506   -0.2944    0.5572 H         1 <0>         0.1054
     39 H14        -4.6980    1.2092    0.5523 H         1 <0>         0.1259
     40 H15        -5.6795    2.6606    0.1786 H         1 <0>         0.1465
     41 H16        -9.4887    1.9916   -2.8675 H         1 <0>         0.1471
     42 H17        -8.2750   -0.6494   -2.8524 H         1 <0>         0.1078
     43 H18        -7.9661    0.4882   -4.1845 H         1 <0>         0.1269
     44 H19        -6.2492   -1.3730   -3.9651 H         1 <0>         0.1435
     45 H20        -5.5659    0.2729   -3.9024 H         1 <0>         0.1367
     46 H21        -4.8139   -1.2920   -2.1458 H         1 <0>         0.4340
     47 H22        -9.6419    4.8079   -1.8628 H         1 <0>         0.4014
     48 H23        -7.2038    5.2346    0.0900 H         1 <0>         0.3994
     49 H24        -6.3309   -1.2246   -1.5018 H         1 <0>         0.4278
@<TRIPOS>BOND
     1    1    2 1
     2    1   27 1
     3    1   28 1
     4    1   29 1
     5    2    3 1
     6    3    8 ar
     7    3    4 ar
     8    4    5 ar
     9    4   30 1
    10    5    6 ar
    11    5   13 1
    12    6    7 ar
    13    6   31 1
    14    7    8 ar
    15    7   11 1
    16    8    9 1
    17    9   10 1
    18   10   32 1
    19   10   33 1
    20   10   34 1
    21   11   12 1
    22   12   35 1
    23   12   36 1
    24   12   37 1
    25   13   14 1
    26   13   38 1
    27   13   39 1
    28   14   15 1
    29   14   24 1
    30   14   16 1
    31   16   21 ar
    32   16   17 ar
    33   17   18 ar
    34   17   40 1
    35   18   19 ar
    36   18   26 1
    37   19   20 ar
    38   19   25 1
    39   20   21 ar
    40   20   41 1
    41   21   22 1
    42   22   23 1
    43   22   42 1
    44   22   43 1
    45   23   24 1
    46   23   44 1
    47   23   45 1
    48   24   46 1
    49   24   49 1
    50   25   47 1
    51   26   48 1
@<TRIPOS>MOLECULE
ZINC02017274
   48    50     0     0     0
SMALL
USER_CHARGES

@<TRIPOS>ATOM
      1 C1         -0.0173    1.4248    0.0099 C.3       1 <0>         0.0248
      2 O1          0.0021   -0.0041    0.0020 O.3       1 <0>        -0.3024
      3 C2         -1.2011   -0.6379    0.0101 C.ar      1 <0>         0.1516
      4 C3         -2.3748    0.1005    0.0195 C.ar      1 <0>        -0.2326
      5 C4         -3.5982   -0.5428    0.0277 C.ar      1 <0>        -0.0109
      6 C5         -3.6572   -1.9238    0.0266 C.ar      1 <0>        -0.2255
      7 C6         -2.4882   -2.6696    0.0172 C.ar      1 <0>         0.1521
      8 C7         -1.2561   -2.0266    0.0032 C.ar      1 <0>         0.0238
      9 O2         -0.1065   -2.7549   -0.0117 O.3       1 <0>        -0.3130
     10 C8          0.4536   -3.1089    1.2544 C.3       1 <0>         0.0352
     11 O3         -2.5472   -4.0282    0.0166 O.3       1 <0>        -0.3024
     12 C9         -3.8474   -4.6211    0.0259 C.3       1 <0>         0.0241
     13 C10        -4.8712    0.2637    0.0384 C.3       1 <0>        -0.0754
     14 C11        -5.3128    0.5387   -1.4005 C.3       1 <0>         0.1371
     15 H1         -4.4970    1.0179   -1.9418 H         1 <0>         0.0558
     16 C12        -6.5074    1.4565   -1.3872 C.ar      1 <0>        -0.0674
     17 C13        -6.5056    2.5267   -0.5035 C.ar      1 <0>        -0.1267
     18 C14        -7.5779    3.3990   -0.4581 C.ar      1 <0>         0.0784
     19 C15        -8.6649    3.2007   -1.3048 C.ar      1 <0>         0.0842
     20 C16        -8.6632    2.1315   -2.1824 C.ar      1 <0>        -0.1321
     21 C17        -7.5859    1.2583   -2.2226 C.ar      1 <0>        -0.0554
     22 C18        -7.6363    0.1018   -3.1881 C.3       1 <0>        -0.0777
     23 C19        -6.2355   -0.4796   -3.3804 C.3       1 <0>         0.0533
     24 N1         -5.6482   -0.7299   -2.0546 N.3       1 <0>        -0.6789
     25 O4         -9.7230    4.0543   -1.2698 O.3       1 <0>        -0.4876
     26 O5         -7.5707    4.4455    0.4104 O.3       1 <0>        -0.4868
     27 H2          1.0053    1.8021    0.0021 H         1 <0>         0.1035
     28 H3         -0.5445    1.7859   -0.8732 H         1 <0>         0.0571
     29 H4         -0.5275    1.7763    0.9067 H         1 <0>         0.0574
     30 H5         -2.3329    1.1797    0.0207 H         1 <0>         0.1337
     31 H6         -4.6151   -2.4227    0.0334 H         1 <0>         0.1421
     32 H7          1.3650   -3.6864    1.0998 H         1 <0>         0.0926
     33 H8          0.6878   -2.2033    1.8141 H         1 <0>         0.0436
     34 H9         -0.2648   -3.7070    1.8151 H         1 <0>         0.0442
     35 H10        -4.3845   -4.3050    0.9202 H         1 <0>         0.0578
     36 H11        -4.3978   -4.3036   -0.8597 H         1 <0>         0.0604
     37 H12        -3.7517   -5.7069    0.0243 H         1 <0>         0.1027
     38 H13        -5.6506   -0.2944    0.5572 H         1 <0>         0.0905
     39 H14        -4.6980    1.2092    0.5523 H         1 <0>         0.0844
     40 H15        -5.6613    2.6795    0.1525 H         1 <0>         0.1351
     41 H16        -9.5052    1.9758   -2.8406 H         1 <0>         0.1340
     42 H17        -8.2974   -0.6700   -2.7941 H         1 <0>         0.0880
     43 H18        -8.0190    0.4484   -4.1481 H         1 <0>         0.0801
     44 H19        -6.3004   -1.4157   -3.9349 H         1 <0>         0.0837
     45 H20        -5.6159    0.2311   -3.9273 H         1 <0>         0.0384
     46 H21        -9.6427    4.8053   -1.8736 H         1 <0>         0.3878
     47 H22        -7.1830    5.2541    0.0486 H         1 <0>         0.3869
     48 H23        -4.8370   -1.3257   -2.1257 H         1 <0>         0.3503
@<TRIPOS>BOND
     1    1    2 1
     2    1   27 1
     3    1   28 1
     4    1   29 1
     5    2    3 1
     6    3    8 ar
     7    3    4 ar
     8    4    5 ar
     9    4   30 1
    10    5    6 ar
    11    5   13 1
    12    6    7 ar
    13    6   31 1
    14    7    8 ar
    15    7   11 1
    16    8    9 1
    17    9   10 1
    18   10   32 1
    19   10   33 1
    20   10   34 1
    21   11   12 1
    22   12   35 1
    23   12   36 1
    24   12   37 1
    25   13   14 1
    26   13   38 1
    27   13   39 1
    28   14   15 1
    29   14   24 1
    30   14   16 1
    31   16   21 ar
    32   16   17 ar
    33   17   18 ar
    34   17   40 1
    35   18   19 ar
    36   18   26 1
    37   19   20 ar
    38   19   25 1
    39   20   21 ar
    40   20   41 1
    41   21   22 1
    42   22   23 1
    43   22   42 1
    44   22   43 1
    45   23   24 1
    46   23   44 1
    47   23   45 1
    48   24   48 1
    49   25   46 1
    50   26   47 1
@<TRIPOS>MOLECULE
ZINC01617170
   30    31     0     0     0
SMALL
USER_CHARGES

@<TRIPOS>ATOM
      1 C1         -0.0178    1.4648    0.0101 C.3       1 <0>        -0.0469
      2 N1          0.0021   -0.0041    0.0020 N.4       1 <0>        -0.3865
      3 C2          0.6802   -0.4759   -1.2119 C.3       1 <0>        -0.0215
      4 C3          0.6009   -2.0047   -1.2786 C.3       1 <0>         0.1040
      5 N2          1.1441   -2.5548   -0.0269 N.pl3     1 <0>        -0.5986
      6 C4          0.6349   -2.0181    1.2446 C.3       1 <0>         0.1056
      7 C5          0.7126   -0.4887    1.1922 C.3       1 <0>        -0.0213
      8 C6          2.1066   -3.5495   -0.0452 C.ar      1 <0>         0.6299
      9 N3          2.5672   -4.0232    1.1029 N.ar      1 <0>        -0.6131
     10 C7          3.4912   -4.9787    1.1201 C.ar      1 <0>         0.5231
     11 C8          3.9718   -5.4786   -0.0920 C.ar      1 <0>        -0.3031
     12 C9          3.4643   -4.9565   -1.2682 C.ar      1 <0>         0.3184
     13 N4          2.5396   -4.0073   -1.2102 N.ar      1 <0>        -0.5922
     14 Cl1         4.0269   -5.5411   -2.8029 Cl        1 <0>         0.0268
     15 Br1         5.2866   -6.8374   -0.1247 Br        1 <0>         0.0082
     16 N5          3.9708   -5.4712    2.3234 N.pl3     1 <0>        -0.8100
     17 H1          1.0047    1.8421    0.0024 H         1 <0>         0.1217
     18 H2         -0.5450    1.8259   -0.8730 H         1 <0>         0.1263
     19 H3         -0.5280    1.8163    0.9069 H         1 <0>         0.1259
     20 H4          0.1945   -0.0482   -2.0890 H         1 <0>         0.1468
     21 H5          1.7251   -0.1668   -1.1880 H         1 <0>         0.1333
     22 H6         -0.4382   -2.3129   -1.3936 H         1 <0>         0.0967
     23 H7          1.1887   -2.3654   -2.1226 H         1 <0>         0.1438
     24 H8         -0.4008   -2.3277    1.3844 H         1 <0>         0.0960
     25 H9          1.2452   -2.3877    2.0687 H         1 <0>         0.1414
     26 H10         1.7566   -0.1792    1.1434 H         1 <0>         0.1329
     27 H11         0.2508   -0.0704    2.0865 H         1 <0>         0.1460
     28 H12         3.6323   -5.1187    3.1612 H         1 <0>         0.4175
     29 H13         4.6451   -6.1685    2.3277 H         1 <0>         0.4230
     30 H14        -0.9449   -0.3521    0.0122 H         1 <0>         0.4259
@<TRIPOS>BOND
     1    1    2 1
     2    1   17 1
     3    1   18 1
     4    1   19 1
     5    2    7 1
     6    2    3 1
     7    2   30 1
     8    3    4 1
     9    3   20 1
    10    3   21 1
    11    4    5 1
    12    4   22 1
    13    4   23 1
    14    5    6 1
    15    5    8 1
    16    6    7 1
    17    6   24 1
    18    6   25 1
    19    7   26 1
    20    7   27 1
    21    8   13 ar
    22    8    9 ar
    23    9   10 ar
    24   10   11 ar
    25   10   16 1
    26   11   12 ar
    27   11   15 1
    28   12   13 ar
    29   12   14 1
    30   16   28 1
    31   16   29 1
@<TRIPOS>MOLECULE
ZINC01617170
   29    30     0     0     0
SMALL
USER_CHARGES

@<TRIPOS>ATOM
      1 C1         -0.0178    1.4648    0.0101 C.3       1 <0>         0.0244
      2 N1          0.0021   -0.0041    0.0020 N.3       1 <0>        -0.5440
      3 C2          0.5920   -0.5157   -1.2422 C.3       1 <0>         0.0392
      4 C3          0.4303   -2.0387   -1.2918 C.3       1 <0>         0.1278
      5 N2          0.9912   -2.6085   -0.0572 N.pl3     1 <0>        -0.5734
      6 C4          0.5491   -2.0510    1.2300 C.3       1 <0>         0.1296
      7 C5          0.7062   -0.5275    1.1802 C.3       1 <0>         0.0393
      8 C6          1.9104   -3.6425   -0.1056 C.ar      1 <0>         0.6336
      9 N3          2.3896   -4.1337    1.0275 N.ar      1 <0>        -0.6159
     10 C7          3.2732   -5.1267    1.0157 C.ar      1 <0>         0.5214
     11 C8          3.6914   -5.6474   -0.2106 C.ar      1 <0>        -0.3189
     12 C9          3.1664   -5.1058   -1.3704 C.ar      1 <0>         0.3234
     13 N4          2.2844   -4.1190   -1.2834 N.ar      1 <0>        -0.5937
     14 Cl1         3.6521   -5.7150   -2.9218 Cl        1 <0>         0.0081
     15 Br1         4.9467   -7.0597   -0.2844 Br        1 <0>        -0.0137
     16 N5          3.7724   -5.6376    2.2033 N.pl3     1 <0>        -0.8189
     17 H1          1.0047    1.8421    0.0024 H         1 <0>         0.0264
     18 H2         -0.5450    1.8259   -0.8730 H         1 <0>         0.0717
     19 H3         -0.5280    1.8163    0.9069 H         1 <0>         0.0717
     20 H4          0.0842   -0.0681   -2.0965 H         1 <0>         0.0923
     21 H5          1.6514   -0.2612   -1.2740 H         1 <0>         0.0396
     22 H6         -0.6272   -2.2925   -1.3646 H         1 <0>         0.0793
     23 H7          0.9653   -2.4359   -2.1544 H         1 <0>         0.1058
     24 H8         -0.4970   -2.3059    1.3995 H         1 <0>         0.0787
     25 H9          1.1627   -2.4563    2.0346 H         1 <0>         0.1037
     26 H10         1.7640   -0.2728    1.1147 H         1 <0>         0.0391
     27 H11         0.2811   -0.0884    2.0828 H         1 <0>         0.0915
     28 H12         3.4773   -5.2704    3.0513 H         1 <0>         0.4142
     29 H13         4.4169   -6.3623    2.1866 H         1 <0>         0.4176
@<TRIPOS>BOND
     1    1    2 1
     2    1   17 1
     3    1   18 1
     4    1   19 1
     5    2    7 1
     6    2    3 1
     7    3    4 1
     8    3   20 1
     9    3   21 1
    10    4    5 1
    11    4   22 1
    12    4   23 1
    13    5    6 1
    14    5    8 1
    15    6    7 1
    16    6   24 1
    17    6   25 1
    18    7   26 1
    19    7   27 1
    20    8   13 ar
    21    8    9 ar
    22    9   10 ar
    23   10   11 ar
    24   10   16 1
    25   11   12 ar
    26   11   15 1
    27   12   13 ar
    28   12   14 1
    29   16   28 1
    30   16   29 1
@<TRIPOS>MOLECULE
ZINC02033971
   41    44     0     0     0
SMALL
USER_CHARGES

@<TRIPOS>ATOM
      1 C1         -0.0178    1.4648    0.0101 C.3       1 <0>        -0.0527
      2 N1          0.0021   -0.0041    0.0020 N.4       1 <0>        -0.3819
      3 C2         -1.3707   -0.5099    0.0093 C.3       1 <0>        -0.0044
      4 C3         -1.3945   -2.0165   -0.1908 C.3       1 <0>        -0.1050
      5 C4         -0.2778   -2.7021    0.5444 C.ar      1 <0>        -0.0854
      6 C5         -0.2629   -4.0910    0.5709 C.ar      1 <0>        -0.1047
      7 C6          0.7244   -4.7743    1.2518 C.ar      1 <0>        -0.0892
      8 C7          1.7146   -4.0754    1.9128 C.ar      1 <0>        -0.0971
      9 C8          1.7194   -2.6860    1.8733 C.ar      1 <0>        -0.0070
     10 C9          0.7130   -1.9965    1.1919 C.ar      1 <0>        -0.1229
     11 C10         0.7133   -0.4906    1.1934 C.3       1 <0>         0.0893
     12 H1          0.2077   -0.1297    2.0890 H         1 <0>         0.1459
     13 C11         2.1391    0.0560    1.1696 C.3       1 <0>        -0.0877
     14 C12         2.9742   -0.5785    2.2479 C.ar      1 <0>        -0.1113
     15 C13         2.7759   -1.9188    2.5745 C.ar      1 <0>        -0.0410
     16 C14         3.5639   -2.5230    3.5530 C.ar      1 <0>         0.0978
     17 C15         4.5367   -1.7751    4.2088 C.ar      1 <0>         0.1215
     18 C16         4.7147   -0.4388    3.8881 C.ar      1 <0>        -0.1850
     19 C17         3.9357    0.1560    2.9107 C.ar      1 <0>        -0.0678
     20 O1          5.3124   -2.3551    5.1634 O.3       1 <0>        -0.3014
     21 C18         6.2909   -1.5273    5.7954 C.3       1 <0>         0.0210
     22 O2          3.3828   -3.8338    3.8646 O.3       1 <0>        -0.4738
     23 H2          1.0047    1.8421    0.0024 H         1 <0>         0.1272
     24 H3         -0.5450    1.8259   -0.8730 H         1 <0>         0.1287
     25 H4         -0.5280    1.8163    0.9069 H         1 <0>         0.1249
     26 H5         -1.8367   -0.2679    0.9645 H         1 <0>         0.1300
     27 H6         -1.9326   -0.0329   -0.7937 H         1 <0>         0.1390
     28 H7         -2.3469   -2.4064    0.1685 H         1 <0>         0.1229
     29 H8         -1.3037   -2.2338   -1.2551 H         1 <0>         0.1045
     30 H9         -1.0333   -4.6427    0.0527 H         1 <0>         0.1360
     31 H10         0.7220   -5.8542    1.2677 H         1 <0>         0.1404
     32 H11         2.4813   -4.6056    2.4582 H         1 <0>         0.1539
     33 H12         2.5874   -0.1542    0.1986 H         1 <0>         0.0979
     34 H13         2.1121    1.1345    1.3252 H         1 <0>         0.1055
     35 H14         5.4652    0.1418    4.4038 H         1 <0>         0.1434
     36 H15         4.0810    1.1979    2.6663 H         1 <0>         0.1376
     37 H16         5.7955   -0.6911    6.2888 H         1 <0>         0.0611
     38 H17         6.8391   -2.1120    6.5341 H         1 <0>         0.1099
     39 H18         6.9846   -1.1474    5.0453 H         1 <0>         0.0610
     40 H19         3.9208   -4.4411    3.3384 H         1 <0>         0.3928
     41 H20         0.4752   -0.3291   -0.8278 H         1 <0>         0.4258
@<TRIPOS>BOND
     1    1    2 1
     2    1   23 1
     3    1   24 1
     4    1   25 1
     5    2   11 1
     6    2    3 1
     7    2   41 1
     8    3    4 1
     9    3   26 1
    10    3   27 1
    11    4    5 1
    12    4   28 1
    13    4   29 1
    14    5   10 ar
    15    5    6 ar
    16    6    7 ar
    17    6   30 1
    18    7    8 ar
    19    7   31 1
    20    8    9 ar
    21    8   32 1
    22    9   15 1
    23    9   10 ar
    24   10   11 1
    25   11   12 1
    26   11   13 1
    27   13   14 1
    28   13   33 1
    29   13   34 1
    30   14   19 ar
    31   14   15 ar
    32   15   16 ar
    33   16   17 ar
    34   16   22 1
    35   17   18 ar
    36   17   20 1
    37   18   19 ar
    38   18   35 1
    39   19   36 1
    40   20   21 1
    41   21   37 1
    42   21   38 1
    43   21   39 1
    44   22   40 1
@<TRIPOS>MOLECULE
ZINC02033971
   40    43     0     0     0
SMALL
USER_CHARGES

@<TRIPOS>ATOM
      1 C1         -0.0178    1.4648    0.0101 C.3       1 <0>         0.0194
      2 N1          0.0021   -0.0041    0.0020 N.3       1 <0>        -0.5349
      3 C2         -1.3554   -0.5468   -0.0771 C.3       1 <0>         0.0549
      4 C3         -1.3255   -2.0437   -0.3363 C.3       1 <0>        -0.0773
      5 C4         -0.2136   -2.7298    0.4050 C.ar      1 <0>        -0.0674
      6 C5         -0.1676   -4.1185    0.3764 C.ar      1 <0>        -0.1160
      7 C6          0.8160   -4.8083    1.0555 C.ar      1 <0>        -0.1191
      8 C7          1.7732   -4.1167    1.7707 C.ar      1 <0>        -0.1079
      9 C8          1.7473   -2.7271    1.7884 C.ar      1 <0>        -0.0405
     10 C9          0.7422   -2.0318    1.1101 C.ar      1 <0>        -0.0582
     11 C10         0.7070   -0.5281    1.1816 C.3       1 <0>         0.1291
     12 H1          0.1788   -0.2212    2.0843 H         1 <0>         0.0561
     13 C11         2.1199    0.0508    1.2084 C.3       1 <0>        -0.0675
     14 C12         2.9454   -0.6100    2.2786 C.ar      1 <0>        -0.0950
     15 C13         2.7694   -1.9666    2.5450 C.ar      1 <0>        -0.0282
     16 C14         3.5484   -2.5938    3.5165 C.ar      1 <0>         0.0881
     17 C15         4.4897   -1.8532    4.2246 C.ar      1 <0>         0.1041
     18 C16         4.6455   -0.5013    3.9627 C.ar      1 <0>        -0.1921
     19 C17         3.8757    0.1166    2.9923 C.ar      1 <0>        -0.0799
     20 O1          5.2558   -2.4554    5.1733 O.3       1 <0>        -0.3072
     21 C18         6.2016   -1.6340    5.8609 C.3       1 <0>         0.0246
     22 O2          3.3897   -3.9199    3.7698 O.3       1 <0>        -0.4750
     23 H2          1.0047    1.8421    0.0024 H         1 <0>         0.0748
     24 H3         -0.5450    1.8259   -0.8730 H         1 <0>         0.0728
     25 H4         -0.5280    1.8163    0.9069 H         1 <0>         0.0282
     26 H5         -1.8730   -0.3560    0.8630 H         1 <0>         0.0354
     27 H6         -1.8920   -0.0533   -0.8874 H         1 <0>         0.0835
     28 H7         -2.2767   -2.4752   -0.0246 H         1 <0>         0.0804
     29 H8         -1.1956   -2.2145   -1.4050 H         1 <0>         0.0831
     30 H9         -0.9115   -4.6650   -0.1844 H         1 <0>         0.1224
     31 H10         0.8367   -5.8878    1.0279 H         1 <0>         0.1260
     32 H11         2.5378   -4.6525    2.3137 H         1 <0>         0.1422
     33 H12         2.5925   -0.1106    0.2395 H         1 <0>         0.0908
     34 H13         2.0656    1.1213    1.4066 H         1 <0>         0.0818
     35 H14         5.3712    0.0734    4.5190 H         1 <0>         0.1350
     36 H15         4.0042    1.1703    2.7931 H         1 <0>         0.1319
     37 H16         6.7453   -2.2368    6.5883 H         1 <0>         0.1026
     38 H17         6.9038   -1.2097    5.1433 H         1 <0>         0.0565
     39 H18         5.6772   -0.8289    6.3756 H         1 <0>         0.0566
     40 H19         3.9530   -4.4932    3.2322 H         1 <0>         0.3860
@<TRIPOS>BOND
     1    1    2 1
     2    1   23 1
     3    1   24 1
     4    1   25 1
     5    2   11 1
     6    2    3 1
     7    3    4 1
     8    3   26 1
     9    3   27 1
    10    4    5 1
    11    4   28 1
    12    4   29 1
    13    5   10 ar
    14    5    6 ar
    15    6    7 ar
    16    6   30 1
    17    7    8 ar
    18    7   31 1
    19    8    9 ar
    20    8   32 1
    21    9   15 1
    22    9   10 ar
    23   10   11 1
    24   11   12 1
    25   11   13 1
    26   13   14 1
    27   13   33 1
    28   13   34 1
    29   14   19 ar
    30   14   15 ar
    31   15   16 ar
    32   16   17 ar
    33   16   22 1
    34   17   18 ar
    35   17   20 1
    36   18   19 ar
    37   18   35 1
    38   19   36 1
    39   20   21 1
    40   21   37 1
    41   21   38 1
    42   21   39 1
    43   22   40 1
@<TRIPOS>MOLECULE
ZINC00001582
   43    44     0     0     0
SMALL
USER_CHARGES
4-chloro-N-isopropyl-6-(4-methylpiperazin-1-yl)-5-methylsulfanyl-pyrimidin-2-amine
@<TRIPOS>ATOM
      1 C1         -2.3177    6.1574   -1.1072 C.3       1 <0>        -0.1646
      2 C2         -2.4194    5.5221    0.2809 C.3       1 <0>         0.1454
      3 C3         -3.7309    5.9498    0.9426 C.3       1 <0>        -0.1640
      4 N1         -2.3899    4.0629    0.1534 N.pl3     1 <0>        -0.6762
      5 C4         -1.1752    3.3974    0.0839 C.ar      1 <0>         0.6163
      6 N2         -1.1694    2.0781   -0.0368 N.ar      1 <0>        -0.6022
      7 C5         -0.0243    1.4074   -0.1005 C.ar      1 <0>         0.4242
      8 C6          1.1821    2.1178   -0.0501 C.ar      1 <0>        -0.2541
      9 C7          1.1290    3.4992    0.0707 C.ar      1 <0>         0.3104
     10 N3         -0.0535    4.0981    0.1342 N.ar      1 <0>        -0.5562
     11 Cl1         2.5914    4.4323    0.1375 Cl        1 <0>         0.0313
     12 S1          2.7286    1.2779   -0.1375 S.3       1 <0>        -0.0749
     13 C8          3.0938    1.2145   -1.9132 C.3       1 <0>        -0.1417
     14 N4         -0.0234    0.0246   -0.2210 N.pl3     1 <0>        -0.4709
     15 C9         -0.6931   -0.3966   -1.4594 C.3       1 <0>         0.0279
     16 C10        -0.6010   -1.9184   -1.5938 C.3       1 <0>         0.0059
     17 C11        -0.5530   -2.1284    0.8171 C.3       1 <0>         0.0057
     18 C12        -0.6451   -0.6066    0.9515 C.3       1 <0>         0.0310
     19 C13        -1.2217   -4.0131   -0.5488 C.3       1 <0>        -0.0404
     20 H1         -1.3833    5.8527   -1.5787 H         1 <0>         0.0592
     21 H2         -3.1575    5.8291   -1.7195 H         1 <0>         0.0574
     22 H3         -2.3396    7.2431   -1.0124 H         1 <0>         0.0751
     23 H4         -1.5795    5.8504    0.8932 H         1 <0>         0.0978
     24 H5         -3.8034    5.4972    1.9316 H         1 <0>         0.0638
     25 H6         -3.7529    7.0354    1.0374 H         1 <0>         0.0832
     26 H7         -4.5708    5.6215    0.3303 H         1 <0>         0.0636
     27 H8         -3.2200    3.5623    0.1177 H         1 <0>         0.4167
     28 H9          2.2631    0.7430   -2.4384 H         1 <0>         0.0714
     29 H10         3.2351    2.2269   -2.2915 H         1 <0>         0.0783
     30 H11         4.0026    0.6353   -2.0768 H         1 <0>         0.1105
     31 H12        -1.7407   -0.0972   -1.4263 H         1 <0>         0.0785
     32 H13        -0.2069    0.0740   -2.3139 H         1 <0>         0.1204
     33 H14         0.4460   -2.2155   -1.6543 H         1 <0>         0.1439
     34 H15        -1.1220   -2.2363   -2.4969 H         1 <0>         0.1390
     35 H16         0.4946   -2.4279    0.7839 H         1 <0>         0.1455
     36 H17        -1.0388   -2.5990    1.6718 H         1 <0>         0.1398
     37 H18        -0.1239   -0.2891    1.8546 H         1 <0>         0.1260
     38 H19        -1.6921   -0.3096    1.0120 H         1 <0>         0.0771
     39 H20        -1.7471   -4.4521    0.2994 H         1 <0>         0.1234
     40 H21        -1.7234   -4.2976   -1.4737 H         1 <0>         0.1229
     41 H22        -0.1939   -4.3756   -0.5667 H         1 <0>         0.1258
     42 N5         -1.2491   -2.5405   -0.4198 N.4       1 <0>        -0.4001
     43 H23        -2.2259   -2.2278   -0.3731 H         1 <0>         0.4279
@<TRIPOS>BOND
     1    1    2 1
     2    1   20 1
     3    1   21 1
     4    1   22 1
     5    2    3 1
     6    2    4 1
     7    2   23 1
     8    3   24 1
     9    3   25 1
    10    3   26 1
    11    4    5 1
    12    4   27 1
    13    5   10 ar
    14    5    6 ar
    15    6    7 ar
    16    7    8 ar
    17    7   14 1
    18    8    9 ar
    19    8   12 1
    20    9   10 ar
    21    9   11 1
    22   12   13 1
    23   13   28 1
    24   13   29 1
    25   13   30 1
    26   14   18 1
    27   14   15 1
    28   15   16 1
    29   15   31 1
    30   15   32 1
    31   16   33 1
    32   16   34 1
    33   16   42 1
    34   17   18 1
    35   17   35 1
    36   17   36 1
    37   17   42 1
    38   18   37 1
    39   18   38 1
    40   19   39 1
    41   19   40 1
    42   19   41 1
    43   19   42 1
    44   42   43 1
@<TRIPOS>MOLECULE
ZINC04695353
   30    31     0     0     0
SMALL
USER_CHARGES
phenyl-(4-piperidyl)methanone
@<TRIPOS>ATOM
      1 C1          0.5463    4.3900    6.0887 C.ar      1 <0>        -0.0757
      2 C2         -0.8223    4.5843    6.0211 C.ar      1 <0>        -0.1270
      3 C3         -1.5013    4.3300    4.8483 C.ar      1 <0>        -0.0553
      4 C4         -0.8033    3.8747    3.7252 C.ar      1 <0>        -0.1844
      5 C5          0.5788    3.6758    3.8031 C.ar      1 <0>        -0.0775
      6 C6          1.2443    3.9401    4.9815 C.ar      1 <0>        -0.1308
      7 C7         -1.5204    3.6004    2.4696 C.2       1 <0>         0.4038
      8 O1         -2.7195    3.7691    2.4070 O.2       1 <0>        -0.4360
      9 C8         -0.7644    3.1099    1.2618 C.3       1 <0>        -0.1365
     10 C9         -0.7286    1.5791    1.2674 C.3       1 <0>        -0.1403
     11 C10        -0.0127    1.0858    0.0080 C.3       1 <0>         0.0006
     12 C11        -0.7289    3.0396   -1.2338 C.3       1 <0>        -0.0005
     13 C12        -1.4660    3.5913   -0.0113 C.3       1 <0>        -0.1413
     14 H1          1.0725    4.5909    7.0102 H         1 <0>         0.1342
     15 H2         -1.3600    4.9356    6.8894 H         1 <0>         0.1358
     16 H3         -2.5693    4.4824    4.7969 H         1 <0>         0.1360
     17 H4          1.1241    3.3201    2.9413 H         1 <0>         0.1273
     18 H5          2.3122    3.7909    5.0420 H         1 <0>         0.1336
     19 H6          0.1694    3.4670    1.2854 H         1 <0>         0.1033
     20 H7         -1.7471    1.1912    1.2827 H         1 <0>         0.0972
     21 H8         -0.1928    1.2311    2.1505 H         1 <0>         0.1195
     22 H9          0.0021   -0.0041    0.0020 H         1 <0>         0.1383
     23 H10         1.0099    1.4629    0.0003 H         1 <0>         0.1333
     24 H11         0.2971    3.4074   -1.2358 H         1 <0>         0.1321
     25 H12        -1.2345    3.3688   -2.1416 H         1 <0>         0.1374
     26 H13        -1.4570    4.6808   -0.0419 H         1 <0>         0.1158
     27 H14        -2.4961    3.2350   -0.0160 H         1 <0>         0.1015
     28 N1         -0.7276    1.5649   -1.1903 N.4       1 <0>        -0.5178
     29 H15        -1.6967    1.2265   -1.1639 H         1 <0>         0.4345
     30 H16        -0.2612    1.2022   -2.0300 H         1 <0>         0.4386
@<TRIPOS>BOND
     1    1    6 ar
     2    1    2 ar
     3    1   14 1
     4    2    3 ar
     5    2   15 1
     6    3    4 ar
     7    3   16 1
     8    4    5 ar
     9    4    7 1
    10    5    6 ar
    11    5   17 1
    12    6   18 1
    13    7    8 2
    14    7    9 1
    15    9   13 1
    16    9   10 1
    17    9   19 1
    18   10   11 1
    19   10   20 1
    20   10   21 1
    21   11   22 1
    22   11   23 1
    23   11   28 1
    24   12   13 1
    25   12   24 1
    26   12   25 1
    27   12   28 1
    28   13   26 1
    29   13   27 1
    30   28   29 1
    31   28   30 1
@<TRIPOS>MOLECULE
ZINC19418777
   46    49     0     0     0
SMALL
USER_CHARGES

@<TRIPOS>ATOM
      1 C1         -0.0169    1.3952    0.0097 C.ar      1 <0>        -0.0318
      2 C2          1.1683    2.0970    0.0022 C.ar      1 <0>        -0.1663
      3 C3          2.3789    1.4198   -0.0130 C.ar      1 <0>         0.1319
      4 C4          2.4047    0.0329   -0.0212 C.ar      1 <0>        -0.1670
      5 C5          1.2267   -0.6810   -0.0142 C.ar      1 <0>        -0.0431
      6 C6          0.0021   -0.0041    0.0020 C.ar      1 <0>        -0.1846
      7 C7         -1.2591   -0.7596    0.0105 C.2       1 <0>         0.3987
      8 O1         -2.3189   -0.1702    0.0242 O.2       1 <0>        -0.4461
      9 C8         -1.2348   -2.2664    0.0022 C.3       1 <0>        -0.1664
     10 C9         -2.6689   -2.7996    0.0135 C.3       1 <0>        -0.1093
     11 C10        -2.6443   -4.3293    0.0051 C.3       1 <0>         0.0559
     12 N1         -4.0211   -4.8413    0.0160 N.3       1 <0>        -0.5378
     13 C11        -4.6992   -4.5019    1.2749 C.3       1 <0>         0.0550
     14 C12        -6.2124   -4.6958    1.1120 C.3       1 <0>        -0.0535
     15 C13        -6.4467   -6.0622    0.5103 C.2       1 <0>         0.0932
     16 C14        -5.4672   -6.7760   -0.0903 C.2       1 <0>        -0.1751
     17 C15        -6.0587   -8.0184   -0.5360 C.ar      1 <0>        -0.0690
     18 C16        -5.5398   -9.1302   -1.2079 C.ar      1 <0>        -0.1054
     19 C17        -6.4206  -10.1639   -1.4770 C.ar      1 <0>         0.0715
     20 C18        -7.7548  -10.1064   -1.1015 C.ar      1 <0>        -0.1375
     21 C19        -8.2878   -9.0162   -0.4368 C.ar      1 <0>        -0.0960
     22 C20        -7.4237   -7.9611   -0.1530 C.ar      1 <0>         0.0857
     23 N2         -7.6203   -6.7632    0.4760 N.pl3     1 <0>        -0.5808
     24 H1         -8.4645   -6.4570    0.8429 H         1 <0>         0.4178
     25 F1         -5.9677  -11.2599   -2.1243 F         1 <0>        -0.1449
     26 C21        -4.0464   -6.2928   -0.2302 C.3       1 <0>         0.1335
     27 F2          3.5378    2.1141   -0.0204 F         1 <0>        -0.1319
     28 H2         -0.9587    1.9236    0.0260 H         1 <0>         0.1447
     29 H3          1.1551    3.1769    0.0077 H         1 <0>         0.1435
     30 H4          3.3506   -0.4883   -0.0334 H         1 <0>         0.1439
     31 H5          1.2482   -1.7608   -0.0213 H         1 <0>         0.1438
     32 H6         -0.7241   -2.6166   -0.8948 H         1 <0>         0.1031
     33 H7         -0.7064   -2.6261    0.8850 H         1 <0>         0.1005
     34 H8         -3.1796   -2.4493    0.9105 H         1 <0>         0.0707
     35 H9         -3.1973   -2.4398   -0.8693 H         1 <0>         0.0803
     36 H10        -2.1335   -4.6796   -0.8919 H         1 <0>         0.0798
     37 H11        -2.1158   -4.6891    0.8880 H         1 <0>         0.0376
     38 H12        -4.3336   -5.1509    2.0706 H         1 <0>         0.0420
     39 H13        -4.4918   -3.4627    1.5303 H         1 <0>         0.0905
     40 H14        -6.6986   -4.6337    2.0855 H         1 <0>         0.0830
     41 H15        -6.6129   -3.9282    0.4498 H         1 <0>         0.0926
     42 H16        -4.5021   -9.1796   -1.5028 H         1 <0>         0.1417
     43 H17        -8.3994  -10.9407   -1.3361 H         1 <0>         0.1351
     44 H18        -9.3288   -8.9844   -0.1508 H         1 <0>         0.1382
     45 H19        -3.6867   -6.4997   -1.2382 H         1 <0>         0.0868
     46 H20        -3.4138   -6.7991    0.4988 H         1 <0>         0.0454
@<TRIPOS>BOND
     1    1    6 ar
     2    1    2 ar
     3    1   28 1
     4    2    3 ar
     5    2   29 1
     6    3    4 ar
     7    3   27 1
     8    4    5 ar
     9    4   30 1
    10    5    6 ar
    11    5   31 1
    12    6    7 1
    13    7    8 2
    14    7    9 1
    15    9   10 1
    16    9   32 1
    17    9   33 1
    18   10   11 1
    19   10   34 1
    20   10   35 1
    21   11   12 1
    22   11   36 1
    23   11   37 1
    24   12   26 1
    25   12   13 1
    26   13   14 1
    27   13   38 1
    28   13   39 1
    29   14   15 1
    30   14   40 1
    31   14   41 1
    32   15   23 1
    33   15   16 2
    34   16   17 1
    35   16   26 1
    36   17   22 ar
    37   17   18 ar
    38   18   19 ar
    39   18   42 1
    40   19   20 ar
    41   19   25 1
    42   20   21 ar
    43   20   43 1
    44   21   22 ar
    45   21   44 1
    46   22   23 1
    47   23   24 1
    48   26   45 1
    49   26   46 1
@<TRIPOS>MOLECULE
ZINC27561851
   36    39     0     0     0
SMALL
USER_CHARGES
dimethylBLAH
@<TRIPOS>ATOM
      1 C1         -7.5956   -0.0261   -3.2684 C.3       1 <0>         0.0765
      2 N1         -6.3539    0.3861   -2.6092 N.pl3     1 <0>        -0.4890
      3 C2         -5.1965    0.7702   -3.2699 C.2       1 <0>         0.0601
      4 C3         -4.2527    1.0846   -2.3965 C.2       1 <0>        -0.1763
      5 C4         -4.8576    0.8903   -1.0785 C.ar      1 <0>        -0.1330
      6 C5         -6.1723    0.4460   -1.2605 C.ar      1 <0>         0.1130
      7 C6         -6.9247    0.1904   -0.1154 C.ar      1 <0>        -0.1214
      8 C7         -6.2990    0.4030    1.1057 C.ar      1 <0>        -0.0987
      9 C8         -4.9866    0.8522    1.2462 C.ar      1 <0>        -0.1192
     10 C9         -4.2281    1.1124    0.1495 C.ar      1 <0>        -0.0315
     11 C10        -2.8153    1.6052    0.0895 C.3       1 <0>         0.1527
     12 H1         -2.8190    2.7041    0.1374 H         1 <0>         0.0779
     13 C11        -2.1189    1.1088   -1.1791 C.3       1 <0>         0.0699
     14 H2         -2.1205    0.0089   -1.1620 H         1 <0>         0.0496
     15 C12        -2.8143    1.5720   -2.4666 C.3       1 <0>        -0.0281
     16 N2         -0.7250    1.5735   -1.1824 N.3       1 <0>        -0.5387
     17 C13        -0.0127    1.0858    0.0080 C.3       1 <0>         0.0146
     18 C14        -0.7304    1.5801    1.2666 C.3       1 <0>         0.0607
     19 O1         -2.0940    1.1466    1.2350 O.3       1 <0>        -0.3774
     20 C15        -0.0361    1.1628   -2.4131 C.3       1 <0>         0.0179
     21 H3         -7.4636    0.0181   -4.3596 H         1 <0>         0.0882
     22 H4         -8.4108    0.6494   -2.9700 H         1 <0>         0.0735
     23 H5         -7.8447   -1.0553   -2.9705 H         1 <0>         0.0730
     24 H6         -5.0816    0.8071   -4.3432 H         1 <0>         0.1664
     25 H7         -7.9456   -0.1568   -0.1750 H         1 <0>         0.1277
     26 H8         -6.8653    0.2081    2.0044 H         1 <0>         0.1215
     27 H9         -4.5705    0.9943    2.2327 H         1 <0>         0.1260
     28 H10        -2.3231    1.1390   -3.3505 H         1 <0>         0.0799
     29 H11        -2.8022    2.6694   -2.5412 H         1 <0>         0.0853
     30 H12         0.0024   -0.0141    0.0013 H         1 <0>         0.0443
     31 H13         1.0192    1.4667   -0.0005 H         1 <0>         0.0905
     32 H14        -0.2338    1.1682    2.1575 H         1 <0>         0.1033
     33 H15        -0.6942    2.6789    1.3017 H         1 <0>         0.0628
     34 H16         1.0030    1.5229   -2.3893 H         1 <0>         0.0725
     35 H17        -0.5533    1.5926   -3.2836 H         1 <0>         0.0772
     36 H18        -0.0422    0.0654   -2.4879 H         1 <0>         0.0281
@<TRIPOS>BOND
     1    1    2 1
     2    1   21 1
     3    1   22 1
     4    1   23 1
     5    2    6 1
     6    2    3 1
     7    3    4 2
     8    3   24 1
     9    4   15 1
    10    4    5 1
    11    5   10 ar
    12    5    6 ar
    13    6    7 ar
    14    7    8 ar
    15    7   25 1
    16    8    9 ar
    17    8   26 1
    18    9   10 ar
    19    9   27 1
    20   10   11 1
    21   11   12 1
    22   11   19 1
    23   11   13 1
    24   13   14 1
    25   13   15 1
    26   13   16 1
    27   15   28 1
    28   15   29 1
    29   16   17 1
    30   16   20 1
    31   17   18 1
    32   17   30 1
    33   17   31 1
    34   18   19 1
    35   18   32 1
    36   18   33 1
    37   20   34 1
    38   20   35 1
    39   20   36 1
@<TRIPOS>MOLECULE
ZINC27561851
   37    40     0     0     0
SMALL
USER_CHARGES
dimethylBLAH
@<TRIPOS>ATOM
      1 C1         -7.5956   -0.0261   -3.2684 C.3       1 <0>         0.0681
      2 N1         -6.3539    0.3861   -2.6092 N.pl3     1 <0>        -0.4800
      3 C2         -5.1965    0.7702   -3.2699 C.2       1 <0>         0.0962
      4 C3         -4.2527    1.0846   -2.3965 C.2       1 <0>        -0.2078
      5 C4         -4.8576    0.8903   -1.0785 C.ar      1 <0>        -0.1287
      6 C5         -6.1723    0.4460   -1.2605 C.ar      1 <0>         0.1137
      7 C6         -6.9247    0.1904   -0.1154 C.ar      1 <0>        -0.0975
      8 C7         -6.2990    0.4030    1.1057 C.ar      1 <0>        -0.1010
      9 C8         -4.9866    0.8522    1.2462 C.ar      1 <0>        -0.0933
     10 C9         -4.2281    1.1124    0.1495 C.ar      1 <0>        -0.0615
     11 C10        -2.8153    1.6052    0.0895 C.3       1 <0>         0.1408
     12 H1         -2.8190    2.7041    0.1374 H         1 <0>         0.0942
     13 C11        -2.1189    1.1088   -1.1791 C.3       1 <0>         0.0136
     14 H2         -2.1205    0.0089   -1.1620 H         1 <0>         0.1422
     15 C12        -2.8143    1.5720   -2.4666 C.3       1 <0>        -0.0448
     16 N2         -0.7250    1.5735   -1.1824 N.4       1 <0>        -0.4007
     17 C13        -0.0127    1.0858    0.0080 C.3       1 <0>        -0.0414
     18 C14        -0.7304    1.5801    1.2666 C.3       1 <0>         0.0333
     19 O1         -2.0940    1.1466    1.2350 O.3       1 <0>        -0.3522
     20 C15        -0.0361    1.1628   -2.4131 C.3       1 <0>        -0.0510
     21 H3         -7.4636    0.0181   -4.3596 H         1 <0>         0.0944
     22 H4         -8.4108    0.6494   -2.9700 H         1 <0>         0.0814
     23 H5         -7.8447   -1.0553   -2.9705 H         1 <0>         0.0810
     24 H6         -5.0816    0.8071   -4.3432 H         1 <0>         0.1726
     25 H7         -7.9456   -0.1568   -0.1750 H         1 <0>         0.1366
     26 H8         -6.8653    0.2081    2.0044 H         1 <0>         0.1306
     27 H9         -4.5705    0.9943    2.2327 H         1 <0>         0.1312
     28 H10        -2.3231    1.1390   -3.3505 H         1 <0>         0.1025
     29 H11        -2.8022    2.6694   -2.5412 H         1 <0>         0.0970
     30 H12         0.0024   -0.0141    0.0013 H         1 <0>         0.1363
     31 H13         1.0192    1.4667   -0.0005 H         1 <0>         0.1459
     32 H14        -0.2338    1.1682    2.1575 H         1 <0>         0.1449
     33 H15        -0.6942    2.6789    1.3017 H         1 <0>         0.0832
     34 H16         1.0030    1.5229   -2.3893 H         1 <0>         0.1286
     35 H17        -0.5533    1.5926   -3.2836 H         1 <0>         0.1292
     36 H18        -0.0422    0.0654   -2.4879 H         1 <0>         0.1209
     37 H19        -0.7309    2.6731   -1.1526 H         1 <0>         0.4414
@<TRIPOS>BOND
     1    1    2 1
     2    1   21 1
     3    1   22 1
     4    1   23 1
     5    2    6 1
     6    2    3 1
     7    3    4 2
     8    3   24 1
     9    4   15 1
    10    4    5 1
    11    5   10 ar
    12    5    6 ar
    13    6    7 ar
    14    7    8 ar
    15    7   25 1
    16    8    9 ar
    17    8   26 1
    18    9   10 ar
    19    9   27 1
    20   10   11 1
    21   11   12 1
    22   11   19 1
    23   11   13 1
    24   13   14 1
    25   13   15 1
    26   13   16 1
    27   15   28 1
    28   15   29 1
    29   16   17 1
    30   16   20 1
    31   16   37 1
    32   17   18 1
    33   17   30 1
    34   17   31 1
    35   18   19 1
    36   18   32 1
    37   18   33 1
    38   20   34 1
    39   20   35 1
    40   20   36 1
@<TRIPOS>MOLECULE
ZINC05647675
   42    43     0     0     0
SMALL
USER_CHARGES
3-dipropylaminochroman-8-ol
@<TRIPOS>ATOM
      1 C1          0.1381    2.2805    1.3011 C.3       1 <0>        -0.1555
      2 C2          0.4980    1.6435   -0.0427 C.3       1 <0>        -0.1511
      3 C3          0.1249    0.1599   -0.0200 C.3       1 <0>        -0.0139
      4 C4          0.5583   -1.9427   -1.1398 C.3       1 <0>        -0.0190
      5 C5          1.5910   -2.3850   -0.1011 C.3       1 <0>        -0.1492
      6 C6          1.5663   -3.9095    0.0255 C.3       1 <0>        -0.1566
      7 C7         -0.2194   -0.0330   -2.4089 C.3       1 <0>        -0.0141
      8 H1         -0.2635    1.0560   -2.4252 H         1 <0>         0.1521
      9 C8         -1.6351   -0.6052   -2.3032 C.3       1 <0>        -0.0880
     10 C9         -2.3639   -0.4018   -3.6076 C.ar      1 <0>        -0.1538
     11 C10        -3.7465   -0.5032   -3.6211 C.ar      1 <0>        -0.0869
     12 C11        -4.4486   -0.3309   -4.7973 C.ar      1 <0>        -0.1169
     13 C12        -3.7732   -0.0562   -5.9723 C.ar      1 <0>        -0.1017
     14 C13        -2.3935    0.0478   -5.9666 C.ar      1 <0>         0.0959
     15 C14        -1.6829   -0.1245   -4.7776 C.ar      1 <0>         0.0886
     16 O1         -0.3286   -0.0112   -4.8093 O.3       1 <0>        -0.2794
     17 C15         0.4117   -0.5445   -3.7103 C.3       1 <0>         0.0478
     18 O2         -1.7284    0.3179   -7.1217 O.3       1 <0>        -0.4832
     19 H2          0.4039    3.3375    1.2849 H         1 <0>         0.0782
     20 H3         -0.9327    2.1778    1.4767 H         1 <0>         0.0672
     21 H4          0.6868    1.7800    2.0989 H         1 <0>         0.0676
     22 H5          1.5688    1.7463   -0.2183 H         1 <0>         0.0863
     23 H6         -0.0507    2.1440   -0.8405 H         1 <0>         0.0851
     24 H7          0.6020   -0.3217    0.8335 H         1 <0>         0.1356
     25 H8         -0.9571    0.0586    0.0637 H         1 <0>         0.1322
     26 H9         -0.4343   -2.2652   -0.8253 H         1 <0>         0.1350
     27 H10         0.7975   -2.3914   -2.1039 H         1 <0>         0.1299
     28 H11         2.5836   -2.0626   -0.4156 H         1 <0>         0.0872
     29 H12         1.3518   -1.9364    0.8630 H         1 <0>         0.0873
     30 H13         0.5737   -4.2320    0.3400 H         1 <0>         0.0672
     31 H14         1.8056   -4.3582   -0.9386 H         1 <0>         0.0674
     32 H15         2.3021   -4.2246    0.7655 H         1 <0>         0.0788
     33 H16        -1.5799   -1.6710   -2.0814 H         1 <0>         0.1012
     34 H17        -2.1731   -0.0964   -1.5033 H         1 <0>         0.1071
     35 H18        -4.2777   -0.7177   -2.7055 H         1 <0>         0.1344
     36 H19        -5.5256   -0.4111   -4.7998 H         1 <0>         0.1404
     37 H20        -4.3218    0.0765   -6.8931 H         1 <0>         0.1463
     38 H21         1.4484   -0.2132   -3.7707 H         1 <0>         0.1270
     39 H22         0.3723   -1.6335   -3.7343 H         1 <0>         0.0866
     40 H23        -1.4705   -0.4695   -7.6203 H         1 <0>         0.3952
     41 N1          0.6091   -0.4709   -1.2660 N.4       1 <0>        -0.3877
     42 H24         1.5813   -0.1836   -1.4293 H         1 <0>         0.4295
@<TRIPOS>BOND
     1    1    2 1
     2    1   19 1
     3    1   20 1
     4    1   21 1
     5    2    3 1
     6    2   22 1
     7    2   23 1
     8    3   24 1
     9    3   25 1
    10    3   41 1
    11    4    5 1
    12    4   26 1
    13    4   27 1
    14    4   41 1
    15    5    6 1
    16    5   28 1
    17    5   29 1
    18    6   30 1
    19    6   31 1
    20    6   32 1
    21    7    8 1
    22    7   17 1
    23    7    9 1
    24    7   41 1
    25    9   10 1
    26    9   33 1
    27    9   34 1
    28   10   15 ar
    29   10   11 ar
    30   11   12 ar
    31   11   35 1
    32   12   13 ar
    33   12   36 1
    34   13   14 ar
    35   13   37 1
    36   14   15 ar
    37   14   18 1
    38   15   16 1
    39   16   17 1
    40   17   38 1
    41   17   39 1
    42   18   40 1
    43   41   42 1
@<TRIPOS>MOLECULE
ZINC05647678
   42    43     0     0     0
SMALL
USER_CHARGES
3-dipropylaminochroman-8-ol
@<TRIPOS>ATOM
      1 C1         -0.1585   -2.4006    4.1013 C.3       1 <0>        -0.1568
      2 C2          0.1041   -0.8989    3.9707 C.3       1 <0>        -0.1490
      3 C3         -0.3565   -0.4185    2.5931 C.3       1 <0>        -0.0192
      4 C4          1.3367    1.3081    2.4734 C.3       1 <0>        -0.0149
      5 C5          1.5649    2.7769    2.8362 C.3       1 <0>        -0.1512
      6 C6          3.0557    3.1034    2.7275 C.3       1 <0>        -0.1556
      7 C7         -0.7437    1.5666    1.2619 C.3       1 <0>        -0.0135
      8 H1         -0.4522    2.6085    1.1286 H         1 <0>         0.1512
      9 C8         -0.3166    0.7516    0.0388 C.3       1 <0>        -0.0885
     10 C9         -1.1862    1.1097   -1.1397 C.ar      1 <0>        -0.1536
     11 C10        -0.7500    0.7810   -2.4140 C.ar      1 <0>        -0.0871
     12 C11        -1.5221    1.0852   -3.5173 C.ar      1 <0>        -0.1170
     13 C12        -2.7391    1.7218   -3.3559 C.ar      1 <0>        -0.1022
     14 C13        -3.1804    2.0545   -2.0874 C.ar      1 <0>         0.0969
     15 C14        -2.3996    1.7490   -0.9714 C.ar      1 <0>         0.0881
     16 O1         -2.8629    2.0954    0.2587 O.3       1 <0>        -0.2807
     17 C15        -2.2687    1.4695    1.3967 C.3       1 <0>         0.0489
     18 O2         -4.3773    2.6802   -1.9276 O.3       1 <0>        -0.4836
     19 H2         -1.2251   -2.5942    3.9868 H         1 <0>         0.0677
     20 H3          0.3928   -2.9345    3.3273 H         1 <0>         0.0673
     21 H4          0.1696   -2.7428    5.0827 H         1 <0>         0.0789
     22 H5          1.1706   -0.7053    4.0852 H         1 <0>         0.0872
     23 H6         -0.4472   -0.3650    4.7448 H         1 <0>         0.0873
     24 H7         -1.4230   -0.6121    2.4786 H         1 <0>         0.1303
     25 H8          0.1948   -0.9524    1.8191 H         1 <0>         0.1353
     26 H9          1.8300    0.6716    3.2080 H         1 <0>         0.1360
     27 H10         1.7502    1.1096    1.4846 H         1 <0>         0.1319
     28 H11         1.0030    3.4118    2.1512 H         1 <0>         0.0831
     29 H12         1.2273    2.9557    3.8570 H         1 <0>         0.0883
     30 H13         3.6176    2.4685    3.4125 H         1 <0>         0.0682
     31 H14         3.3933    2.9246    1.7066 H         1 <0>         0.0665
     32 H15         3.2182    4.1498    2.9859 H         1 <0>         0.0782
     33 H16        -0.4214   -0.3112    0.2572 H         1 <0>         0.1017
     34 H17         0.7243    0.9715   -0.1984 H         1 <0>         0.1071
     35 H18         0.2000    0.2841   -2.5444 H         1 <0>         0.1344
     36 H19        -1.1753    0.8264   -4.5069 H         1 <0>         0.1404
     37 H20        -3.3443    1.9584   -4.2185 H         1 <0>         0.1464
     38 H21        -2.5901    1.9786    2.3053 H         1 <0>         0.1271
     39 H22        -2.5677    0.4221    1.4375 H         1 <0>         0.0871
     40 H23        -4.3222    3.6455   -1.9474 H         1 <0>         0.3957
     41 N1         -0.1160    1.0363    2.4905 N.4       1 <0>        -0.3877
     42 H24        -0.5328    1.5015    3.3055 H         1 <0>         0.4295
@<TRIPOS>BOND
     1    1    2 1
     2    1   19 1
     3    1   20 1
     4    1   21 1
     5    2    3 1
     6    2   22 1
     7    2   23 1
     8    3   24 1
     9    3   25 1
    10    3   41 1
    11    4    5 1
    12    4   26 1
    13    4   27 1
    14    4   41 1
    15    5    6 1
    16    5   28 1
    17    5   29 1
    18    6   30 1
    19    6   31 1
    20    6   32 1
    21    7    8 1
    22    7   17 1
    23    7    9 1
    24    7   41 1
    25    9   10 1
    26    9   33 1
    27    9   34 1
    28   10   15 ar
    29   10   11 ar
    30   11   12 ar
    31   11   35 1
    32   12   13 ar
    33   12   36 1
    34   13   14 ar
    35   13   37 1
    36   14   15 ar
    37   14   18 1
    38   15   16 1
    39   16   17 1
    40   17   38 1
    41   17   39 1
    42   18   40 1
    43   41   42 1
@<TRIPOS>MOLECULE
ZINC25973757
   42    45     0     0     0
SMALL
USER_CHARGES
8-chloro-6-(4-methylpiperazin-1-yl)-11H-benzo[b][1,4]benzodiazepine
@<TRIPOS>ATOM
      1 C1          6.5878    0.4674    4.5541 C.3       1 <0>         0.0223
      2 N1          6.1616    0.4699    3.1483 N.3       1 <0>        -0.5420
      3 C2          6.2433   -0.8784    2.5710 C.3       1 <0>         0.0390
      4 C3          5.9670   -0.8034    1.0656 C.3       1 <0>         0.1259
      5 N2          4.6834   -0.1155    0.8598 N.pl3     1 <0>        -0.5969
      6 C4          4.4774    1.1843    1.5166 C.3       1 <0>         0.1100
      7 C5          4.8100    1.0283    3.0090 C.3       1 <0>         0.0399
      8 C6          3.7032   -0.6707    0.0689 C.2       1 <0>         0.5010
      9 N3          3.9085   -1.8657   -0.3582 N.2       1 <0>        -0.5939
     10 C7          3.1080   -2.6172   -1.1642 C.ar      1 <0>         0.1412
     11 C8          3.6965   -3.4323   -2.1349 C.ar      1 <0>        -0.1095
     12 C9          2.9147   -4.2737   -2.9019 C.ar      1 <0>        -0.1115
     13 C10         1.5457   -4.3145   -2.7164 C.ar      1 <0>        -0.1272
     14 C11         0.9480   -3.4977   -1.7714 C.ar      1 <0>        -0.1174
     15 C12         1.7184   -2.6384   -1.0063 C.ar      1 <0>         0.1136
     16 N4          1.0898   -1.7894   -0.0817 N.pl3     1 <0>        -0.7377
     17 C13         1.2416   -0.4086   -0.2311 C.ar      1 <0>         0.2275
     18 C14         2.5216    0.1598   -0.2065 C.ar      1 <0>        -0.1331
     19 C15         2.6667    1.5311   -0.4222 C.ar      1 <0>        -0.0635
     20 C16         1.5511    2.3191   -0.6297 C.ar      1 <0>        -0.0594
     21 C17         0.2870    1.7548   -0.6305 C.ar      1 <0>        -0.0684
     22 C18         0.1315    0.3938   -0.4377 C.ar      1 <0>        -0.1334
     23 Cl1         1.7354    4.0254   -0.8908 Cl        1 <0>        -0.0598
     24 H1          7.6008    0.0452    4.6294 H         1 <0>         0.0718
     25 H2          5.8911   -0.1430    5.1474 H         1 <0>         0.0256
     26 H3          6.5907    1.4982    4.9382 H         1 <0>         0.0716
     27 H4          7.2495   -1.2894    2.7403 H         1 <0>         0.0881
     28 H5          5.4963   -1.5283    3.0502 H         1 <0>         0.0376
     29 H6          6.7756   -0.2445    0.5718 H         1 <0>         0.0716
     30 H7          5.9181   -1.8209    0.6506 H         1 <0>         0.1067
     31 H8          5.1384    1.9351    1.0591 H         1 <0>         0.0799
     32 H9          3.4294    1.4951    1.3940 H         1 <0>         0.0966
     33 H10         4.0829    0.3503    3.4798 H         1 <0>         0.0384
     34 H11         4.7668    2.0112    3.5010 H         1 <0>         0.0898
     35 H12         4.7655   -3.4039   -2.2859 H         1 <0>         0.1263
     36 H13         3.3750   -4.9021   -3.6500 H         1 <0>         0.1252
     37 H14         0.9411   -4.9844   -3.3097 H         1 <0>         0.1239
     38 H15        -0.1224   -3.5307   -1.6310 H         1 <0>         0.1222
     39 H16         0.4931   -2.2150    0.7386 H         1 <0>         0.4307
     40 H17         3.6508    1.9761   -0.4265 H         1 <0>         0.1440
     41 H18        -0.5806    2.3787   -0.7866 H         1 <0>         0.1418
     42 H19        -0.8561   -0.0433   -0.4479 H         1 <0>         0.1415
@<TRIPOS>BOND
     1    1    2 1
     2    1   24 1
     3    1   25 1
     4    1   26 1
     5    2    7 1
     6    2    3 1
     7    3    4 1
     8    3   27 1
     9    3   28 1
    10    4    5 1
    11    4   29 1
    12    4   30 1
    13    5    6 1
    14    5    8 1
    15    6    7 1
    16    6   31 1
    17    6   32 1
    18    7   33 1
    19    7   34 1
    20    8   18 1
    21    8    9 2
    22    9   10 1
    23   10   15 ar
    24   10   11 ar
    25   11   12 ar
    26   11   35 1
    27   12   13 ar
    28   12   36 1
    29   13   14 ar
    30   13   37 1
    31   14   15 ar
    32   14   38 1
    33   15   16 1
    34   16   17 1
    35   16   39 1
    36   17   22 ar
    37   17   18 ar
    38   18   19 ar
    39   19   20 ar
    40   19   40 1
    41   20   21 ar
    42   20   23 1
    43   21   22 ar
    44   21   41 1
    45   22   42 1
@<TRIPOS>MOLECULE
ZINC25724686
   38    40     0     0     0
SMALL
USER_CHARGES

@<TRIPOS>ATOM
      1 C1         -0.0187    1.5258    0.0104 C.3       1 <0>        -0.1561
      2 C2          0.0021   -0.0041    0.0020 C.3       1 <0>        -0.1499
      3 C3         -1.4333   -0.5336    0.0129 C.3       1 <0>        -0.0186
      4 N1         -1.4134   -2.0025    0.0048 N.4       1 <0>        -0.3818
      5 C4         -0.8024   -2.4686   -1.2419 C.3       1 <0>        -0.0134
      6 C5         -0.6829   -3.9953   -1.1891 C.3       1 <0>        -0.1441
      7 C6         -2.0879   -4.5869   -1.0823 C.3       1 <0>        -0.1368
      8 C7         -2.8011   -4.0341    0.1578 C.3       1 <0>        -0.0935
      9 H1         -2.3109   -4.4036    1.0585 H         1 <0>         0.1024
     10 C8         -2.7889   -2.5050    0.1363 C.3       1 <0>         0.0410
     11 H2         -3.3917   -2.1455   -0.6977 H         1 <0>         0.1403
     12 C9         -3.3405   -1.9581    1.4649 C.3       1 <0>        -0.0535
     13 C10        -4.6463   -2.6405    1.7730 C.2       1 <0>        -0.2616
     14 C11        -5.6018   -2.2670    2.6446 C.2       1 <0>         0.0910
     15 N2         -6.5925   -3.1847    2.5837 N.pl3     1 <0>        -0.4690
     16 H3         -7.4123   -3.1740    3.1021 H         1 <0>         0.4493
     17 N3         -6.2271   -4.1548    1.6383 N.2       1 <0>        -0.2688
     18 C12        -5.0639   -3.8292    1.1528 C.2       1 <0>         0.0751
     19 C13        -4.2507   -4.5477    0.1088 C.3       1 <0>        -0.0327
     20 H4          1.0039    1.9031    0.0027 H         1 <0>         0.0770
     21 H5         -0.5459    1.8868   -0.8726 H         1 <0>         0.0666
     22 H6         -0.5289    1.8773    0.9072 H         1 <0>         0.0669
     23 H7          0.5123   -0.3556   -0.8948 H         1 <0>         0.0861
     24 H8          0.5293   -0.3651    0.8851 H         1 <0>         0.0857
     25 H9         -1.9435   -0.1821    0.9097 H         1 <0>         0.1336
     26 H10        -1.9605   -0.1726   -0.8702 H         1 <0>         0.1295
     27 H11        -1.4283   -2.1798   -2.0863 H         1 <0>         0.1293
     28 H12         0.1886   -2.0278   -1.3507 H         1 <0>         0.1337
     29 H13        -0.2012   -4.3567   -2.0976 H         1 <0>         0.1143
     30 H14        -0.0954   -4.2869   -0.3185 H         1 <0>         0.0887
     31 H15        -2.6585   -4.3260   -1.9736 H         1 <0>         0.0847
     32 H16        -2.0181   -5.6720   -1.0053 H         1 <0>         0.0979
     33 H17        -2.6276   -2.1570    2.2651 H         1 <0>         0.0886
     34 H18        -3.5023   -0.8837    1.3778 H         1 <0>         0.0944
     35 H19        -5.5806   -1.3924    3.2779 H         1 <0>         0.1833
     36 H20        -4.6724   -4.3551   -0.8777 H         1 <0>         0.0969
     37 H21        -4.2648   -5.6190    0.3095 H         1 <0>         0.1039
     38 H22        -0.8645   -2.3308    0.7852 H         1 <0>         0.4199
@<TRIPOS>BOND
     1    1    2 1
     2    1   20 1
     3    1   21 1
     4    1   22 1
     5    2    3 1
     6    2   23 1
     7    2   24 1
     8    3    4 1
     9    3   25 1
    10    3   26 1
    11    4   10 1
    12    4    5 1
    13    4   38 1
    14    5    6 1
    15    5   27 1
    16    5   28 1
    17    6    7 1
    18    6   29 1
    19    6   30 1
    20    7    8 1
    21    7   31 1
    22    7   32 1
    23    8    9 1
    24    8   19 1
    25    8   10 1
    26   10   11 1
    27   10   12 1
    28   12   13 1
    29   12   33 1
    30   12   34 1
    31   13   18 1
    32   13   14 2
    33   14   15 1
    34   14   35 1
    35   15   16 1
    36   15   17 1
    37   17   18 2
    38   18   19 1
    39   19   36 1
    40   19   37 1
@<TRIPOS>MOLECULE
ZINC19796155
   42    45     0     0     0
SMALL
USER_CHARGES

@<TRIPOS>ATOM
      1 C1         -0.0670    1.4396   -0.3852 C.3       1 <0>         0.0243
      2 N1         -0.0229   -0.0169   -0.1987 N.3       1 <0>        -0.5428
      3 C2          0.3808   -0.6943   -1.4380 C.3       1 <0>         0.0399
      4 C3          0.2401   -2.2095   -1.2572 C.3       1 <0>         0.1263
      5 N2          0.9912   -2.6085   -0.0572 N.pl3     1 <0>        -0.5953
      6 C4          0.7394   -1.8803    1.1955 C.3       1 <0>         0.1122
      7 C5          0.8604   -0.3781    0.9181 C.3       1 <0>         0.0393
      8 C6          1.9051   -3.6365   -0.1053 C.2       1 <0>         0.5098
      9 N3          2.1670   -4.1290   -1.2643 N.2       1 <0>        -0.6041
     10 C7          3.0130   -5.1503   -1.5719 C.ar      1 <0>         0.1655
     11 C8          2.6280   -6.0848   -2.5372 C.ar      1 <0>        -0.1058
     12 C9          3.4872   -7.1047   -2.8991 C.ar      1 <0>        -0.0230
     13 C10         4.7348   -7.2069   -2.3106 C.ar      1 <0>        -0.1209
     14 C11         5.1212   -6.2977   -1.3402 C.ar      1 <0>        -0.1017
     15 C12         4.2618   -5.2835   -0.9546 C.ar      1 <0>         0.1117
     16 N4          4.6314   -4.4326    0.1003 N.pl3     1 <0>        -0.7261
     17 C13         3.8434   -4.4184    1.2519 C.ar      1 <0>         0.2140
     18 C14         2.4943   -4.0640    1.1729 C.ar      1 <0>        -0.1453
     19 C15         1.7072   -4.1133    2.3240 C.ar      1 <0>        -0.0723
     20 C16         2.2727   -4.4729    3.5311 C.ar      1 <0>        -0.1389
     21 C17         3.6189   -4.7825    3.6069 C.ar      1 <0>        -0.0765
     22 C18         4.3974   -4.7629    2.4751 C.ar      1 <0>        -0.1433
     23 Cl1         2.9987   -8.2627   -4.0966 Cl        1 <0>        -0.0679
     24 H1          0.9359    1.8090   -0.5992 H         1 <0>         0.0255
     25 H2         -0.7279    1.6794   -1.2181 H         1 <0>         0.0711
     26 H3         -0.4416    1.9111    0.5233 H         1 <0>         0.0709
     27 H4         -0.2581   -0.3649   -2.2574 H         1 <0>         0.0878
     28 H5          1.4186   -0.4499   -1.6647 H         1 <0>         0.0378
     29 H6         -0.8117   -2.4673   -1.1334 H         1 <0>         0.0720
     30 H7          0.6453   -2.7216   -2.1299 H         1 <0>         0.1060
     31 H8         -0.2645   -2.1065    1.5551 H         1 <0>         0.0792
     32 H9          1.4746   -2.1748    1.9444 H         1 <0>         0.0984
     33 H10         1.8915   -0.1381    0.6586 H         1 <0>         0.0379
     34 H11         0.5693    0.1807    1.8075 H         1 <0>         0.0892
     35 H12         1.6558   -6.0097   -3.0016 H         1 <0>         0.1375
     36 H13         5.4083   -7.9971   -2.6081 H         1 <0>         0.1357
     37 H14         6.0961   -6.3802   -0.8829 H         1 <0>         0.1326
     38 H15         5.4169   -3.8679    0.0299 H         1 <0>         0.4097
     39 H16         0.6563   -3.8699    2.2709 H         1 <0>         0.1344
     40 H17         1.6613   -4.5124    4.4205 H         1 <0>         0.1323
     41 H18         4.0571   -5.0467    4.5580 H         1 <0>         0.1317
     42 H19         5.4473   -5.0071    2.5424 H         1 <0>         0.1313
@<TRIPOS>BOND
     1    1    2 1
     2    1   24 1
     3    1   25 1
     4    1   26 1
     5    2    7 1
     6    2    3 1
     7    3    4 1
     8    3   27 1
     9    3   28 1
    10    4    5 1
    11    4   29 1
    12    4   30 1
    13    5    6 1
    14    5    8 1
    15    6    7 1
    16    6   31 1
    17    6   32 1
    18    7   33 1
    19    7   34 1
    20    8   18 1
    21    8    9 2
    22    9   10 1
    23   10   15 ar
    24   10   11 ar
    25   11   12 ar
    26   11   35 1
    27   12   13 ar
    28   12   23 1
    29   13   14 ar
    30   13   36 1
    31   14   15 ar
    32   14   37 1
    33   15   16 1
    34   16   17 1
    35   16   38 1
    36   17   22 ar
    37   17   18 ar
    38   18   19 ar
    39   19   20 ar
    40   19   39 1
    41   20   21 ar
    42   20   40 1
    43   21   22 ar
    44   21   41 1
    45   22   42 1
@<TRIPOS>MOLECULE
ZINC19796155
   44    47     0     0     0
SMALL
USER_CHARGES

@<TRIPOS>ATOM
      1 C1         -1.5703   -0.0018   -1.9302 C.3       1 <0>        -0.0497
      2 N1         -0.7527   -0.7171   -0.9414 N.4       1 <0>        -0.3854
      3 C2         -1.0498   -2.1535   -1.0104 C.3       1 <0>        -0.0252
      4 C3         -0.2839   -2.8861    0.0962 C.3       1 <0>         0.1048
      5 N2          1.1441   -2.5548   -0.0269 N.pl3     1 <0>        -0.7052
      6 C4          1.5202   -1.1363   -0.1296 C.3       1 <0>         0.1049
      7 C5          0.6692   -0.4862   -1.2256 C.3       1 <0>        -0.0251
      8 C6          2.0831   -3.5253   -0.0448 C.2       1 <0>         0.6309
      9 C7          2.6112   -3.9094    1.2074 C.ar      1 <0>        -0.2438
     10 C8          2.0495   -3.1929    2.2728 C.ar      1 <0>         0.0055
     11 C9          2.4602   -3.4528    3.5483 C.ar      1 <0>        -0.1817
     12 C10         3.4265   -4.4148    3.8208 C.ar      1 <0>         0.0489
     13 C11         4.0101   -5.1439    2.8276 C.ar      1 <0>        -0.2233
     14 C12         3.6302   -4.9235    1.4921 C.ar      1 <0>         0.3343
     15 N3          4.2865   -5.7106    0.6358 N.pl3     1 <0>        -0.6131
     16 C13         4.1767   -5.7728   -0.7271 C.ar      1 <0>         0.1589
     17 C14         5.0408   -6.7320   -1.2562 C.ar      1 <0>        -0.1157
     18 C15         5.0795   -6.9478   -2.6222 C.ar      1 <0>        -0.0495
     19 C16         4.2642   -6.2154   -3.4643 C.ar      1 <0>        -0.0338
     20 C17         3.4016   -5.2585   -2.9468 C.ar      1 <0>        -0.0846
     21 C18         3.3520   -5.0321   -1.5848 C.ar      1 <0>         0.0769
     22 N4          2.4115   -4.0290   -1.2719 N.pl3     1 <0>        -0.5773
     23 Cl1         4.3195   -6.4929   -5.1771 Cl        1 <0>        -0.0159
     24 H1         -1.3348   -0.3678   -2.9295 H         1 <0>         0.1246
     25 H2         -2.6262   -0.1724   -1.7203 H         1 <0>         0.1321
     26 H3         -1.3566    1.0656   -1.8745 H         1 <0>         0.1321
     27 H4         -2.1201   -2.3101   -0.8766 H         1 <0>         0.1569
     28 H5         -0.7442   -2.5415   -1.9820 H         1 <0>         0.1344
     29 H6         -0.6518   -2.5648    1.0707 H         1 <0>         0.1155
     30 H7         -0.4211   -3.9618   -0.0138 H         1 <0>         0.1302
     31 H8          1.3345   -0.6383    0.8220 H         1 <0>         0.1155
     32 H9          2.5758   -1.0551   -0.3891 H         1 <0>         0.1302
     33 H10         0.9228   -0.9247   -2.1907 H         1 <0>         0.1344
     34 H11         0.8655    0.5856   -1.2504 H         1 <0>         0.1569
     35 H12         1.2975   -2.4405    2.0860 H         1 <0>         0.1502
     36 H13         2.0243   -2.8976    4.3657 H         1 <0>         0.1496
     37 H14         3.7223   -4.5886    4.8448 H         1 <0>         0.1558
     38 H15         4.7590   -5.8851    3.0650 H         1 <0>         0.1623
     39 H16         5.6790   -7.3052   -0.6001 H         1 <0>         0.1677
     40 H17         5.7487   -7.6901   -3.0316 H         1 <0>         0.1653
     41 H18         2.7675   -4.6896   -3.6107 H         1 <0>         0.1565
     42 H19         1.9393   -3.6432   -2.0263 H         1 <0>         0.4255
     43 H20         4.9278   -6.3202    1.0333 H         1 <0>         0.4372
     44 H21        -0.9695   -0.3754   -0.0171 H         1 <0>         0.4310
@<TRIPOS>BOND
     1    1    2 1
     2    1   24 1
     3    1   25 1
     4    1   26 1
     5    2    7 1
     6    2    3 1
     7    2   44 1
     8    3    4 1
     9    3   27 1
    10    3   28 1
    11    4    5 1
    12    4   29 1
    13    4   30 1
    14    5    6 1
    15    5    8 1
    16    6    7 1
    17    6   31 1
    18    6   32 1
    19    7   33 1
    20    7   34 1
    21    8   22 1
    22    8    9 2
    23    9   14 ar
    24    9   10 ar
    25   10   11 ar
    26   10   35 1
    27   11   12 ar
    28   11   36 1
    29   12   13 ar
    30   12   37 1
    31   13   14 ar
    32   13   38 1
    33   14   15 2
    34   15   16 1
    35   15   43 1
    36   16   21 ar
    37   16   17 ar
    38   17   18 ar
    39   17   39 1
    40   18   19 ar
    41   18   40 1
    42   19   20 ar
    43   19   23 1
    44   20   21 ar
    45   20   41 1
    46   21   22 1
    47   22   42 1
@<TRIPOS>MOLECULE
ZINC19796155
   43    46     0     0     0
SMALL
USER_CHARGES

@<TRIPOS>ATOM
      1 C1         -0.0523    1.4387   -0.3863 C.3       1 <0>        -0.0469
      2 N1         -0.0147   -0.0168   -0.1908 N.4       1 <0>        -0.3852
      3 C2          0.4863   -0.6601   -1.4120 C.3       1 <0>        -0.0213
      4 C3          0.4181   -2.1823   -1.2510 C.3       1 <0>         0.1002
      5 N2          1.1441   -2.5548   -0.0269 N.pl3     1 <0>        -0.6180
      6 C4          0.8178   -1.8405    1.2170 C.3       1 <0>         0.0860
      7 C5          0.8671   -0.3344    0.9395 C.3       1 <0>        -0.0221
      8 C6          2.1017   -3.5432   -0.0451 C.2       1 <0>         0.5019
      9 N3          2.4234   -4.0210   -1.1951 N.2       1 <0>        -0.5760
     10 C7          3.3217   -5.0050   -1.4750 C.ar      1 <0>         0.1390
     11 C8          3.0096   -5.9522   -2.4541 C.ar      1 <0>        -0.0932
     12 C9          3.9229   -6.9340   -2.7877 C.ar      1 <0>        -0.0267
     13 C10         5.1529   -6.9852   -2.1572 C.ar      1 <0>        -0.1032
     14 C11         5.4673   -6.0631   -1.1730 C.ar      1 <0>        -0.1031
     15 C12         4.5533   -5.0871   -0.8155 C.ar      1 <0>         0.1235
     16 N4          4.8505   -4.2243    0.2524 N.pl3     1 <0>        -0.7273
     17 C13         4.0239   -4.2464    1.3765 C.ar      1 <0>         0.2173
     18 C14         2.6645   -3.9489    1.2520 C.ar      1 <0>        -0.1537
     19 C15         1.8414   -4.0345    2.3754 C.ar      1 <0>        -0.0841
     20 C16         2.3802   -4.3733    3.6007 C.ar      1 <0>        -0.1334
     21 C17         3.7349   -4.6261    3.7220 C.ar      1 <0>        -0.0692
     22 C18         4.5500   -4.5705    2.6174 C.ar      1 <0>        -0.1369
     23 Cl1         3.5248   -8.1083   -4.0027 Cl        1 <0>        -0.0551
     24 H1          0.9534    1.8033   -0.5956 H         1 <0>         0.1211
     25 H2         -0.7066    1.6758   -1.2253 H         1 <0>         0.1256
     26 H3         -0.4316    1.9169    0.5167 H         1 <0>         0.1252
     27 H4         -0.1269   -0.3565   -2.2605 H         1 <0>         0.1425
     28 H5          1.5196   -0.3587   -1.5839 H         1 <0>         0.1315
     29 H6         -0.6226   -2.4957   -1.1694 H         1 <0>         0.0898
     30 H7          0.8819   -2.6629   -2.1125 H         1 <0>         0.1431
     31 H8         -0.1827   -2.1194    1.5479 H         1 <0>         0.0960
     32 H9          1.5457   -2.0950    1.9873 H         1 <0>         0.1385
     33 H10         1.8889   -0.0428    0.6965 H         1 <0>         0.1320
     34 H11         0.5345    0.2092    1.8238 H         1 <0>         0.1439
     35 H12         2.0515   -5.9169   -2.9512 H         1 <0>         0.1396
     36 H13         5.8689   -7.7454   -2.4325 H         1 <0>         0.1422
     37 H14         6.4287   -6.1057   -0.6827 H         1 <0>         0.1382
     38 H15         5.6134   -3.6267    0.2096 H         1 <0>         0.4129
     39 H16         0.7836   -3.8354    2.2868 H         1 <0>         0.1314
     40 H17         1.7411   -4.4409    4.4686 H         1 <0>         0.1357
     41 H18         4.1512   -4.8742    4.6872 H         1 <0>         0.1370
     42 H19         5.6063   -4.7705    2.7202 H         1 <0>         0.1363
     43 H20        -0.9456   -0.3526    0.0057 H         1 <0>         0.4250
@<TRIPOS>BOND
     1    1    2 1
     2    1   24 1
     3    1   25 1
     4    1   26 1
     5    2    7 1
     6    2    3 1
     7    2   43 1
     8    3    4 1
     9    3   27 1
    10    3   28 1
    11    4    5 1
    12    4   29 1
    13    4   30 1
    14    5    6 1
    15    5    8 1
    16    6    7 1
    17    6   31 1
    18    6   32 1
    19    7   33 1
    20    7   34 1
    21    8   18 1
    22    8    9 2
    23    9   10 1
    24   10   15 ar
    25   10   11 ar
    26   11   12 ar
    27   11   35 1
    28   12   13 ar
    29   12   23 1
    30   13   14 ar
    31   13   36 1
    32   14   15 ar
    33   14   37 1
    34   15   16 1
    35   16   17 1
    36   16   38 1
    37   17   22 ar
    38   17   18 ar
    39   18   19 ar
    40   19   20 ar
    41   19   39 1
    42   20   21 ar
    43   20   40 1
    44   21   22 ar
    45   21   41 1
    46   22   42 1
@<TRIPOS>MOLECULE
ZINC28643021
   56    59     0     0     0
SMALL
USER_CHARGES

@<TRIPOS>ATOM
      1 C1         -0.6100    1.1411    1.5857 C.ar      1 <0>        -0.1164
      2 C2          0.4578    2.0219    1.6366 C.ar      1 <0>        -0.0879
      3 C3          1.7171    1.6091    1.2568 C.ar      1 <0>        -0.0862
      4 C4          1.9276    0.3027    0.8193 C.ar      1 <0>        -0.1010
      5 C5          0.8527   -0.5863    0.7686 C.ar      1 <0>        -0.0571
      6 C6         -0.4190   -0.1541    1.1559 C.ar      1 <0>        -0.1113
      7 C7          1.0268   -1.9792    0.3162 C.2       1 <0>        -0.0136
      8 C8         -0.0391   -2.6467   -0.1509 C.2       1 <0>        -0.1614
      9 C9         -1.2643   -1.8918   -0.5981 C.3       1 <0>        -0.1251
     10 C10        -1.6614   -2.3503   -2.0028 C.3       1 <0>        -0.0073
     11 N1         -2.8557   -1.6144   -2.4387 N.4       1 <0>        -0.3851
     12 C11        -2.5304   -0.1882   -2.5711 C.3       1 <0>        -0.0061
     13 C12        -3.7791    0.5816   -3.0071 C.3       1 <0>         0.0242
     14 N2         -4.2561    0.0490   -4.2911 N.3       1 <0>        -0.5297
     15 C13        -4.5621   -1.3843   -4.1803 C.3       1 <0>         0.0269
     16 C14        -3.3071   -2.1379   -3.7347 C.3       1 <0>        -0.0013
     17 C15        -5.4228    0.8008   -4.7722 C.3       1 <0>         0.0536
     18 C16        -4.9658    2.1513   -5.3272 C.3       1 <0>         0.0789
     19 O1         -4.1128    1.9392   -6.4539 O.3       1 <0>        -0.5627
     20 C17         2.3328   -2.6632    0.3593 C.ar      1 <0>        -0.0574
     21 C18         2.3648   -4.0606    0.3845 C.ar      1 <0>        -0.0445
     22 C19         3.5709   -4.7257    0.4263 C.ar      1 <0>        -0.1749
     23 C20         4.7583   -4.0129    0.4441 C.ar      1 <0>        -0.0444
     24 C21         4.7413   -2.6346    0.4198 C.ar      1 <0>        -0.0881
     25 C22         3.5303   -1.9462    0.3758 C.ar      1 <0>        -0.0750
     26 S1          3.5465   -0.1886    0.3414 S.3       1 <0>         0.0768
     27 C23         3.5980   -6.2322    0.4532 C.3       1 <0>         0.5097
     28 F1          3.6394   -6.7213   -0.8568 F         1 <0>        -0.1725
     29 F2          4.7316   -6.6659    1.1490 F         1 <0>        -0.1701
     30 F3          2.4481   -6.7080    1.0925 F         1 <0>        -0.1758
     31 H1         -1.5936    1.4690    1.8879 H         1 <0>         0.1341
     32 H2          0.3031    3.0359    1.9746 H         1 <0>         0.1386
     33 H3          2.5447    2.3018    1.2982 H         1 <0>         0.1391
     34 H4         -1.2545   -0.8375    1.1184 H         1 <0>         0.1369
     35 H5         -0.0191   -3.7251   -0.2065 H         1 <0>         0.1372
     36 H6         -2.0840   -2.0873    0.0932 H         1 <0>         0.0991
     37 H7         -1.0478   -0.8236   -0.6123 H         1 <0>         0.1070
     38 H8         -0.8417   -2.1548   -2.6941 H         1 <0>         0.1337
     39 H9         -1.8778   -3.4185   -1.9886 H         1 <0>         0.1345
     40 H10        -2.1832    0.1959   -1.6120 H         1 <0>         0.1342
     41 H11        -1.7467   -0.0621   -3.3181 H         1 <0>         0.1389
     42 H12        -4.5584    0.4670   -2.2537 H         1 <0>         0.0598
     43 H13        -3.5343    1.6378   -3.1199 H         1 <0>         0.1215
     44 H14        -5.3544   -1.5313   -3.4463 H         1 <0>         0.0594
     45 H15        -4.8887   -1.7624   -5.1491 H         1 <0>         0.1245
     46 H16        -2.5193   -2.0018   -4.4758 H         1 <0>         0.1390
     47 H17        -3.5357   -3.1992   -3.6382 H         1 <0>         0.1366
     48 H18        -5.9209    0.2343   -5.5590 H         1 <0>         0.0949
     49 H19        -6.1160    0.9630   -3.9468 H         1 <0>         0.0630
     50 H20        -5.8362    2.7311   -5.6345 H         1 <0>         0.0584
     51 H21        -4.4206    2.6955   -4.5560 H         1 <0>         0.0448
     52 H22        -3.7846    2.7543   -6.8577 H         1 <0>         0.3843
     53 H23         1.4414   -4.6205    0.3715 H         1 <0>         0.1434
     54 H24         5.7010   -4.5388    0.4776 H         1 <0>         0.1515
     55 H25         5.6712   -2.0855    0.4343 H         1 <0>         0.1509
     56 H26        -3.5894   -1.7296   -1.7557 H         1 <0>         0.4193
@<TRIPOS>BOND
     1    1    6 ar
     2    1    2 ar
     3    1   31 1
     4    2    3 ar
     5    2   32 1
     6    3    4 ar
     7    3   33 1
     8    4   26 1
     9    4    5 ar
    10    5    6 ar
    11    5    7 1
    12    6   34 1
    13    7    8 2
    14    7   20 1
    15    8    9 1
    16    8   35 1
    17    9   10 1
    18    9   36 1
    19    9   37 1
    20   10   11 1
    21   10   38 1
    22   10   39 1
    23   11   16 1
    24   11   12 1
    25   11   56 1
    26   12   13 1
    27   12   40 1
    28   12   41 1
    29   13   14 1
    30   13   42 1
    31   13   43 1
    32   14   15 1
    33   14   17 1
    34   15   16 1
    35   15   44 1
    36   15   45 1
    37   16   46 1
    38   16   47 1
    39   17   18 1
    40   17   48 1
    41   17   49 1
    42   18   19 1
    43   18   50 1
    44   18   51 1
    45   19   52 1
    46   20   25 ar
    47   20   21 ar
    48   21   22 ar
    49   21   53 1
    50   22   23 ar
    51   22   27 1
    52   23   24 ar
    53   23   54 1
    54   24   25 ar
    55   24   55 1
    56   25   26 1
    57   27   28 1
    58   27   29 1
    59   27   30 1
@<TRIPOS>MOLECULE
ZINC28643021
   55    58     0     0     0
SMALL
USER_CHARGES

@<TRIPOS>ATOM
      1 C1         -0.6025    1.1442    1.5910 C.ar      1 <0>        -0.1141
      2 C2          0.4634    2.0271    1.6425 C.ar      1 <0>        -0.0991
      3 C3          1.7234    1.6177    1.2613 C.ar      1 <0>        -0.0916
      4 C4          1.9364    0.3124    0.8216 C.ar      1 <0>        -0.1086
      5 C5          0.8633   -0.5788    0.7701 C.ar      1 <0>        -0.0362
      6 C6         -0.4091   -0.1498    1.1590 C.ar      1 <0>        -0.1026
      7 C7          1.0400   -1.9706    0.3154 C.2       1 <0>        -0.0723
      8 C8         -0.0247   -2.6396   -0.1521 C.2       1 <0>        -0.1081
      9 C9         -1.2518   -1.8865   -0.5973 C.3       1 <0>        -0.1033
     10 C10        -1.6489   -2.3436   -2.0024 C.3       1 <0>         0.0595
     11 N1         -2.8451   -1.6095   -2.4364 N.3       1 <0>        -0.5386
     12 C11        -2.5523   -0.1795   -2.6070 C.3       1 <0>         0.0554
     13 C12        -3.8387    0.5607   -2.9812 C.3       1 <0>         0.0561
     14 N2         -4.3887   -0.0126   -4.2175 N.3       1 <0>        -0.5307
     15 C13        -4.6814   -1.4425   -4.0468 C.3       1 <0>         0.0586
     16 C14        -3.3951   -2.1827   -3.6727 C.3       1 <0>         0.0577
     17 C15        -5.5849    0.7215   -4.6514 C.3       1 <0>         0.0537
     18 C16        -5.1668    2.0550   -5.2743 C.3       1 <0>         0.0822
     19 O1         -4.3813    1.8096   -6.4425 O.3       1 <0>        -0.5595
     20 C17         2.3474   -2.6519    0.3566 C.ar      1 <0>        -0.0339
     21 C18         2.3824   -4.0492    0.3795 C.ar      1 <0>        -0.0515
     22 C19         3.5899   -4.7119    0.4195 C.ar      1 <0>        -0.1771
     23 C20         4.7758   -3.9966    0.4377 C.ar      1 <0>        -0.0568
     24 C21         4.7559   -2.6183    0.4155 C.ar      1 <0>        -0.0902
     25 C22         3.5434   -1.9324    0.3735 C.ar      1 <0>        -0.0778
     26 S1          3.5559   -0.1747    0.3418 S.3       1 <0>         0.0558
     27 C23         3.6202   -6.2184    0.4439 C.3       1 <0>         0.5104
     28 F1          3.6619   -6.7053   -0.8669 F         1 <0>        -0.1738
     29 F2          4.7552   -6.6508    1.1383 F         1 <0>        -0.1741
     30 F3          2.4718   -6.6976    1.0832 F         1 <0>        -0.1757
     31 H1         -1.5866    1.4695    1.8943 H         1 <0>         0.1315
     32 H2          0.3068    3.0403    1.9823 H         1 <0>         0.1327
     33 H3          2.5496    2.3120    1.3033 H         1 <0>         0.1327
     34 H4         -1.2431   -0.8349    1.1208 H         1 <0>         0.1437
     35 H5         -0.0025   -3.7178   -0.2095 H         1 <0>         0.1267
     36 H6         -2.0707   -2.0849    0.0942 H         1 <0>         0.0898
     37 H7         -1.0376   -0.8178   -0.6098 H         1 <0>         0.0894
     38 H8         -0.8301   -2.1452   -2.6940 H         1 <0>         0.0382
     39 H9         -1.8631   -3.4122   -1.9899 H         1 <0>         0.0779
     40 H10        -2.1582    0.2248   -1.6747 H         1 <0>         0.0801
     41 H11        -1.8153   -0.0513   -3.3998 H         1 <0>         0.0434
     42 H12        -4.5661    0.4552   -2.1763 H         1 <0>         0.0418
     43 H13        -3.6184    1.6168   -3.1366 H         1 <0>         0.0775
     44 H14        -5.4185   -1.5708   -3.2541 H         1 <0>         0.0419
     45 H15        -5.0756   -1.8468   -4.9792 H         1 <0>         0.0805
     46 H16        -2.6676   -2.0772   -4.4775 H         1 <0>         0.0445
     47 H17        -3.6154   -3.2389   -3.5173 H         1 <0>         0.0806
     48 H18        -6.1265    0.1298   -5.3893 H         1 <0>         0.0813
     49 H19        -6.2285    0.9080   -3.7918 H         1 <0>         0.0512
     50 H20        -6.0561    2.6232   -5.5472 H         1 <0>         0.0478
     51 H21        -4.5790    2.6240   -4.5541 H         1 <0>         0.0433
     52 H22        -4.0808    2.6123   -6.8902 H         1 <0>         0.3748
     53 H23         1.4602   -4.6111    0.3662 H         1 <0>         0.1430
     54 H24         5.7197   -4.5206    0.4697 H         1 <0>         0.1460
     55 H25         5.6847   -2.0673    0.4303 H         1 <0>         0.1460
@<TRIPOS>BOND
     1    1    6 ar
     2    1    2 ar
     3    1   31 1
     4    2    3 ar
     5    2   32 1
     6    3    4 ar
     7    3   33 1
     8    4   26 1
     9    4    5 ar
    10    5    6 ar
    11    5    7 1
    12    6   34 1
    13    7    8 2
    14    7   20 1
    15    8    9 1
    16    8   35 1
    17    9   10 1
    18    9   36 1
    19    9   37 1
    20   10   11 1
    21   10   38 1
    22   10   39 1
    23   11   16 1
    24   11   12 1
    25   12   13 1
    26   12   40 1
    27   12   41 1
    28   13   14 1
    29   13   42 1
    30   13   43 1
    31   14   15 1
    32   14   17 1
    33   15   16 1
    34   15   44 1
    35   15   45 1
    36   16   46 1
    37   16   47 1
    38   17   18 1
    39   17   48 1
    40   17   49 1
    41   18   19 1
    42   18   50 1
    43   18   51 1
    44   19   52 1
    45   20   25 ar
    46   20   21 ar
    47   21   22 ar
    48   21   53 1
    49   22   23 ar
    50   22   27 1
    51   23   24 ar
    52   23   54 1
    53   24   25 ar
    54   24   55 1
    55   25   26 1
    56   27   28 1
    57   27   29 1
    58   27   30 1
@<TRIPOS>MOLECULE
ZINC22060168
   31    33     0     0     0
SMALL
USER_CHARGES
(4aR,10bR)-3,4,4a,5,6,10b-hexahydro-2H-naphtho[8,7-b][1,4]oxazin-9-ol
@<TRIPOS>ATOM
      1 C1          1.2175   -0.6724   -0.0131 C.ar      1 <0>        -0.1405
      2 C2          2.3939    0.0459   -0.0152 C.ar      1 <0>        -0.0726
      3 C3          2.3774    1.4352   -0.0027 C.ar      1 <0>        -0.1191
      4 C4          1.1681    2.1006    0.0022 C.ar      1 <0>        -0.0572
      5 C5         -0.0167    1.3808    0.0096 C.ar      1 <0>        -0.1877
      6 C6          0.0021   -0.0041    0.0020 C.ar      1 <0>         0.1659
      7 O1         -1.1629   -0.7037    0.0098 O.3       1 <0>        -0.5033
      8 C7          1.0927    3.5995   -0.0161 C.3       1 <0>         0.1238
      9 H1          0.8501    3.9110   -1.0428 H         1 <0>         0.0958
     10 C8          2.4012    4.1982    0.5010 C.3       1 <0>         0.0099
     11 H2          2.5651    3.9886    1.5683 H         1 <0>         0.1468
     12 C9          3.5474    3.6275   -0.3327 C.3       1 <0>        -0.1352
     13 C10         3.7035    2.1487    0.0200 C.3       1 <0>        -0.0740
     14 N1          2.3358    5.6588    0.3693 N.4       1 <0>        -0.5383
     15 C11         1.2215    6.1678    1.1871 C.3       1 <0>        -0.0377
     16 C12        -0.0909    5.5200    0.7436 C.3       1 <0>         0.0314
     17 O2          0.0261    4.0922    0.7916 O.3       1 <0>        -0.3542
     18 H3          1.2420   -1.7521   -0.0229 H         1 <0>         0.1382
     19 H4          3.3389   -0.4768   -0.0270 H         1 <0>         0.1372
     20 H5         -0.9615    1.9039    0.0169 H         1 <0>         0.1339
     21 H6         -2.1248   -0.1702    0.0218 H         1 <0>         0.4411
     22 H7          3.3139    3.7387   -1.4019 H         1 <0>         0.0939
     23 H8          4.4752    4.1714   -0.1016 H         1 <0>         0.0985
     24 H9          4.1427    2.0743    1.0258 H         1 <0>         0.0891
     25 H10         4.3818    1.6852   -0.7115 H         1 <0>         0.0992
     26 H11         3.2813    6.1009    0.7165 H         1 <0>         0.4580
     27 H12         1.4040    5.9284    2.2451 H         1 <0>         0.1377
     28 H13         1.1460    7.2585    1.0658 H         1 <0>         0.1464
     29 H14        -0.9023    5.8393    1.4142 H         1 <0>         0.1435
     30 H15        -0.3230    5.8296   -0.2861 H         1 <0>         0.0819
     31 H16         2.1721    5.9249   -0.6854 H         1 <0>         0.4475
@<TRIPOS>BOND
     1    1    6 ar
     2    1    2 ar
     3    1   18 1
     4    2    3 ar
     5    2   19 1
     6    3   13 1
     7    3    4 ar
     8    4    5 ar
     9    4    8 1
    10    5    6 ar
    11    5   20 1
    12    6    7 1
    13    7   21 1
    14    8    9 1
    15    8   17 1
    16    8   10 1
    17   10   11 1
    18   10   12 1
    19   10   14 1
    20   12   13 1
    21   12   22 1
    22   12   23 1
    23   13   24 1
    24   13   25 1
    25   14   15 1
    26   14   26 1
    27   14   31 1
    28   15   16 1
    29   15   27 1
    30   15   28 1
    31   16   17 1
    32   16   29 1
    33   16   30 1
@<TRIPOS>MOLECULE
ZINC29389040
   31    33     0     0     0
SMALL
USER_CHARGES
(4aR,10bS)-3,4,4a,5,6,10b-hexahydro-2H-naphtho[1,2-b][1,4]oxazin-9-ol
@<TRIPOS>ATOM
      1 C1         -3.6940    2.7872    4.8637 C.ar      1 <0>        -0.1364
      2 C2         -3.9966    3.3618    3.6475 C.ar      1 <0>        -0.0749
      3 C3         -3.4827    2.8359    2.4684 C.ar      1 <0>        -0.1103
      4 C4         -2.6581    1.7337    2.5161 C.ar      1 <0>        -0.0560
      5 C5         -2.3541    1.1508    3.7377 C.ar      1 <0>        -0.1892
      6 C6         -2.8690    1.6731    4.9125 C.ar      1 <0>         0.1648
      7 O1         -2.5681    1.0972    6.1061 O.3       1 <0>        -0.5032
      8 C7         -2.0499    1.1238    1.2776 C.3       1 <0>         0.1286
      9 H1         -2.0396    0.0262    1.3490 H         1 <0>         0.0934
     10 C8         -2.8204    1.5723    0.0392 C.3       1 <0>         0.0061
     11 H2         -3.8180    1.1094    0.0163 H         1 <0>         0.1473
     12 C9         -2.9189    3.0997    0.0507 C.3       1 <0>        -0.1334
     13 C10        -3.8642    3.5124    1.1776 C.3       1 <0>        -0.0738
     14 N1         -2.1466    1.1179   -1.1798 N.4       1 <0>        -0.5354
     15 C11        -0.7572    1.5950   -1.2300 C.3       1 <0>        -0.0472
     16 C12        -0.0127    1.0858    0.0080 C.3       1 <0>         0.0312
     17 O2         -0.6851    1.5484    1.1811 O.3       1 <0>        -0.3510
     18 H3         -4.0975    3.2032    5.7750 H         1 <0>         0.1387
     19 H4         -4.6395    4.2288    3.6109 H         1 <0>         0.1374
     20 H5         -1.7117    0.2833    3.7729 H         1 <0>         0.1302
     21 H6         -1.9136    0.2138    6.1411 H         1 <0>         0.4407
     22 H7         -1.9208    3.5302    0.2196 H         1 <0>         0.0971
     23 H8         -3.3101    3.4492   -0.9161 H         1 <0>         0.0929
     24 H9         -4.8903    3.2264    0.9031 H         1 <0>         0.0892
     25 H10        -3.8095    4.6036    1.3054 H         1 <0>         0.0982
     26 H11        -2.1407    0.0183   -1.2073 H         1 <0>         0.4511
     27 H12        -0.2709    1.2128   -2.1397 H         1 <0>         0.1458
     28 H13        -0.7474    2.6949   -1.2435 H         1 <0>         0.1378
     29 H14         0.0029   -0.0141   -0.0001 H         1 <0>         0.0804
     30 H15         1.0190    1.4672   -0.0019 H         1 <0>         0.1418
     31 H16        -2.6816    1.5038   -2.0601 H         1 <0>         0.4576
@<TRIPOS>BOND
     1    1    6 ar
     2    1    2 ar
     3    1   18 1
     4    2    3 ar
     5    2   19 1
     6    3   13 1
     7    3    4 ar
     8    4    5 ar
     9    4    8 1
    10    5    6 ar
    11    5   20 1
    12    6    7 1
    13    7   21 1
    14    8    9 1
    15    8   17 1
    16    8   10 1
    17   10   11 1
    18   10   12 1
    19   10   14 1
    20   12   13 1
    21   12   22 1
    22   12   23 1
    23   13   24 1
    24   13   25 1
    25   14   15 1
    26   14   26 1
    27   14   31 1
    28   15   16 1
    29   15   27 1
    30   15   28 1
    31   16   17 1
    32   16   29 1
    33   16   30 1
