@<TRIPOS>MOLECULE
ZINC03581056
   42    43     0     0     0
SMALL
USER_CHARGES
6,6-dimethyl-1-[3-(2,4,5-trichlorophenoxy)propoxy]-1,3,5-triazine-2,4-diamine
@<TRIPOS>ATOM
      1 C1         -1.1779   -1.0280   -2.0127 C.3       1 <0>        -0.1338
      2 C2         -0.5170   -0.0982   -3.0323 C.3       1 <0>         0.3759
      3 N1          0.6879   -0.7363   -3.5754 N.2       1 <0>        -0.6834
      4 C3          1.7233   -0.0136   -3.9109 C.2       1 <0>         0.6203
      5 N2          1.7484    1.3186   -3.7357 N.2       1 <0>        -0.6706
      6 C4          0.8363    1.9252   -2.9941 C.2       1 <0>         0.6960
      7 N3         -0.1190    1.1560   -2.3746 N.pl3     1 <0>        -0.5269
      8 O1         -0.7038    1.5592   -1.1497 O.3       1 <0>        -0.1370
      9 C5         -0.0127    1.0858    0.0080 C.3       1 <0>         0.0283
     10 C6         -0.7288    1.5792    1.2668 C.3       1 <0>        -0.1119
     11 C7          0.0111    1.0724    2.5063 C.3       1 <0>         0.0594
     12 O2         -0.6577    1.5332    3.6820 O.3       1 <0>        -0.2899
     13 C8         -0.1248    1.1686    4.8783 C.ar      1 <0>         0.1609
     14 C9          1.0179    0.3837    4.9190 C.ar      1 <0>        -0.1822
     15 C10         1.5587    0.0142    6.1365 C.ar      1 <0>         0.0131
     16 C11         0.9601    0.4274    7.3150 C.ar      1 <0>        -0.0596
     17 C12        -0.1796    1.2103    7.2764 C.ar      1 <0>        -0.0502
     18 C13        -0.7203    1.5861    6.0606 C.ar      1 <0>        -0.0574
     19 Cl1        -2.1469    2.5741    6.0127 Cl        1 <0>        -0.0302
     20 Cl2         1.6406   -0.0382    8.8427 Cl        1 <0>        -0.0322
     21 Cl3         2.9894   -0.9677    6.1881 Cl        1 <0>        -0.0303
     22 N4          0.8450    3.2835   -2.8428 N.pl3     1 <0>        -0.8101
     23 N5          2.8244   -0.6371   -4.4622 N.pl3     1 <0>        -0.8270
     24 C14        -1.4972    0.2033   -4.1677 C.3       1 <0>        -0.1597
     25 H1         -2.0606   -0.5423   -1.5967 H         1 <0>         0.0686
     26 H2         -1.4712   -1.9559   -2.5038 H         1 <0>         0.0820
     27 H3         -0.4727   -1.2483   -1.2112 H         1 <0>         0.0574
     28 H4          0.0021   -0.0041    0.0020 H         1 <0>         0.0699
     29 H5          1.0099    1.4631    0.0003 H         1 <0>         0.0580
     30 H6         -0.7436    2.6691    1.2728 H         1 <0>         0.0891
     31 H7         -1.7514    1.2020    1.2746 H         1 <0>         0.0916
     32 H8          0.0259   -0.0175    2.5003 H         1 <0>         0.0733
     33 H9          1.0337    1.4497    2.4986 H         1 <0>         0.0719
     34 H10         1.4848    0.0610    4.0001 H         1 <0>         0.1561
     35 H11        -0.6451    1.5316    8.1964 H         1 <0>         0.1620
     36 H12         0.1718    3.7146   -2.2933 H         1 <0>         0.4178
     37 H13         1.5242    3.8165   -3.2849 H         1 <0>         0.4232
     38 H14         2.8216   -1.5979   -4.5954 H         1 <0>         0.4120
     39 H15         3.6009   -0.1144   -4.7166 H         1 <0>         0.4076
     40 H16        -1.0188    0.8575   -4.8966 H         1 <0>         0.0520
     41 H17        -1.7895   -0.7282   -4.6523 H         1 <0>         0.0802
     42 H18        -2.3816    0.6955   -3.7631 H         1 <0>         0.0659
@<TRIPOS>BOND
     1    1    2 1
     2    1   25 1
     3    1   26 1
     4    1   27 1
     5    2    7 1
     6    2    3 1
     7    2   24 1
     8    3    4 2
     9    4    5 1
    10    4   23 1
    11    5    6 2
    12    6    7 1
    13    6   22 1
    14    7    8 1
    15    8    9 1
    16    9   10 1
    17    9   28 1
    18    9   29 1
    19   10   11 1
    20   10   30 1
    21   10   31 1
    22   11   12 1
    23   11   32 1
    24   11   33 1
    25   12   13 1
    26   13   18 ar
    27   13   14 ar
    28   14   15 ar
    29   14   34 1
    30   15   16 ar
    31   15   21 1
    32   16   17 ar
    33   16   20 1
    34   17   18 ar
    35   17   35 1
    36   18   19 1
    37   22   36 1
    38   22   37 1
    39   23   38 1
    40   23   39 1
    41   24   40 1
    42   24   41 1
    43   24   42 1
@<TRIPOS>MOLECULE
ZINC04394094
   31    32     0     0     0
SMALL
USER_CHARGES

@<TRIPOS>ATOM
      1 C1          0.1376    1.3298   -1.0129 C.ar      1 <0>        -0.0042
      2 C2          1.2717    2.0530   -0.7121 C.ar      1 <0>        -0.1963
      3 C3          2.4306    1.3977   -0.3160 C.ar      1 <0>         0.2025
      4 C4          2.4511    0.0116   -0.2220 C.ar      1 <0>        -0.0758
      5 C5          1.3211   -0.7177   -0.5215 C.ar      1 <0>         0.0259
      6 C6          0.1545   -0.0624   -0.9190 C.ar      1 <0>        -0.0756
      7 C7         -1.0610   -0.8420   -1.2405 C.2       1 <0>         0.4107
      8 N1         -1.0435   -2.1402   -1.1525 N.2       1 <0>        -0.4073
      9 O1         -2.2069   -2.8864   -1.4603 O.3       1 <0>        -0.4135
     10 N2         -2.2173   -0.1902   -1.6351 N.pl3     1 <0>        -0.8668
     11 N3          3.6885   -0.6825    0.2001 N.pl3     1 <0>         0.0372
     12 O2          3.7072   -1.8885    0.2822 O.2       1 <0>        -0.1587
     13 O3          4.6805   -0.0433    0.4628 O.3       1 <0>        -0.1294
     14 O4          3.5461    2.1133   -0.0205 O.3       1 <0>        -0.2124
     15 C8          3.4799    3.4671   -0.1171 C.ar      1 <0>         0.0929
     16 C9          3.1003    4.2242    0.9818 C.ar      1 <0>        -0.1064
     17 C10         3.0335    5.6015    0.8814 C.ar      1 <0>        -0.0119
     18 C11         3.3447    6.2249   -0.3141 C.ar      1 <0>        -0.0905
     19 C12         3.7234    5.4716   -1.4112 C.ar      1 <0>        -0.0120
     20 C13         3.7971    4.0944   -1.3133 C.ar      1 <0>        -0.1064
     21 Cl1         4.1128    6.2567   -2.9098 Cl        1 <0>        -0.0350
     22 Cl2         2.5582    6.5494    2.2559 Cl        1 <0>        -0.0350
     23 H1         -0.7645    1.8402   -1.3165 H         1 <0>         0.1518
     24 H2          1.2594    3.1305   -0.7849 H         1 <0>         0.1586
     25 H3          1.3380   -1.7951   -0.4489 H         1 <0>         0.1779
     26 H4         -2.0973   -3.8425   -1.3659 H         1 <0>         0.4063
     27 H5         -2.2303    0.7775   -1.7007 H         1 <0>         0.3962
     28 H6         -3.0142   -0.7014   -1.8460 H         1 <0>         0.4144
     29 H7          2.8570    3.7380    1.9150 H         1 <0>         0.1536
     30 H8          3.2917    7.3008   -0.3910 H         1 <0>         0.1555
     31 H9          4.0970    3.5071   -2.1686 H         1 <0>         0.1537
@<TRIPOS>BOND
     1    1    6 ar
     2    1    2 ar
     3    1   23 1
     4    2    3 ar
     5    2   24 1
     6    3    4 ar
     7    3   14 1
     8    4    5 ar
     9    4   11 1
    10    5    6 ar
    11    5   25 1
    12    6    7 1
    13    7    8 2
    14    7   10 1
    15    8    9 1
    16    9   26 1
    17   10   27 1
    18   10   28 1
    19   11   12 2
    20   11   13 1
    21   14   15 1
    22   15   20 ar
    23   15   16 ar
    24   16   17 ar
    25   16   29 1
    26   17   18 ar
    27   17   22 1
    28   18   19 ar
    29   18   30 1
    30   19   20 ar
    31   19   21 1
    32   20   31 1
@<TRIPOS>MOLECULE
ZINC00380804
   31    32     0     0     0
SMALL
USER_CHARGES
5-[(4-methoxyphenyl)methyl]pyrimidine-2,4-diamine
@<TRIPOS>ATOM
      1 C1          2.5176   -2.6678   -0.0360 C.3       1 <0>         0.0270
      2 O1          1.2345   -2.0389   -0.0203 O.3       1 <0>        -0.3181
      3 C2          1.2134   -0.6801   -0.0132 C.ar      1 <0>         0.1230
      4 C3          0.0021   -0.0041    0.0020 C.ar      1 <0>        -0.1471
      5 C4         -0.0167    1.3772    0.0096 C.ar      1 <0>        -0.0728
      6 C5          1.1705    2.0859    0.0021 C.ar      1 <0>        -0.1151
      7 C6          2.3791    1.4145   -0.0132 C.ar      1 <0>        -0.0783
      8 C7          2.4032    0.0333   -0.0208 C.ar      1 <0>        -0.2041
      9 C8          1.1472    3.5927    0.0105 C.3       1 <0>        -0.0111
     10 C9          1.1530    4.0873    1.4340 C.ar      1 <0>        -0.3056
     11 C10        -0.0285    4.3984    2.0784 C.ar      1 <0>         0.2220
     12 N1          0.0104    4.8304    3.3303 N.ar      1 <0>        -0.6050
     13 C11         1.1636    4.9668    3.9682 C.ar      1 <0>         0.6009
     14 N2          2.3179    4.6789    3.3862 N.ar      1 <0>        -0.6277
     15 C12         2.3524    4.2360    2.1334 C.ar      1 <0>         0.4865
     16 N3          3.5610    3.9309    1.5288 N.pl3     1 <0>        -0.8363
     17 N4          1.1619    5.4210    5.2755 N.pl3     1 <0>        -0.8221
     18 H1          3.0613   -2.3618   -0.9298 H         1 <0>         0.0559
     19 H2          3.0787   -2.3708    0.8501 H         1 <0>         0.0550
     20 H3          2.3916   -3.7505   -0.0402 H         1 <0>         0.1011
     21 H4         -0.9255   -0.5572    0.0076 H         1 <0>         0.1313
     22 H5         -0.9595    1.9040    0.0169 H         1 <0>         0.1306
     23 H6          3.3051    1.9703   -0.0194 H         1 <0>         0.1174
     24 H7          3.3475   -0.4907   -0.0323 H         1 <0>         0.1273
     25 H8          2.0264    3.9726   -0.5098 H         1 <0>         0.0725
     26 H9          0.2468    3.9449   -0.4929 H         1 <0>         0.0861
     27 H10        -0.9738    4.2904    1.5675 H         1 <0>         0.1639
     28 H11         3.5782    3.6114    0.6131 H         1 <0>         0.4090
     29 H12         4.3899    4.0367    2.0212 H         1 <0>         0.4059
     30 H13         0.3233    5.6351    5.7135 H         1 <0>         0.4152
     31 H14         1.9994    5.5253    5.7538 H         1 <0>         0.4127
@<TRIPOS>BOND
     1    1    2 1
     2    1   18 1
     3    1   19 1
     4    1   20 1
     5    2    3 1
     6    3    8 ar
     7    3    4 ar
     8    4    5 ar
     9    4   21 1
    10    5    6 ar
    11    5   22 1
    12    6    7 ar
    13    6    9 1
    14    7    8 ar
    15    7   23 1
    16    8   24 1
    17    9   10 1
    18    9   25 1
    19    9   26 1
    20   10   15 ar
    21   10   11 ar
    22   11   12 ar
    23   11   27 1
    24   12   13 ar
    25   13   14 ar
    26   13   17 1
    27   14   15 ar
    28   15   16 1
    29   16   28 1
    30   16   29 1
    31   17   30 1
    32   17   31 1
@<TRIPOS>MOLECULE
ZINC00380804
   32    33     0     0     0
SMALL
USER_CHARGES
5-[(4-methoxyphenyl)methyl]pyrimidine-2,4-diamine
@<TRIPOS>ATOM
      1 C1          2.5176   -2.6678   -0.0360 C.3       1 <0>         0.0238
      2 O1          1.2345   -2.0389   -0.0203 O.3       1 <0>        -0.3126
      3 C2          1.2134   -0.6801   -0.0132 C.ar      1 <0>         0.1417
      4 C3          0.0021   -0.0041    0.0020 C.ar      1 <0>        -0.1458
      5 C4         -0.0167    1.3772    0.0096 C.ar      1 <0>        -0.0688
      6 C5          1.1705    2.0859    0.0021 C.ar      1 <0>        -0.1454
      7 C6          2.3791    1.4145   -0.0132 C.ar      1 <0>        -0.0755
      8 C7          2.4032    0.0333   -0.0208 C.ar      1 <0>        -0.2025
      9 C8          1.1472    3.5927    0.0105 C.3       1 <0>        -0.0225
     10 C9          1.1530    4.0873    1.4340 C.ar      1 <0>        -0.2170
     11 C10        -0.0285    4.3984    2.0784 C.ar      1 <0>         0.2029
     12 C11         1.1636    4.9668    3.9682 C.ar      1 <0>         0.6678
     13 N1          2.3179    4.6789    3.3862 N.ar      1 <0>        -0.5677
     14 C12         2.3524    4.2360    2.1334 C.ar      1 <0>         0.5387
     15 N2          3.5610    3.9309    1.5288 N.pl3     1 <0>        -0.7767
     16 N3          1.1619    5.4210    5.2755 N.pl3     1 <0>        -0.7925
     17 H1          3.0613   -2.3618   -0.9298 H         1 <0>         0.0602
     18 H2          3.0787   -2.3708    0.8501 H         1 <0>         0.0578
     19 H3          2.3916   -3.7505   -0.0402 H         1 <0>         0.1075
     20 H4         -0.9255   -0.5572    0.0076 H         1 <0>         0.1375
     21 H5         -0.9595    1.9040    0.0169 H         1 <0>         0.1323
     22 H6          3.3051    1.9703   -0.0194 H         1 <0>         0.1170
     23 H7          3.3475   -0.4907   -0.0323 H         1 <0>         0.1342
     24 H8          2.0264    3.9726   -0.5098 H         1 <0>         0.0948
     25 H9          0.2468    3.9449   -0.4929 H         1 <0>         0.1082
     26 H10        -0.9738    4.2904    1.5675 H         1 <0>         0.2050
     27 H11         3.5782    3.6114    0.6131 H         1 <0>         0.4291
     28 H12         4.3899    4.0367    2.0212 H         1 <0>         0.4285
     29 H13         0.3233    5.6351    5.7135 H         1 <0>         0.4305
     30 H14         1.9994    5.5253    5.7538 H         1 <0>         0.4424
     31 N4         -0.0532    4.8473    3.3654 N.ar      1 <0>        -0.5950
     32 H15        -0.9261    5.0637    3.8027 H         1 <0>         0.4623
@<TRIPOS>BOND
     1    1    2 1
     2    1   17 1
     3    1   18 1
     4    1   19 1
     5    2    3 1
     6    3    8 ar
     7    3    4 ar
     8    4    5 ar
     9    4   20 1
    10    5    6 ar
    11    5   21 1
    12    6    7 ar
    13    6    9 1
    14    7    8 ar
    15    7   22 1
    16    8   23 1
    17    9   10 1
    18    9   24 1
    19    9   25 1
    20   10   14 ar
    21   10   11 ar
    22   11   26 1
    23   11   31 ar
    24   12   13 ar
    25   12   16 1
    26   12   31 ar
    27   13   14 ar
    28   14   15 1
    29   15   27 1
    30   15   28 1
    31   16   29 1
    32   16   30 1
    33   31   32 1
@<TRIPOS>MOLECULE
ZINC00380804
   32    33     0     0     0
SMALL
USER_CHARGES
5-[(4-methoxyphenyl)methyl]pyrimidine-2,4-diamine
@<TRIPOS>ATOM
      1 C1          2.5176   -2.6678   -0.0360 C.3       1 <0>         0.0231
      2 O1          1.2345   -2.0389   -0.0203 O.3       1 <0>        -0.3106
      3 C2          1.2134   -0.6801   -0.0132 C.ar      1 <0>         0.1464
      4 C3          0.0021   -0.0041    0.0020 C.ar      1 <0>        -0.1437
      5 C4         -0.0167    1.3772    0.0096 C.ar      1 <0>        -0.0635
      6 C5          1.1705    2.0859    0.0021 C.ar      1 <0>        -0.1546
      7 C6          2.3791    1.4145   -0.0132 C.ar      1 <0>        -0.0785
      8 C7          2.4032    0.0333   -0.0208 C.ar      1 <0>        -0.2032
      9 C8          1.1472    3.5927    0.0105 C.3       1 <0>        -0.0201
     10 C9          1.1530    4.0873    1.4340 C.ar      1 <0>        -0.2687
     11 C10        -0.0285    4.3984    2.0784 C.ar      1 <0>         0.2549
     12 C11         1.1636    4.9668    3.9682 C.ar      1 <0>         0.5800
     13 N1          2.3179    4.6789    3.3862 N.ar      1 <0>        -0.5254
     14 C12         2.3524    4.2360    2.1334 C.ar      1 <0>         0.3614
     15 N2          3.5610    3.9309    1.5288 N.pl3     1 <0>        -0.7728
     16 N3          1.1619    5.4210    5.2755 N.pl3     1 <0>        -0.7391
     17 H1          3.0613   -2.3618   -0.9298 H         1 <0>         0.0609
     18 H2          3.0787   -2.3708    0.8501 H         1 <0>         0.0581
     19 H3          2.3916   -3.7505   -0.0402 H         1 <0>         0.1087
     20 H4         -0.9255   -0.5572    0.0076 H         1 <0>         0.1406
     21 H5         -0.9595    1.9040    0.0169 H         1 <0>         0.1370
     22 H6          3.3051    1.9703   -0.0194 H         1 <0>         0.1162
     23 H7          3.3475   -0.4907   -0.0323 H         1 <0>         0.1362
     24 H8          2.0264    3.9726   -0.5098 H         1 <0>         0.1003
     25 H9          0.2468    3.9449   -0.4929 H         1 <0>         0.1230
     26 H10        -0.9738    4.2904    1.5675 H         1 <0>         0.2198
     27 H11         3.5782    3.6114    0.6131 H         1 <0>         0.4495
     28 H12         4.3899    4.0367    2.0212 H         1 <0>         0.4464
     29 H13         0.3233    5.6351    5.7135 H         1 <0>         0.4496
     30 H14         1.9994    5.5253    5.7538 H         1 <0>         0.4367
     31 N4         -0.0532    4.8473    3.3654 N.ar      1 <0>        -0.4879
     32 H15         2.3334    4.3492    2.4422 H         1 <0>         0.4191
@<TRIPOS>BOND
     1    1    2 1
     2    1   17 1
     3    1   18 1
     4    1   19 1
     5    2    3 1
     6    3    8 ar
     7    3    4 ar
     8    4    5 ar
     9    4   20 1
    10    5    6 ar
    11    5   21 1
    12    6    7 ar
    13    6    9 1
    14    7    8 ar
    15    7   22 1
    16    8   23 1
    17    9   10 1
    18    9   24 1
    19    9   25 1
    20   10   14 ar
    21   10   11 ar
    22   11   26 1
    23   11   31 ar
    24   12   13 ar
    25   12   16 1
    26   12   31 ar
    27   13   14 ar
    28   13   32 1
    29   14   15 1
    30   15   27 1
    31   15   28 1
    32   16   29 1
    33   16   30 1
@<TRIPOS>MOLECULE
ZINC00024946
   35    36     0     0     0
SMALL
USER_CHARGES

@<TRIPOS>ATOM
      1 C1         -0.0173    1.4248    0.0099 C.3       1 <0>         0.0259
      2 O1          0.0021   -0.0041    0.0020 O.3       1 <0>        -0.3074
      3 C2         -1.2011   -0.6379    0.0101 C.ar      1 <0>         0.0952
      4 C3         -2.3743    0.0994    0.0195 C.ar      1 <0>        -0.1677
      5 C4         -3.5965   -0.5465    0.0272 C.ar      1 <0>        -0.1088
      6 C5         -3.6519   -1.9279    0.0261 C.ar      1 <0>        -0.0753
      7 C6         -2.4852   -2.6694    0.0172 C.ar      1 <0>        -0.1705
      8 C7         -1.2569   -2.0283    0.0032 C.ar      1 <0>         0.1033
      9 O2         -0.1083   -2.7563   -0.0116 O.3       1 <0>        -0.3054
     10 C8         -0.2420   -4.1790   -0.0180 C.3       1 <0>         0.0250
     11 C9         -4.9869   -2.6268    0.0350 C.3       1 <0>        -0.0118
     12 C10        -5.4423   -2.8582   -1.3828 C.ar      1 <0>        -0.3058
     13 C11        -6.2857   -1.9614   -2.0090 C.ar      1 <0>         0.2232
     14 N1         -6.6676   -2.1932   -3.2563 N.ar      1 <0>        -0.6047
     15 C12        -6.2520   -3.2700   -3.9069 C.ar      1 <0>         0.6014
     16 N2         -5.4435   -4.1541   -3.3422 N.ar      1 <0>        -0.6269
     17 C13        -5.0165   -3.9812   -2.0952 C.ar      1 <0>         0.4872
     18 N3         -4.1663   -4.9046   -1.5091 N.pl3     1 <0>        -0.8368
     19 N4         -6.6735   -3.4763   -5.2088 N.pl3     1 <0>        -0.8216
     20 H1          1.0053    1.8021    0.0021 H         1 <0>         0.1010
     21 H2         -0.5445    1.7859   -0.8732 H         1 <0>         0.0548
     22 H3         -0.5275    1.7763    0.9067 H         1 <0>         0.0555
     23 H4         -2.3338    1.1787    0.0211 H         1 <0>         0.1361
     24 H5         -4.5102    0.0294    0.0345 H         1 <0>         0.1286
     25 H6         -2.5312   -3.7485    0.0167 H         1 <0>         0.1277
     26 H7         -0.7960   -4.4879   -0.9044 H         1 <0>         0.0534
     27 H8          0.7471   -4.6369   -0.0298 H         1 <0>         0.1019
     28 H9         -0.7791   -4.4975    0.8754 H         1 <0>         0.0547
     29 H10        -4.8923   -3.5844    0.5471 H         1 <0>         0.0730
     30 H11        -5.7178   -2.0075    0.5549 H         1 <0>         0.0883
     31 H12        -6.6305   -1.0808   -1.4874 H         1 <0>         0.1641
     32 H13        -3.8623   -4.7736   -0.5974 H         1 <0>         0.4078
     33 H14        -3.8749   -5.6822   -2.0105 H         1 <0>         0.4062
     34 H15        -7.2659   -2.8366   -5.6339 H         1 <0>         0.4153
     35 H16        -6.3766   -4.2607   -5.6962 H         1 <0>         0.4129
@<TRIPOS>BOND
     1    1    2 1
     2    1   20 1
     3    1   21 1
     4    1   22 1
     5    2    3 1
     6    3    8 ar
     7    3    4 ar
     8    4    5 ar
     9    4   23 1
    10    5    6 ar
    11    5   24 1
    12    6    7 ar
    13    6   11 1
    14    7    8 ar
    15    7   25 1
    16    8    9 1
    17    9   10 1
    18   10   26 1
    19   10   27 1
    20   10   28 1
    21   11   12 1
    22   11   29 1
    23   11   30 1
    24   12   17 ar
    25   12   13 ar
    26   13   14 ar
    27   13   31 1
    28   14   15 ar
    29   15   16 ar
    30   15   19 1
    31   16   17 ar
    32   17   18 1
    33   18   32 1
    34   18   33 1
    35   19   34 1
    36   19   35 1
@<TRIPOS>MOLECULE
ZINC00024946
   36    37     0     0     0
SMALL
USER_CHARGES

@<TRIPOS>ATOM
      1 C1         -0.0173    1.4248    0.0099 C.3       1 <0>         0.0232
      2 O1          0.0021   -0.0041    0.0020 O.3       1 <0>        -0.3020
      3 C2         -1.2011   -0.6379    0.0101 C.ar      1 <0>         0.1129
      4 C3         -2.3743    0.0994    0.0195 C.ar      1 <0>        -0.1684
      5 C4         -3.5965   -0.5465    0.0272 C.ar      1 <0>        -0.1045
      6 C5         -3.6519   -1.9279    0.0261 C.ar      1 <0>        -0.1043
      7 C6         -2.4852   -2.6694    0.0172 C.ar      1 <0>        -0.1733
      8 C7         -1.2569   -2.0283    0.0032 C.ar      1 <0>         0.1098
      9 O2         -0.1083   -2.7563   -0.0116 O.3       1 <0>        -0.2995
     10 C8         -0.2420   -4.1790   -0.0180 C.3       1 <0>         0.0234
     11 C9         -4.9869   -2.6268    0.0350 C.3       1 <0>        -0.0245
     12 C10        -5.4423   -2.8582   -1.3828 C.ar      1 <0>        -0.2206
     13 C11        -6.2857   -1.9614   -2.0090 C.ar      1 <0>         0.2081
     14 N1         -6.6676   -2.1932   -3.2563 N.ar      1 <0>        -0.5695
     15 C12        -6.2523   -3.2702   -3.9067 C.ar      1 <0>         0.6614
     16 N2         -5.4439   -4.1543   -3.3420 N.ar      1 <0>        -0.5730
     17 C13        -5.0165   -3.9812   -2.0952 C.ar      1 <0>         0.5359
     18 N3         -4.1663   -4.9046   -1.5091 N.pl3     1 <0>        -0.7801
     19 N4         -6.6742   -3.4768   -5.2085 N.pl3     1 <0>        -0.7918
     20 H1          1.0053    1.8021    0.0021 H         1 <0>         0.1074
     21 H2         -0.5445    1.7859   -0.8732 H         1 <0>         0.0571
     22 H3         -0.5275    1.7763    0.9067 H         1 <0>         0.0596
     23 H4         -2.3338    1.1787    0.0211 H         1 <0>         0.1419
     24 H5         -4.5102    0.0294    0.0345 H         1 <0>         0.1303
     25 H6         -2.5312   -3.7485    0.0167 H         1 <0>         0.1263
     26 H7         -0.7791   -4.4975    0.8754 H         1 <0>         0.0577
     27 H8         -0.7960   -4.4879   -0.9044 H         1 <0>         0.0511
     28 H9          0.7471   -4.6369   -0.0298 H         1 <0>         0.1083
     29 H10        -4.8923   -3.5844    0.5471 H         1 <0>         0.0948
     30 H11        -5.7178   -2.0075    0.5549 H         1 <0>         0.1105
     31 H12        -6.6305   -1.0808   -1.4874 H         1 <0>         0.2154
     32 H13        -3.8623   -4.7736   -0.5974 H         1 <0>         0.4274
     33 H14        -3.8749   -5.6822   -2.0105 H         1 <0>         0.4283
     34 H15        -7.2666   -2.8371   -5.6336 H         1 <0>         0.4308
     35 H16        -6.3775   -4.2613   -5.6958 H         1 <0>         0.4449
     36 H17        -7.2599   -1.5657   -3.6995 H         1 <0>         0.4449
@<TRIPOS>BOND
     1    1    2 1
     2    1   20 1
     3    1   21 1
     4    1   22 1
     5    2    3 1
     6    3    8 ar
     7    3    4 ar
     8    4    5 ar
     9    4   23 1
    10    5    6 ar
    11    5   24 1
    12    6    7 ar
    13    6   11 1
    14    7    8 ar
    15    7   25 1
    16    8    9 1
    17    9   10 1
    18   10   26 1
    19   10   27 1
    20   10   28 1
    21   11   12 1
    22   11   29 1
    23   11   30 1
    24   12   17 ar
    25   12   13 ar
    26   13   14 ar
    27   13   31 1
    28   14   15 ar
    29   14   36 1
    30   15   16 ar
    31   15   19 1
    32   16   17 ar
    33   17   18 1
    34   18   32 1
    35   18   33 1
    36   19   34 1
    37   19   35 1
@<TRIPOS>MOLECULE
ZINC13282284
   27    28     0     0     0
SMALL
USER_CHARGES
5-(4-chlorophenyl)-6-methyl-pyrimidine-2,4-diamine
@<TRIPOS>ATOM
      1 C1          1.0713    3.5257    0.0103 C.3       1 <0>        -0.1085
      2 C2          1.1082    2.0192    0.0023 C.ar      1 <0>         0.2640
      3 C3          2.3263    1.3432   -0.0129 C.ar      1 <0>        -0.2891
      4 C4          2.3070   -0.0639   -0.0199 C.ar      1 <0>         0.4977
      5 N1          1.1355   -0.6894   -0.0121 N.ar      1 <0>        -0.6309
      6 C5          0.0021   -0.0041    0.0020 C.ar      1 <0>         0.6113
      7 N2         -0.0159    1.3212    0.0093 N.ar      1 <0>        -0.6050
      8 N3         -1.1982   -0.6918    0.0098 N.pl3     1 <0>        -0.8186
      9 N4          3.4886   -0.7834   -0.0341 N.pl3     1 <0>        -0.8306
     10 C6          3.6091    2.0867   -0.0207 C.ar      1 <0>        -0.0088
     11 C7          3.9659    2.8774    1.0705 C.ar      1 <0>        -0.0948
     12 C8          5.1628    3.5638    1.0601 C.ar      1 <0>        -0.1050
     13 C9          6.0042    3.4763   -0.0358 C.ar      1 <0>        -0.0371
     14 C10         5.6524    2.6963   -1.1241 C.ar      1 <0>        -0.1051
     15 C11         4.4599    2.0020   -1.1217 C.ar      1 <0>        -0.1057
     16 Cl1         7.5054    4.3482   -0.0457 Cl        1 <0>        -0.0689
     17 H1          1.0720    3.8838    1.0398 H         1 <0>         0.0866
     18 H2          1.9473    3.9134   -0.5098 H         1 <0>         0.0809
     19 H3          0.1679    3.8697   -0.4934 H         1 <0>         0.0832
     20 H4         -2.0366   -0.2041    0.0204 H         1 <0>         0.4161
     21 H5         -1.2015   -1.6618    0.0046 H         1 <0>         0.4141
     22 H6          3.4659   -1.7532   -0.0385 H         1 <0>         0.4080
     23 H7          4.3397   -0.3182   -0.0397 H         1 <0>         0.4128
     24 H8          3.3083    2.9495    1.9242 H         1 <0>         0.1320
     25 H9          5.4419    4.1737    1.9066 H         1 <0>         0.1355
     26 H10         6.3123    2.6313   -1.9766 H         1 <0>         0.1351
     27 H11         4.1860    1.3943   -1.9715 H         1 <0>         0.1308
@<TRIPOS>BOND
     1    1    2 1
     2    1   17 1
     3    1   18 1
     4    1   19 1
     5    2    7 ar
     6    2    3 ar
     7    3    4 ar
     8    3   10 1
     9    4    5 ar
    10    4    9 1
    11    5    6 ar
    12    6    7 ar
    13    6    8 1
    14    8   20 1
    15    8   21 1
    16    9   22 1
    17    9   23 1
    18   10   15 ar
    19   10   11 ar
    20   11   12 ar
    21   11   24 1
    22   12   13 ar
    23   12   25 1
    24   13   14 ar
    25   13   16 1
    26   14   15 ar
    27   14   26 1
    28   15   27 1
@<TRIPOS>MOLECULE
ZINC13282284
   28    29     0     0     0
SMALL
USER_CHARGES
5-(4-chlorophenyl)-6-methyl-pyrimidine-2,4-diamine
@<TRIPOS>ATOM
      1 C1          1.0713    3.5257    0.0103 C.3       1 <0>        -0.1314
      2 C2          1.1082    2.0192    0.0023 C.ar      1 <0>         0.2906
      3 C3          2.3263    1.3432   -0.0129 C.ar      1 <0>        -0.2352
      4 C4          2.3070   -0.0639   -0.0199 C.ar      1 <0>         0.3720
      5 N1          1.1355   -0.6894   -0.0121 N.ar      1 <0>        -0.5312
      6 C5          0.0021   -0.0041    0.0020 C.ar      1 <0>         0.5860
      7 N2         -1.1982   -0.6918    0.0098 N.pl3     1 <0>        -0.7377
      8 N3          3.4886   -0.7834   -0.0341 N.pl3     1 <0>        -0.7665
      9 C6          3.6091    2.0867   -0.0207 C.ar      1 <0>        -0.0773
     10 C7          3.9659    2.8774    1.0705 C.ar      1 <0>        -0.0693
     11 C8          5.1628    3.5638    1.0601 C.ar      1 <0>        -0.1011
     12 C9          6.0042    3.4763   -0.0358 C.ar      1 <0>        -0.0088
     13 C10         5.6524    2.6963   -1.1241 C.ar      1 <0>        -0.1011
     14 C11         4.4599    2.0020   -1.1217 C.ar      1 <0>        -0.0895
     15 Cl1         7.5054    4.3482   -0.0457 Cl        1 <0>        -0.0368
     16 H1          1.0720    3.8838    1.0398 H         1 <0>         0.1220
     17 H2          1.9473    3.9134   -0.5098 H         1 <0>         0.1083
     18 H3          0.1679    3.8697   -0.4934 H         1 <0>         0.1131
     19 H4         -2.0366   -0.2041    0.0204 H         1 <0>         0.4495
     20 H5         -1.2015   -1.6618    0.0046 H         1 <0>         0.4369
     21 H6          3.4659   -1.7532   -0.0385 H         1 <0>         0.4474
     22 H7          4.3397   -0.3182   -0.0397 H         1 <0>         0.4534
     23 H8          3.3083    2.9495    1.9242 H         1 <0>         0.1426
     24 H9          5.4419    4.1737    1.9066 H         1 <0>         0.1505
     25 H10         6.3123    2.6313   -1.9766 H         1 <0>         0.1501
     26 H11         4.1860    1.3943   -1.9715 H         1 <0>         0.1400
     27 N4         -0.0820    1.3574    0.0101 N.ar      1 <0>        -0.4950
     28 H12         2.0114   -0.2070   -0.0173 H         1 <0>         0.4184
@<TRIPOS>BOND
     1    1    2 1
     2    1   16 1
     3    1   17 1
     4    1   18 1
     5    2    3 ar
     6    2   27 ar
     7    3    4 ar
     8    3    9 1
     9    4    5 ar
    10    4    8 1
    11    5    6 ar
    12    5   28 1
    13    6    7 1
    14    6   27 ar
    15    7   19 1
    16    7   20 1
    17    8   21 1
    18    8   22 1
    19    9   14 ar
    20    9   10 ar
    21   10   11 ar
    22   10   23 1
    23   11   12 ar
    24   11   24 1
    25   12   13 ar
    26   12   15 1
    27   13   14 ar
    28   13   25 1
    29   14   26 1
@<TRIPOS>MOLECULE
ZINC13282284
   28    29     0     0     0
SMALL
USER_CHARGES
5-(4-chlorophenyl)-6-methyl-pyrimidine-2,4-diamine
@<TRIPOS>ATOM
      1 C1          1.0713    3.5257    0.0103 C.3       1 <0>        -0.1476
      2 C2          1.1082    2.0192    0.0023 C.ar      1 <0>         0.2495
      3 C3          2.3263    1.3432   -0.0129 C.ar      1 <0>        -0.1907
      4 C4          2.3070   -0.0639   -0.0199 C.ar      1 <0>         0.5433
      5 N1          1.1355   -0.6894   -0.0121 N.ar      1 <0>        -0.5691
      6 C5          0.0021   -0.0041    0.0020 C.ar      1 <0>         0.6727
      7 N2         -1.1982   -0.6918    0.0098 N.pl3     1 <0>        -0.7906
      8 N3          3.4886   -0.7834   -0.0341 N.pl3     1 <0>        -0.7709
      9 C6          3.6091    2.0867   -0.0207 C.ar      1 <0>        -0.0666
     10 C7          3.9659    2.8774    1.0705 C.ar      1 <0>        -0.0798
     11 C8          5.1628    3.5638    1.0601 C.ar      1 <0>        -0.1028
     12 C9          6.0042    3.4763   -0.0358 C.ar      1 <0>        -0.0158
     13 C10         5.6524    2.6963   -1.1241 C.ar      1 <0>        -0.1021
     14 C11         4.4599    2.0020   -1.1217 C.ar      1 <0>        -0.0915
     15 Cl1         7.5054    4.3482   -0.0457 Cl        1 <0>        -0.0433
     16 H1          1.0720    3.8838    1.0398 H         1 <0>         0.1185
     17 H2          1.9473    3.9134   -0.5098 H         1 <0>         0.1167
     18 H3          0.1679    3.8697   -0.4934 H         1 <0>         0.1015
     19 H4         -2.0366   -0.2041    0.0204 H         1 <0>         0.4306
     20 H5         -1.2015   -1.6618    0.0046 H         1 <0>         0.4433
     21 H6          3.4659   -1.7532   -0.0385 H         1 <0>         0.4295
     22 H7          4.3397   -0.3182   -0.0397 H         1 <0>         0.4327
     23 H8          3.3083    2.9495    1.9242 H         1 <0>         0.1378
     24 H9          5.4419    4.1737    1.9066 H         1 <0>         0.1461
     25 H10         6.3123    2.6313   -1.9766 H         1 <0>         0.1463
     26 H11         4.1860    1.3943   -1.9715 H         1 <0>         0.1376
     27 N4         -0.0820    1.3574    0.0101 N.ar      1 <0>        -0.5951
     28 H12        -0.9398    1.8713    0.0211 H         1 <0>         0.4600
@<TRIPOS>BOND
     1    1    2 1
     2    1   16 1
     3    1   17 1
     4    1   18 1
     5    2    3 ar
     6    2   27 ar
     7    3    4 ar
     8    3    9 1
     9    4    5 ar
    10    4    8 1
    11    5    6 ar
    12    6    7 1
    13    6   27 ar
    14    7   19 1
    15    7   20 1
    16    8   21 1
    17    8   22 1
    18    9   14 ar
    19    9   10 ar
    20   10   11 ar
    21   10   23 1
    22   11   12 ar
    23   11   24 1
    24   12   13 ar
    25   12   15 1
    26   13   14 ar
    27   13   25 1
    28   14   26 1
    29   27   28 1
@<TRIPOS>MOLECULE
ZINC13284968
   27    28     0     0     0
SMALL
USER_CHARGES
6-methyl-5-phenyl-pyrimidine-2,4-diamine
@<TRIPOS>ATOM
      1 C1         -3.0624    2.9501   -2.2366 C.3       1 <0>        -0.1067
      2 C2         -3.4074    3.7861   -1.0311 C.ar      1 <0>         0.2602
      3 C3         -2.5265    3.8701    0.0450 C.ar      1 <0>        -0.2840
      4 C4         -2.8975    4.6596    1.1493 C.ar      1 <0>         0.4951
      5 N1         -4.0608    5.2996    1.1183 N.ar      1 <0>        -0.6316
      6 C5         -4.8665    5.1895    0.0728 C.ar      1 <0>         0.6091
      7 N2         -4.5507    4.4502   -0.9811 N.ar      1 <0>        -0.6058
      8 N3         -6.0729    5.8663    0.0807 N.pl3     1 <0>        -0.8197
      9 N4         -2.0617    4.7722    2.2459 N.pl3     1 <0>        -0.8307
     10 C6         -1.2350    3.1420    0.0298 C.ar      1 <0>        -0.0157
     11 C7         -1.2177    1.7482    0.0173 C.ar      1 <0>        -0.1071
     12 C8         -0.0126    1.0758    0.0080 C.ar      1 <0>        -0.1155
     13 C9          1.1766    1.7824    0.0004 C.ar      1 <0>        -0.1212
     14 C10         1.1656    3.1656    0.0075 C.ar      1 <0>        -0.1157
     15 C11        -0.0335    3.8487    0.0221 C.ar      1 <0>        -0.1177
     16 H1         -3.4324    1.9350   -2.0927 H         1 <0>         0.0854
     17 H2         -3.5249    3.3831   -3.1235 H         1 <0>         0.0818
     18 H3         -1.9802    2.9276   -2.3654 H         1 <0>         0.0809
     19 H4         -6.6736    5.7959   -0.6776 H         1 <0>         0.4156
     20 H5         -6.3182    6.4114    0.8447 H         1 <0>         0.4136
     21 H6         -1.2118    4.3048    2.2580 H         1 <0>         0.4131
     22 H7         -2.3255    5.3186    3.0027 H         1 <0>         0.4070
     23 H8         -2.1456    1.1956    0.0191 H         1 <0>         0.1210
     24 H9          0.0021   -0.0041    0.0020 H         1 <0>         0.1235
     25 H10         2.1174    1.2520   -0.0107 H         1 <0>         0.1220
     26 H11         2.0971    3.7121    0.0012 H         1 <0>         0.1231
     27 H12        -0.0409    4.9286    0.0280 H         1 <0>         0.1199
@<TRIPOS>BOND
     1    1    2 1
     2    1   16 1
     3    1   17 1
     4    1   18 1
     5    2    7 ar
     6    2    3 ar
     7    3    4 ar
     8    3   10 1
     9    4    5 ar
    10    4    9 1
    11    5    6 ar
    12    6    7 ar
    13    6    8 1
    14    8   19 1
    15    8   20 1
    16    9   21 1
    17    9   22 1
    18   10   15 ar
    19   10   11 ar
    20   11   12 ar
    21   11   23 1
    22   12   13 ar
    23   12   24 1
    24   13   14 ar
    25   13   25 1
    26   14   15 ar
    27   14   26 1
    28   15   27 1
@<TRIPOS>MOLECULE
ZINC13284968
   28    29     0     0     0
SMALL
USER_CHARGES
6-methyl-5-phenyl-pyrimidine-2,4-diamine
@<TRIPOS>ATOM
      1 C1         -3.0624    2.9501   -2.2366 C.3       1 <0>        -0.1299
      2 C2         -3.4074    3.7861   -1.0311 C.ar      1 <0>         0.2886
      3 C3         -2.5265    3.8701    0.0450 C.ar      1 <0>        -0.2302
      4 C4         -2.8975    4.6596    1.1493 C.ar      1 <0>         0.3676
      5 N1         -4.0608    5.2996    1.1183 N.ar      1 <0>        -0.5326
      6 C5         -4.8665    5.1895    0.0728 C.ar      1 <0>         0.5851
      7 N2         -6.0729    5.8663    0.0807 N.pl3     1 <0>        -0.7392
      8 N3         -2.0617    4.7722    2.2459 N.pl3     1 <0>        -0.7672
      9 C6         -1.2350    3.1420    0.0298 C.ar      1 <0>        -0.0814
     10 C7         -1.2177    1.7482    0.0173 C.ar      1 <0>        -0.0831
     11 C8         -0.0126    1.0758    0.0080 C.ar      1 <0>        -0.1086
     12 C9          1.1766    1.7824    0.0004 C.ar      1 <0>        -0.0845
     13 C10         1.1656    3.1656    0.0075 C.ar      1 <0>        -0.1086
     14 C11        -0.0335    3.8487    0.0221 C.ar      1 <0>        -0.1031
     15 H1         -3.4324    1.9350   -2.0927 H         1 <0>         0.1210
     16 H2         -3.5249    3.3831   -3.1235 H         1 <0>         0.1118
     17 H3         -1.9802    2.9276   -2.3654 H         1 <0>         0.1084
     18 H4         -6.6736    5.7959   -0.6776 H         1 <0>         0.4491
     19 H5         -6.3182    6.4114    0.8447 H         1 <0>         0.4365
     20 H6         -1.2118    4.3048    2.2580 H         1 <0>         0.4535
     21 H7         -2.3255    5.3186    3.0027 H         1 <0>         0.4464
     22 H8         -2.1456    1.1956    0.0191 H         1 <0>         0.1320
     23 H9          0.0021   -0.0041    0.0020 H         1 <0>         0.1392
     24 H10         2.1174    1.2520   -0.0107 H         1 <0>         0.1375
     25 H11         2.0971    3.7121    0.0012 H         1 <0>         0.1387
     26 H12        -0.0409    4.9286    0.0280 H         1 <0>         0.1294
     27 N4         -4.5986    4.4459   -1.0391 N.ar      1 <0>        -0.4960
     28 H13        -3.1850    4.8171    1.1276 H         1 <0>         0.4193
@<TRIPOS>BOND
     1    1    2 1
     2    1   15 1
     3    1   16 1
     4    1   17 1
     5    2    3 ar
     6    2   27 ar
     7    3    4 ar
     8    3    9 1
     9    4    5 ar
    10    4    8 1
    11    5    6 ar
    12    5   28 1
    13    6    7 1
    14    6   27 ar
    15    7   18 1
    16    7   19 1
    17    8   20 1
    18    8   21 1
    19    9   14 ar
    20    9   10 ar
    21   10   11 ar
    22   10   22 1
    23   11   12 ar
    24   11   23 1
    25   12   13 ar
    26   12   24 1
    27   13   14 ar
    28   13   25 1
    29   14   26 1
@<TRIPOS>MOLECULE
ZINC13472727
   24    25     0     0     0
SMALL
USER_CHARGES
5-(3-chlorophenyl)pyrimidine-2,4-diamine
@<TRIPOS>ATOM
      1 C1          2.3826    1.4196   -0.0130 C.ar      1 <0>        -0.0970
      2 C2          2.4129    0.0397   -0.0207 C.ar      1 <0>        -0.1258
      3 C3          1.2202   -0.6815   -0.0132 C.ar      1 <0>         0.0020
      4 C4          0.0021   -0.0041    0.0020 C.ar      1 <0>        -0.1051
      5 C5         -0.0167    1.3768    0.0096 C.ar      1 <0>        -0.0259
      6 C6          1.1717    2.0875    0.0021 C.ar      1 <0>        -0.1158
      7 Cl1        -1.5324    2.2229    0.0214 Cl        1 <0>        -0.0660
      8 C7          1.2471   -2.1640   -0.0210 C.ar      1 <0>        -0.2863
      9 C8          0.5050   -2.8974    0.9024 C.ar      1 <0>         0.2385
     10 N1          0.5511   -4.2191    0.8616 N.ar      1 <0>        -0.6033
     11 C9          1.2966   -4.8500   -0.0345 C.ar      1 <0>         0.6082
     12 N2          2.0224   -4.1950   -0.9283 N.ar      1 <0>        -0.6272
     13 C10         2.0274   -2.8673   -0.9574 C.ar      1 <0>         0.4976
     14 N3          2.7865   -2.1871   -1.8927 N.pl3     1 <0>        -0.8315
     15 N4          1.3177   -6.2331   -0.0361 N.pl3     1 <0>        -0.8174
     16 H1          3.3064    1.9790   -0.0192 H         1 <0>         0.1352
     17 H2          3.3594   -0.4804   -0.0329 H         1 <0>         0.1291
     18 H3         -0.9251   -0.5579    0.0075 H         1 <0>         0.1350
     19 H4          1.1529    3.1673    0.0077 H         1 <0>         0.1346
     20 H5         -0.1029   -2.3936    1.6394 H         1 <0>         0.1681
     21 H6          2.7838   -1.2172   -1.9068 H         1 <0>         0.4135
     22 H7          3.3214   -2.6800   -2.5344 H         1 <0>         0.4081
     23 H8          1.8586   -6.7092   -0.6855 H         1 <0>         0.4144
     24 H9          0.7915   -6.7270    0.6121 H         1 <0>         0.4168
@<TRIPOS>BOND
     1    1    6 ar
     2    1    2 ar
     3    1   16 1
     4    2    3 ar
     5    2   17 1
     6    3    4 ar
     7    3    8 1
     8    4    5 ar
     9    4   18 1
    10    5    6 ar
    11    5    7 1
    12    6   19 1
    13    8   13 ar
    14    8    9 ar
    15    9   10 ar
    16    9   20 1
    17   10   11 ar
    18   11   12 ar
    19   11   15 1
    20   12   13 ar
    21   13   14 1
    22   14   21 1
    23   14   22 1
    24   15   23 1
    25   15   24 1
@<TRIPOS>MOLECULE
ZINC13472727
   25    26     0     0     0
SMALL
USER_CHARGES
5-(3-chlorophenyl)pyrimidine-2,4-diamine
@<TRIPOS>ATOM
      1 C1          2.3826    1.4196   -0.0130 C.ar      1 <0>        -0.0904
      2 C2          2.4129    0.0397   -0.0207 C.ar      1 <0>        -0.1137
      3 C3          1.2202   -0.6815   -0.0132 C.ar      1 <0>        -0.0516
      4 C4          0.0021   -0.0041    0.0020 C.ar      1 <0>        -0.0905
      5 C5         -0.0167    1.3768    0.0096 C.ar      1 <0>        -0.0278
      6 C6          1.1717    2.0875    0.0021 C.ar      1 <0>        -0.0876
      7 Cl1        -1.5324    2.2229    0.0214 Cl        1 <0>        -0.0435
      8 C7          1.2471   -2.1640   -0.0210 C.ar      1 <0>        -0.1792
      9 C8          0.5050   -2.8974    0.9024 C.ar      1 <0>         0.2132
     10 C9          1.2966   -4.8500   -0.0345 C.ar      1 <0>         0.6695
     11 N1          2.0224   -4.1950   -0.9283 N.ar      1 <0>        -0.5655
     12 C10         2.0274   -2.8673   -0.9574 C.ar      1 <0>         0.5427
     13 N2          2.7865   -2.1871   -1.8927 N.pl3     1 <0>        -0.7710
     14 N3          1.3177   -6.2331   -0.0361 N.pl3     1 <0>        -0.7891
     15 H1          3.3064    1.9790   -0.0192 H         1 <0>         0.1470
     16 H2          3.3594   -0.4804   -0.0329 H         1 <0>         0.1351
     17 H3         -0.9251   -0.5579    0.0075 H         1 <0>         0.1406
     18 H4          1.1529    3.1673    0.0077 H         1 <0>         0.1462
     19 H5         -0.1029   -2.3936    1.6394 H         1 <0>         0.2070
     20 H6          2.7838   -1.2172   -1.9068 H         1 <0>         0.4329
     21 H7          3.3214   -2.6800   -2.5344 H         1 <0>         0.4299
     22 H8          1.8586   -6.7092   -0.6855 H         1 <0>         0.4435
     23 H9          0.7915   -6.7270    0.6121 H         1 <0>         0.4314
     24 N4          0.5107   -4.2591    0.9110 N.ar      1 <0>        -0.5933
     25 H10        -0.0385   -4.7572    1.5821 H         1 <0>         0.4643
@<TRIPOS>BOND
     1    1    6 ar
     2    1    2 ar
     3    1   15 1
     4    2    3 ar
     5    2   16 1
     6    3    4 ar
     7    3    8 1
     8    4    5 ar
     9    4   17 1
    10    5    6 ar
    11    5    7 1
    12    6   18 1
    13    8   12 ar
    14    8    9 ar
    15    9   19 1
    16    9   24 ar
    17   10   11 ar
    18   10   14 1
    19   10   24 ar
    20   11   12 ar
    21   12   13 1
    22   13   20 1
    23   13   21 1
    24   14   22 1
    25   14   23 1
    26   24   25 1
@<TRIPOS>MOLECULE
ZINC13472727
   25    26     0     0     0
SMALL
USER_CHARGES
5-(3-chlorophenyl)pyrimidine-2,4-diamine
@<TRIPOS>ATOM
      1 C1          2.3826    1.4196   -0.0130 C.ar      1 <0>        -0.0886
      2 C2          2.4129    0.0397   -0.0207 C.ar      1 <0>        -0.1147
      3 C3          1.2202   -0.6815   -0.0132 C.ar      1 <0>        -0.0590
      4 C4          0.0021   -0.0041    0.0020 C.ar      1 <0>        -0.0797
      5 C5         -0.0167    1.3768    0.0096 C.ar      1 <0>        -0.0272
      6 C6          1.1717    2.0875    0.0021 C.ar      1 <0>        -0.0788
      7 Cl1        -1.5324    2.2229    0.0214 Cl        1 <0>        -0.0362
      8 C7          1.2471   -2.1640   -0.0210 C.ar      1 <0>        -0.2296
      9 C8          0.5050   -2.8974    0.9024 C.ar      1 <0>         0.2625
     10 C9          1.2966   -4.8500   -0.0345 C.ar      1 <0>         0.5814
     11 N1          2.0224   -4.1950   -0.9283 N.ar      1 <0>        -0.5240
     12 C10         2.0274   -2.8673   -0.9574 C.ar      1 <0>         0.3692
     13 N2          2.7865   -2.1871   -1.8927 N.pl3     1 <0>        -0.7664
     14 N3          1.3177   -6.2331   -0.0361 N.pl3     1 <0>        -0.7351
     15 H1          3.3064    1.9790   -0.0192 H         1 <0>         0.1508
     16 H2          3.3594   -0.4804   -0.0329 H         1 <0>         0.1368
     17 H3         -0.9251   -0.5579    0.0075 H         1 <0>         0.1461
     18 H4          1.1529    3.1673    0.0077 H         1 <0>         0.1498
     19 H5         -0.1029   -2.3936    1.6394 H         1 <0>         0.2208
     20 H6          2.7838   -1.2172   -1.9068 H         1 <0>         0.4532
     21 H7          3.3214   -2.6800   -2.5344 H         1 <0>         0.4476
     22 H8          1.8586   -6.7092   -0.6855 H         1 <0>         0.4376
     23 H9          0.7915   -6.7270    0.6121 H         1 <0>         0.4506
     24 N4          0.5107   -4.2591    0.9110 N.ar      1 <0>        -0.4858
     25 H10         2.0158   -3.1951   -0.9419 H         1 <0>         0.4187
@<TRIPOS>BOND
     1    1    6 ar
     2    1    2 ar
     3    1   15 1
     4    2    3 ar
     5    2   16 1
     6    3    4 ar
     7    3    8 1
     8    4    5 ar
     9    4   17 1
    10    5    6 ar
    11    5    7 1
    12    6   18 1
    13    8   12 ar
    14    8    9 ar
    15    9   19 1
    16    9   24 ar
    17   10   11 ar
    18   10   14 1
    19   10   24 ar
    20   11   12 ar
    21   11   25 1
    22   12   13 1
    23   13   20 1
    24   13   21 1
    25   14   22 1
    26   14   23 1
@<TRIPOS>MOLECULE
ZINC00040057
   24    25     0     0     0
SMALL
USER_CHARGES
5-phenylpyrimidine-2,4-diamine
@<TRIPOS>ATOM
      1 C1         -2.4832   -3.3181   -0.0042 C.ar      1 <0>        -0.1243
      2 C2         -3.2419   -2.6253    0.9220 C.ar      1 <0>        -0.1114
      3 C3         -3.2300   -1.2454    0.9342 C.ar      1 <0>        -0.1126
      4 C4         -2.4514   -0.5497    0.0107 C.ar      1 <0>        -0.0140
      5 C5         -1.6934   -1.2530   -0.9241 C.ar      1 <0>        -0.1289
      6 C6         -1.7087   -2.6330   -0.9231 C.ar      1 <0>        -0.1120
      7 C7         -2.4344    0.9329    0.0187 C.ar      1 <0>        -0.2815
      8 C8         -3.6219    1.6616    0.0287 C.ar      1 <0>         0.2341
      9 N1         -3.5664    2.9835    0.0361 N.ar      1 <0>        -0.6045
     10 C9         -2.4033    3.6192    0.0340 C.ar      1 <0>         0.6056
     11 N2         -1.2494    2.9688    0.0297 N.ar      1 <0>        -0.6279
     12 C10        -1.2184    1.6412    0.0167 C.ar      1 <0>         0.4942
     13 N3         -0.0111    0.9658    0.0074 N.pl3     1 <0>        -0.8319
     14 N4         -2.3943    5.0024    0.0420 N.pl3     1 <0>        -0.8188
     15 H1         -2.4953   -4.3980   -0.0098 H         1 <0>         0.1226
     16 H2         -3.8450   -3.1654    1.6369 H         1 <0>         0.1243
     17 H3         -3.8225   -0.7056    1.6580 H         1 <0>         0.1235
     18 H4         -1.0918   -0.7191   -1.6448 H         1 <0>         0.1215
     19 H5         -1.1183   -3.1791   -1.6440 H         1 <0>         0.1239
     20 H6         -4.5752    1.1540    0.0309 H         1 <0>         0.1671
     21 H7          0.0021   -0.0041    0.0020 H         1 <0>         0.4139
     22 H8          0.8223    1.4622    0.0021 H         1 <0>         0.4070
     23 H9         -3.2311    5.4929    0.0490 H         1 <0>         0.4162
     24 H10        -1.5511    5.4819    0.0406 H         1 <0>         0.4138
@<TRIPOS>BOND
     1    1    6 ar
     2    1    2 ar
     3    1   15 1
     4    2    3 ar
     5    2   16 1
     6    3    4 ar
     7    3   17 1
     8    4    5 ar
     9    4    7 1
    10    5    6 ar
    11    5   18 1
    12    6   19 1
    13    7   12 ar
    14    7    8 ar
    15    8    9 ar
    16    8   20 1
    17    9   10 ar
    18   10   11 ar
    19   10   14 1
    20   11   12 ar
    21   12   13 1
    22   13   21 1
    23   13   22 1
    24   14   23 1
    25   14   24 1
@<TRIPOS>MOLECULE
ZINC00040057
   25    26     0     0     0
SMALL
USER_CHARGES
5-phenylpyrimidine-2,4-diamine
@<TRIPOS>ATOM
      1 C1         -2.4832   -3.3181   -0.0042 C.ar      1 <0>        -0.0945
      2 C2         -3.2419   -2.6253    0.9220 C.ar      1 <0>        -0.1072
      3 C3         -3.2300   -1.2454    0.9342 C.ar      1 <0>        -0.0959
      4 C4         -2.4514   -0.5497    0.0107 C.ar      1 <0>        -0.0680
      5 C5         -1.6934   -1.2530   -0.9241 C.ar      1 <0>        -0.1163
      6 C6         -1.7087   -2.6330   -0.9231 C.ar      1 <0>        -0.1060
      7 C7         -2.4344    0.9329    0.0187 C.ar      1 <0>        -0.1744
      8 C8         -3.6219    1.6616    0.0287 C.ar      1 <0>         0.2071
      9 C9         -2.4033    3.6192    0.0340 C.ar      1 <0>         0.6684
     10 N1         -1.2494    2.9688    0.0297 N.ar      1 <0>        -0.5669
     11 C10        -1.2184    1.6412    0.0167 C.ar      1 <0>         0.5404
     12 N2         -0.0111    0.9658    0.0074 N.pl3     1 <0>        -0.7713
     13 N3         -2.3943    5.0024    0.0420 N.pl3     1 <0>        -0.7907
     14 H1         -2.4953   -4.3980   -0.0098 H         1 <0>         0.1349
     15 H2         -3.8450   -3.1654    1.6369 H         1 <0>         0.1358
     16 H3         -3.8225   -0.7056    1.6580 H         1 <0>         0.1294
     17 H4         -1.0918   -0.7191   -1.6448 H         1 <0>         0.1275
     18 H5         -1.1183   -3.1791   -1.6440 H         1 <0>         0.1362
     19 H6         -4.5752    1.1540    0.0309 H         1 <0>         0.2058
     20 H7          0.0021   -0.0041    0.0020 H         1 <0>         0.4333
     21 H8          0.8223    1.4622    0.0021 H         1 <0>         0.4289
     22 H9         -3.2311    5.4929    0.0490 H         1 <0>         0.4309
     23 H10        -1.5511    5.4819    0.0406 H         1 <0>         0.4429
     24 N4         -3.6304    3.0233    0.0367 N.ar      1 <0>        -0.5937
     25 H11        -4.4996    3.5178    0.0439 H         1 <0>         0.4633
@<TRIPOS>BOND
     1    1    6 ar
     2    1    2 ar
     3    1   14 1
     4    2    3 ar
     5    2   15 1
     6    3    4 ar
     7    3   16 1
     8    4    5 ar
     9    4    7 1
    10    5    6 ar
    11    5   17 1
    12    6   18 1
    13    7   11 ar
    14    7    8 ar
    15    8   19 1
    16    8   24 ar
    17    9   10 ar
    18    9   13 1
    19    9   24 ar
    20   10   11 ar
    21   11   12 1
    22   12   20 1
    23   12   21 1
    24   13   22 1
    25   13   23 1
    26   24   25 1
@<TRIPOS>MOLECULE
ZINC00040057
   25    26     0     0     0
SMALL
USER_CHARGES
5-phenylpyrimidine-2,4-diamine
@<TRIPOS>ATOM
      1 C1         -2.4832   -3.3181   -0.0042 C.ar      1 <0>        -0.0849
      2 C2         -3.2419   -2.6253    0.9220 C.ar      1 <0>        -0.1049
      3 C3         -3.2300   -1.2454    0.9342 C.ar      1 <0>        -0.0840
      4 C4         -2.4514   -0.5497    0.0107 C.ar      1 <0>        -0.0761
      5 C5         -1.6934   -1.2530   -0.9241 C.ar      1 <0>        -0.1165
      6 C6         -1.7087   -2.6330   -0.9231 C.ar      1 <0>        -0.1047
      7 C7         -2.4344    0.9329    0.0187 C.ar      1 <0>        -0.2235
      8 C8         -3.6219    1.6616    0.0287 C.ar      1 <0>         0.2599
      9 C9         -2.4033    3.6192    0.0340 C.ar      1 <0>         0.5802
     10 N1         -1.2494    2.9688    0.0297 N.ar      1 <0>        -0.5258
     11 C10        -1.2184    1.6412    0.0167 C.ar      1 <0>         0.3627
     12 N2         -0.0111    0.9658    0.0074 N.pl3     1 <0>        -0.7678
     13 N3         -2.3943    5.0024    0.0420 N.pl3     1 <0>        -0.7372
     14 H1         -2.4953   -4.3980   -0.0098 H         1 <0>         0.1387
     15 H2         -3.8450   -3.1654    1.6369 H         1 <0>         0.1406
     16 H3         -3.8225   -0.7056    1.6580 H         1 <0>         0.1352
     17 H4         -1.0918   -0.7191   -1.6448 H         1 <0>         0.1294
     18 H5         -1.1183   -3.1791   -1.6440 H         1 <0>         0.1400
     19 H6         -4.5752    1.1540    0.0309 H         1 <0>         0.2199
     20 H7          0.0021   -0.0041    0.0020 H         1 <0>         0.4533
     21 H8          0.8223    1.4622    0.0021 H         1 <0>         0.4465
     22 H9         -3.2311    5.4929    0.0490 H         1 <0>         0.4499
     23 H10        -1.5511    5.4819    0.0406 H         1 <0>         0.4371
     24 N4         -3.6304    3.0233    0.0367 N.ar      1 <0>        -0.4872
     25 H11        -1.2391    1.9689    0.0315 H         1 <0>         0.4195
@<TRIPOS>BOND
     1    1    6 ar
     2    1    2 ar
     3    1   14 1
     4    2    3 ar
     5    2   15 1
     6    3    4 ar
     7    3   16 1
     8    4    5 ar
     9    4    7 1
    10    5    6 ar
    11    5   17 1
    12    6   18 1
    13    7   11 ar
    14    7    8 ar
    15    8   19 1
    16    8   24 ar
    17    9   10 ar
    18    9   13 1
    19    9   24 ar
    20   10   11 ar
    21   10   25 1
    22   11   12 1
    23   12   20 1
    24   12   21 1
    25   13   22 1
    26   13   23 1
@<TRIPOS>MOLECULE
ZINC00001409
   30    31     0     0     0
SMALL
USER_CHARGES
5-(3,4-dichlorophenyl)-6-ethyl-pyrimidine-2,4-diamine
@<TRIPOS>ATOM
      1 C1         -0.7470    2.5297    2.8925 C.3       1 <0>        -0.1425
      2 C2         -0.8137    1.7453    1.5805 C.3       1 <0>        -0.0809
      3 C3         -2.1402    1.0364    1.4859 C.ar      1 <0>         0.2725
      4 C4         -2.2971   -0.2412    2.0188 C.ar      1 <0>        -0.2915
      5 C5         -3.5556   -0.8604    1.9047 C.ar      1 <0>         0.5002
      6 N1         -4.5393   -0.2070    1.2971 N.ar      1 <0>        -0.6298
      7 C6         -4.3432    1.0073    0.8055 C.ar      1 <0>         0.6129
      8 N2         -3.1725    1.6215    0.9005 N.ar      1 <0>        -0.6018
      9 N3         -5.3929    1.6559    0.1799 N.pl3     1 <0>        -0.8176
     10 N4         -3.7647   -2.1284    2.4172 N.pl3     1 <0>        -0.8299
     11 C7         -1.1680   -0.9302    2.6889 C.ar      1 <0>         0.0070
     12 C8         -0.0675   -1.3546    1.9456 C.ar      1 <0>        -0.0937
     13 C9          0.9833   -1.9906    2.5742 C.ar      1 <0>        -0.0924
     14 C10         0.9418   -2.2177    3.9392 C.ar      1 <0>        -0.0344
     15 C11        -0.1515   -1.8029    4.6820 C.ar      1 <0>        -0.0260
     16 C12        -1.2060   -1.1607    4.0628 C.ar      1 <0>        -0.0976
     17 Cl1        -0.1966   -2.0911    6.3933 Cl        1 <0>        -0.0451
     18 Cl2         2.2638   -3.0254    4.7225 Cl        1 <0>        -0.0463
     19 H1         -1.5667    3.2472    2.9289 H         1 <0>         0.0600
     20 H2          0.2033    3.0605    2.9506 H         1 <0>         0.0666
     21 H3         -0.8301    1.8402    3.7326 H         1 <0>         0.0561
     22 H4         -0.7081    2.4322    0.7408 H         1 <0>         0.0889
     23 H5         -0.0073    1.0124    1.5540 H         1 <0>         0.0863
     24 H6         -6.2569    1.2211    0.1063 H         1 <0>         0.4146
     25 H7         -5.2649    2.5454   -0.1852 H         1 <0>         0.4165
     26 H8         -3.0406   -2.5981    2.8597 H         1 <0>         0.4124
     27 H9         -4.6355   -2.5476    2.3340 H         1 <0>         0.4091
     28 H10        -0.0358   -1.1824    0.8799 H         1 <0>         0.1396
     29 H11         1.8379   -2.3159    1.9995 H         1 <0>         0.1456
     30 H12        -2.0581   -0.8375    4.6422 H         1 <0>         0.1411
@<TRIPOS>BOND
     1    1    2 1
     2    1   19 1
     3    1   20 1
     4    1   21 1
     5    2    3 1
     6    2   22 1
     7    2   23 1
     8    3    8 ar
     9    3    4 ar
    10    4    5 ar
    11    4   11 1
    12    5    6 ar
    13    5   10 1
    14    6    7 ar
    15    7    8 ar
    16    7    9 1
    17    9   24 1
    18    9   25 1
    19   10   26 1
    20   10   27 1
    21   11   16 ar
    22   11   12 ar
    23   12   13 ar
    24   12   28 1
    25   13   14 ar
    26   13   29 1
    27   14   15 ar
    28   14   18 1
    29   15   16 ar
    30   15   17 1
    31   16   30 1
@<TRIPOS>MOLECULE
ZINC06627681
   39    40     0     0     0
SMALL
USER_CHARGES

@<TRIPOS>ATOM
      1 C1         -0.0173    1.4248    0.0099 C.3       1 <0>         0.0239
      2 O1          0.0021   -0.0041    0.0020 O.3       1 <0>        -0.3021
      3 C2         -1.2011   -0.6379    0.0101 C.ar      1 <0>         0.1549
      4 C3         -2.3748    0.1005    0.0195 C.ar      1 <0>        -0.2271
      5 C4         -3.5982   -0.5428    0.0277 C.ar      1 <0>        -0.0020
      6 C5         -3.6572   -1.9238    0.0266 C.ar      1 <0>        -0.2327
      7 C6         -2.4882   -2.6696    0.0172 C.ar      1 <0>         0.1543
      8 C7         -1.2561   -2.0266    0.0032 C.ar      1 <0>         0.0227
      9 O2         -0.1065   -2.7549   -0.0117 O.3       1 <0>        -0.3126
     10 C8          0.4536   -3.1089    1.2544 C.3       1 <0>         0.0351
     11 O3         -2.5472   -4.0282    0.0166 O.3       1 <0>        -0.3013
     12 C9         -3.8474   -4.6211    0.0259 C.3       1 <0>         0.0236
     13 C10        -4.8712    0.2637    0.0384 C.3       1 <0>        -0.0163
     14 C11        -5.3062    0.5346   -1.3789 C.ar      1 <0>        -0.3083
     15 C12        -4.9545    1.7101   -2.0132 C.ar      1 <0>         0.2250
     16 N1         -5.3522    1.9181   -3.2597 N.ar      1 <0>        -0.6043
     17 C13        -6.0798    1.0161   -3.9019 C.ar      1 <0>         0.6032
     18 N2         -6.4382   -0.1231   -3.3293 N.ar      1 <0>        -0.6263
     19 C14        -6.0690   -0.3996   -2.0826 C.ar      1 <0>         0.4894
     20 N3         -6.4404   -1.5946   -1.4883 N.pl3     1 <0>        -0.8360
     21 N4         -6.4756    1.2708   -5.2034 N.pl3     1 <0>        -0.8207
     22 H1          1.0053    1.8021    0.0021 H         1 <0>         0.1035
     23 H2         -0.5445    1.7859   -0.8732 H         1 <0>         0.0589
     24 H3         -0.5275    1.7763    0.9067 H         1 <0>         0.0581
     25 H4         -2.3329    1.1797    0.0207 H         1 <0>         0.1363
     26 H5         -4.6151   -2.4227    0.0334 H         1 <0>         0.1280
     27 H6         -0.2648   -3.7070    1.8151 H         1 <0>         0.0438
     28 H7          1.3650   -3.6864    1.0998 H         1 <0>         0.0924
     29 H8          0.6878   -2.2033    1.8141 H         1 <0>         0.0441
     30 H9         -4.3845   -4.3050    0.9202 H         1 <0>         0.0570
     31 H10        -4.3978   -4.3036   -0.8597 H         1 <0>         0.0568
     32 H11        -3.7517   -5.7069    0.0243 H         1 <0>         0.1041
     33 H12        -5.6506   -0.2944    0.5572 H         1 <0>         0.0773
     34 H13        -4.6980    1.2092    0.5523 H         1 <0>         0.0904
     35 H14        -4.3619    2.4519   -1.4984 H         1 <0>         0.1633
     36 H15        -6.1706   -1.7873   -0.5767 H         1 <0>         0.4079
     37 H16        -6.2200    2.1014   -5.6342 H         1 <0>         0.4156
     38 H17        -7.0085    0.6187   -5.6847 H         1 <0>         0.4133
     39 H18        -6.9704   -2.2385   -1.9837 H         1 <0>         0.4067
@<TRIPOS>BOND
     1    1    2 1
     2    1   22 1
     3    1   23 1
     4    1   24 1
     5    2    3 1
     6    3    8 ar
     7    3    4 ar
     8    4    5 ar
     9    4   25 1
    10    5    6 ar
    11    5   13 1
    12    6    7 ar
    13    6   26 1
    14    7    8 ar
    15    7   11 1
    16    8    9 1
    17    9   10 1
    18   10   27 1
    19   10   28 1
    20   10   29 1
    21   11   12 1
    22   12   30 1
    23   12   31 1
    24   12   32 1
    25   13   14 1
    26   13   33 1
    27   13   34 1
    28   14   19 ar
    29   14   15 ar
    30   15   16 ar
    31   15   35 1
    32   16   17 ar
    33   17   18 ar
    34   17   21 1
    35   18   19 ar
    36   19   20 1
    37   20   36 1
    38   20   39 1
    39   21   37 1
    40   21   38 1
@<TRIPOS>MOLECULE
ZINC06627681
   40    41     0     0     0
SMALL
USER_CHARGES

@<TRIPOS>ATOM
      1 C1         -0.0173    1.4248    0.0099 C.3       1 <0>         0.0236
      2 O1          0.0021   -0.0041    0.0020 O.3       1 <0>        -0.2966
      3 C2          0.6062   -0.6075   -1.0565 C.ar      1 <0>         0.1590
      4 C3          1.1731    0.1601   -2.0626 C.ar      1 <0>        -0.2276
      5 C4          1.7874   -0.4523   -3.1388 C.ar      1 <0>        -0.0278
      6 C5          1.8393   -1.8314   -3.2169 C.ar      1 <0>        -0.2351
      7 C6          1.2749   -2.6062   -2.2150 C.ar      1 <0>         0.1601
      8 C7          0.6613   -1.9944   -1.1284 C.ar      1 <0>         0.0371
      9 O2          0.1111   -2.7512   -0.1402 O.3       1 <0>        -0.3127
     10 C8         -1.2598   -3.1236   -0.2953 C.3       1 <0>         0.0346
     11 O3          1.3261   -3.9630   -2.2930 O.3       1 <0>        -0.2955
     12 C9          1.9770   -4.5231   -3.4352 C.3       1 <0>         0.0221
     13 C10         2.4017    0.3858   -4.2302 C.3       1 <0>        -0.0295
     14 C11         3.8422    0.6725   -3.8928 C.ar      1 <0>        -0.2227
     15 C12         4.1975    1.8410   -3.2477 C.ar      1 <0>         0.2105
     16 N1          5.4726    2.0633   -2.9647 N.ar      1 <0>        -0.5697
     17 C13         6.4065    1.1822   -3.2920 C.ar      1 <0>         0.6625
     18 N2          6.1075    0.0504   -3.9114 N.ar      1 <0>        -0.5720
     19 C14         4.8475   -0.2398   -4.2201 C.ar      1 <0>         0.5372
     20 N3          4.5370   -1.4272   -4.8628 N.pl3     1 <0>        -0.7792
     21 N4          7.7275    1.4516   -2.9793 N.pl3     1 <0>        -0.7906
     22 H1          1.0053    1.8021    0.0021 H         1 <0>         0.0555
     23 H2         -0.5445    1.7859   -0.8732 H         1 <0>         0.0607
     24 H3         -0.5275    1.7763    0.9067 H         1 <0>         0.1087
     25 H4          1.1343    1.2379   -2.0054 H         1 <0>         0.1378
     26 H5          2.3199   -2.3061   -4.0596 H         1 <0>         0.1268
     27 H6         -1.3771   -3.7054   -1.2095 H         1 <0>         0.0473
     28 H7         -1.5724   -3.7233    0.5596 H         1 <0>         0.0987
     29 H8         -1.8756   -2.2262   -0.3542 H         1 <0>         0.0474
     30 H9          1.4660   -4.1967   -4.3410 H         1 <0>         0.0599
     31 H10         3.0141   -4.1888   -3.4626 H         1 <0>         0.0544
     32 H11         1.9474   -5.6109   -3.3732 H         1 <0>         0.1103
     33 H12         2.3506   -0.1544   -5.1756 H         1 <0>         0.0994
     34 H13         1.8554    1.3249   -4.3183 H         1 <0>         0.1128
     35 H14         3.4440    2.5659   -2.9772 H         1 <0>         0.2147
     36 H15         3.6157   -1.6298   -5.0887 H         1 <0>         0.4275
     37 H16         7.9600    2.2771   -2.5260 H         1 <0>         0.4311
     38 H17         8.4208    0.8149   -3.2134 H         1 <0>         0.4453
     39 H18         5.2409   -2.0558   -5.0868 H         1 <0>         0.4288
     40 H19         5.7260    2.8827   -2.5117 H         1 <0>         0.4452
@<TRIPOS>BOND
     1    1    2 1
     2    1   22 1
     3    1   23 1
     4    1   24 1
     5    2    3 1
     6    3    8 ar
     7    3    4 ar
     8    4    5 ar
     9    4   25 1
    10    5    6 ar
    11    5   13 1
    12    6    7 ar
    13    6   26 1
    14    7    8 ar
    15    7   11 1
    16    8    9 1
    17    9   10 1
    18   10   27 1
    19   10   28 1
    20   10   29 1
    21   11   12 1
    22   12   30 1
    23   12   31 1
    24   12   32 1
    25   13   14 1
    26   13   33 1
    27   13   34 1
    28   14   19 ar
    29   14   15 ar
    30   15   16 ar
    31   15   35 1
    32   16   17 ar
    33   16   40 1
    34   17   18 ar
    35   17   21 1
    36   18   19 ar
    37   19   20 1
    38   20   36 1
    39   20   39 1
    40   21   37 1
    41   21   38 1
@<TRIPOS>MOLECULE
ZINC13472728
   27    28     0     0     0
SMALL
USER_CHARGES
5-(3-chlorophenyl)-6-methyl-pyrimidine-2,4-diamine
@<TRIPOS>ATOM
      1 C1         -1.1261    5.2906    2.3174 C.3       1 <0>        -0.1126
      2 C2         -0.5826    6.0289    1.1213 C.ar      1 <0>         0.2656
      3 C3         -0.0716    5.3275    0.0314 C.ar      1 <0>        -0.2897
      4 C4          0.4187    6.0632   -1.0635 C.ar      1 <0>         0.4985
      5 N1          0.3806    7.3898   -1.0136 N.ar      1 <0>        -0.6307
      6 C5         -0.1097    8.0137    0.0469 C.ar      1 <0>         0.6118
      7 N2         -0.5794    7.3518    1.0949 N.ar      1 <0>        -0.6050
      8 N3         -0.1319    9.3968    0.0615 N.pl3     1 <0>        -0.8183
      9 N4          0.9320    5.4154   -2.1729 N.pl3     1 <0>        -0.8301
     10 C6         -0.0504    3.8450    0.0227 C.ar      1 <0>         0.0009
     11 C7         -1.2462    3.1282    0.0298 C.ar      1 <0>        -0.1061
     12 C8         -1.2212    1.7486    0.0173 C.ar      1 <0>        -0.1007
     13 C9         -0.0126    1.0758    0.0080 C.ar      1 <0>        -0.1127
     14 C10         1.1782    1.7817    0.0004 C.ar      1 <0>        -0.0296
     15 C11         1.1648    3.1630    0.0079 C.ar      1 <0>        -0.1104
     16 Cl1         2.6906    0.9297   -0.0181 Cl        1 <0>        -0.0676
     17 H1         -0.3240    5.1234    3.0364 H         1 <0>         0.0868
     18 H2         -1.9137    5.8831    2.7830 H         1 <0>         0.0838
     19 H3         -1.5336    4.3315    1.9980 H         1 <0>         0.0834
     20 H4          0.2086    9.8953   -0.6978 H         1 <0>         0.4142
     21 H5         -0.4878    9.8681    0.8309 H         1 <0>         0.4161
     22 H6          0.9562    4.4461   -2.2005 H         1 <0>         0.4127
     23 H7          1.2678    5.9306   -2.9231 H         1 <0>         0.4083
     24 H8         -2.1907    3.6519    0.0409 H         1 <0>         0.1302
     25 H9         -2.1473    1.1928    0.0187 H         1 <0>         0.1351
     26 H10         0.0021   -0.0041    0.0020 H         1 <0>         0.1343
     27 H11         2.0941    3.7133    0.0020 H         1 <0>         0.1317
@<TRIPOS>BOND
     1    1    2 1
     2    1   17 1
     3    1   18 1
     4    1   19 1
     5    2    7 ar
     6    2    3 ar
     7    3    4 ar
     8    3   10 1
     9    4    5 ar
    10    4    9 1
    11    5    6 ar
    12    6    7 ar
    13    6    8 1
    14    8   20 1
    15    8   21 1
    16    9   22 1
    17    9   23 1
    18   10   15 ar
    19   10   11 ar
    20   11   12 ar
    21   11   24 1
    22   12   13 ar
    23   12   25 1
    24   13   14 ar
    25   13   26 1
    26   14   15 ar
    27   14   16 1
    28   15   27 1
@<TRIPOS>MOLECULE
ZINC13472728
   28    29     0     0     0
SMALL
USER_CHARGES
5-(3-chlorophenyl)-6-methyl-pyrimidine-2,4-diamine
@<TRIPOS>ATOM
      1 C1         -1.1261    5.2906    2.3174 C.3       1 <0>        -0.1512
      2 C2         -0.5826    6.0289    1.1213 C.ar      1 <0>         0.2523
      3 C3         -0.0716    5.3275    0.0314 C.ar      1 <0>        -0.1920
      4 C4          0.4187    6.0632   -1.0635 C.ar      1 <0>         0.5437
      5 N1          0.3806    7.3898   -1.0136 N.ar      1 <0>        -0.5686
      6 C5         -0.1097    8.0137    0.0469 C.ar      1 <0>         0.6729
      7 N2         -0.1319    9.3968    0.0615 N.pl3     1 <0>        -0.7902
      8 N3          0.9320    5.4154   -2.1729 N.pl3     1 <0>        -0.7704
      9 C6         -0.0504    3.8450    0.0227 C.ar      1 <0>        -0.0534
     10 C7         -1.2462    3.1282    0.0298 C.ar      1 <0>        -0.0949
     11 C8         -1.2212    1.7486    0.0173 C.ar      1 <0>        -0.0944
     12 C9         -0.0126    1.0758    0.0080 C.ar      1 <0>        -0.0868
     13 C10         1.1782    1.7817    0.0004 C.ar      1 <0>        -0.0299
     14 C11         1.1648    3.1630    0.0079 C.ar      1 <0>        -0.0996
     15 Cl1         2.6906    0.9297   -0.0181 Cl        1 <0>        -0.0447
     16 H1         -0.3240    5.1234    3.0364 H         1 <0>         0.1198
     17 H2         -1.9137    5.8831    2.7830 H         1 <0>         0.1024
     18 H3         -1.5336    4.3315    1.9980 H         1 <0>         0.1172
     19 H4          0.2086    9.8953   -0.6978 H         1 <0>         0.4434
     20 H5         -0.4878    9.8681    0.8309 H         1 <0>         0.4307
     21 H6          0.9562    4.4461   -2.2005 H         1 <0>         0.4326
     22 H7          1.2678    5.9306   -2.9231 H         1 <0>         0.4298
     23 H8         -2.1907    3.6519    0.0409 H         1 <0>         0.1364
     24 H9         -2.1473    1.1928    0.0187 H         1 <0>         0.1459
     25 H10         0.0021   -0.0041    0.0020 H         1 <0>         0.1454
     26 H11         2.0941    3.7133    0.0020 H         1 <0>         0.1384
     27 N4         -0.6064    7.3901    1.1539 N.ar      1 <0>        -0.5950
     28 H12        -0.9717    7.8647    1.9547 H         1 <0>         0.4603
@<TRIPOS>BOND
     1    1    2 1
     2    1   16 1
     3    1   17 1
     4    1   18 1
     5    2    3 ar
     6    2   27 ar
     7    3    4 ar
     8    3    9 1
     9    4    5 ar
    10    4    8 1
    11    5    6 ar
    12    6    7 1
    13    6   27 ar
    14    7   19 1
    15    7   20 1
    16    8   21 1
    17    8   22 1
    18    9   14 ar
    19    9   10 ar
    20   10   11 ar
    21   10   23 1
    22   11   12 ar
    23   11   24 1
    24   12   13 ar
    25   12   25 1
    26   13   14 ar
    27   13   15 1
    28   14   26 1
    29   27   28 1
@<TRIPOS>MOLECULE
ZINC13472728
   28    29     0     0     0
SMALL
USER_CHARGES
5-(3-chlorophenyl)-6-methyl-pyrimidine-2,4-diamine
@<TRIPOS>ATOM
      1 C1         -1.1261    5.2906    2.3174 C.3       1 <0>        -0.1338
      2 C2         -0.5826    6.0289    1.1213 C.ar      1 <0>         0.2923
      3 C3         -0.0716    5.3275    0.0314 C.ar      1 <0>        -0.2367
      4 C4          0.4187    6.0632   -1.0635 C.ar      1 <0>         0.3734
      5 N1          0.3806    7.3898   -1.0136 N.ar      1 <0>        -0.5309
      6 C5         -0.1097    8.0137    0.0469 C.ar      1 <0>         0.5865
      7 N2         -0.1319    9.3968    0.0615 N.pl3     1 <0>        -0.7371
      8 N3          0.9320    5.4154   -2.1729 N.pl3     1 <0>        -0.7659
      9 C6         -0.0504    3.8450    0.0227 C.ar      1 <0>        -0.0637
     10 C7         -1.2462    3.1282    0.0298 C.ar      1 <0>        -0.0839
     11 C8         -1.2212    1.7486    0.0173 C.ar      1 <0>        -0.0924
     12 C9         -0.0126    1.0758    0.0080 C.ar      1 <0>        -0.0777
     13 C10         1.1782    1.7817    0.0004 C.ar      1 <0>        -0.0303
     14 C11         1.1648    3.1630    0.0079 C.ar      1 <0>        -0.0984
     15 Cl1         2.6906    0.9297   -0.0181 Cl        1 <0>        -0.0391
     16 H1         -0.3240    5.1234    3.0364 H         1 <0>         0.1232
     17 H2         -1.9137    5.8831    2.7830 H         1 <0>         0.1138
     18 H3         -1.5336    4.3315    1.9980 H         1 <0>         0.1081
     19 H4          0.2086    9.8953   -0.6978 H         1 <0>         0.4371
     20 H5         -0.4878    9.8681    0.8309 H         1 <0>         0.4497
     21 H6          0.9562    4.4461   -2.2005 H         1 <0>         0.4534
     22 H7          1.2678    5.9306   -2.9231 H         1 <0>         0.4478
     23 H8         -2.1907    3.6519    0.0409 H         1 <0>         0.1412
     24 H9         -2.1473    1.1928    0.0187 H         1 <0>         0.1505
     25 H10         0.0021   -0.0041    0.0020 H         1 <0>         0.1490
     26 H11         2.0941    3.7133    0.0020 H         1 <0>         0.1407
     27 N4         -0.6064    7.3901    1.1539 N.ar      1 <0>        -0.4949
     28 H12         0.4076    6.3905   -1.0377 H         1 <0>         0.4183
@<TRIPOS>BOND
     1    1    2 1
     2    1   16 1
     3    1   17 1
     4    1   18 1
     5    2    3 ar
     6    2   27 ar
     7    3    4 ar
     8    3    9 1
     9    4    5 ar
    10    4    8 1
    11    5    6 ar
    12    5   28 1
    13    6    7 1
    14    6   27 ar
    15    7   19 1
    16    7   20 1
    17    8   21 1
    18    8   22 1
    19    9   14 ar
    20    9   10 ar
    21   10   11 ar
    22   10   23 1
    23   11   12 ar
    24   11   24 1
    25   12   13 ar
    26   12   25 1
    27   13   14 ar
    28   13   15 1
    29   14   26 1
@<TRIPOS>MOLECULE
ZINC13282257
   30    31     0     0     0
SMALL
USER_CHARGES
6-ethyl-5-phenyl-pyrimidine-2,4-diamine
@<TRIPOS>ATOM
      1 C1         -2.1031    2.5494    2.1130 C.3       1 <0>        -0.1411
      2 C2         -0.9638    1.7328    1.4999 C.3       1 <0>        -0.0791
      3 C3         -0.0427    1.2559    2.5931 C.ar      1 <0>         0.2648
      4 C4          1.0249    2.0472    3.0117 C.ar      1 <0>        -0.2818
      5 C5          1.8560    1.5569    4.0360 C.ar      1 <0>         0.4946
      6 N1          1.5923    0.3658    4.5610 N.ar      1 <0>        -0.6313
      7 C6          0.5652   -0.3515    4.1306 C.ar      1 <0>         0.6084
      8 N2         -0.2404    0.0826    3.1718 N.ar      1 <0>        -0.6035
      9 N3          0.3228   -1.5874    4.7028 N.pl3     1 <0>        -0.8199
     10 N4          2.9293    2.3030    4.4887 N.pl3     1 <0>        -0.8306
     11 C7          1.2784    3.3714    2.3946 C.ar      1 <0>        -0.0136
     12 C8          1.7100    3.4557    1.0718 C.ar      1 <0>        -0.1097
     13 C9          1.9398    4.6911    0.5012 C.ar      1 <0>        -0.1151
     14 C10         1.7526    5.8439    1.2425 C.ar      1 <0>        -0.1210
     15 C11         1.3294    5.7661    2.5572 C.ar      1 <0>        -0.1153
     16 C12         1.0915    4.5365    3.1367 C.ar      1 <0>        -0.1160
     17 H1         -1.6922    3.4211    2.6223 H         1 <0>         0.0566
     18 H2         -2.6472    1.9333    2.8290 H         1 <0>         0.0582
     19 H3         -2.7817    2.8754    1.3247 H         1 <0>         0.0649
     20 H4         -1.3762    0.8733    0.9716 H         1 <0>         0.0859
     21 H5         -0.4058    2.3556    0.8006 H         1 <0>         0.0871
     22 H6          0.9010   -1.9169    5.4085 H         1 <0>         0.4135
     23 H7         -0.4254   -2.1244    4.3984 H         1 <0>         0.4155
     24 H8          3.1143    3.1721    4.0996 H         1 <0>         0.4131
     25 H9          3.4969    1.9571    5.1951 H         1 <0>         0.4070
     26 H10         1.8605    2.5561    0.4934 H         1 <0>         0.1211
     27 H11         2.2706    4.7577   -0.5247 H         1 <0>         0.1234
     28 H12         1.9373    6.8084    0.7930 H         1 <0>         0.1219
     29 H13         1.1846    6.6695    3.1311 H         1 <0>         0.1228
     30 H14         0.7608    4.4769    4.1631 H         1 <0>         0.1193
@<TRIPOS>BOND
     1    1    2 1
     2    1   17 1
     3    1   18 1
     4    1   19 1
     5    2    3 1
     6    2   20 1
     7    2   21 1
     8    3    8 ar
     9    3    4 ar
    10    4    5 ar
    11    4   11 1
    12    5    6 ar
    13    5   10 1
    14    6    7 ar
    15    7    8 ar
    16    7    9 1
    17    9   22 1
    18    9   23 1
    19   10   24 1
    20   10   25 1
    21   11   16 ar
    22   11   12 ar
    23   12   13 ar
    24   12   26 1
    25   13   14 ar
    26   13   27 1
    27   14   15 ar
    28   14   28 1
    29   15   16 ar
    30   15   29 1
    31   16   30 1
@<TRIPOS>MOLECULE
ZINC13282257
   31    32     0     0     0
SMALL
USER_CHARGES
6-ethyl-5-phenyl-pyrimidine-2,4-diamine
@<TRIPOS>ATOM
      1 C1         -2.1031    2.5494    2.1130 C.3       1 <0>        -0.1528
      2 C2         -0.9638    1.7328    1.4999 C.3       1 <0>        -0.1112
      3 C3         -0.0427    1.2559    2.5931 C.ar      1 <0>         0.2471
      4 C4          1.0249    2.0472    3.0117 C.ar      1 <0>        -0.1833
      5 C5          1.8560    1.5569    4.0360 C.ar      1 <0>         0.5417
      6 N1          1.5923    0.3658    4.5610 N.ar      1 <0>        -0.5693
      7 C6          0.5652   -0.3515    4.1306 C.ar      1 <0>         0.6715
      8 N2          0.3228   -1.5874    4.7028 N.pl3     1 <0>        -0.7916
      9 N3          2.9293    2.3030    4.4887 N.pl3     1 <0>        -0.7704
     10 C7          1.2784    3.3714    2.3946 C.ar      1 <0>        -0.0694
     11 C8          1.7100    3.4557    1.0718 C.ar      1 <0>        -0.0970
     12 C9          1.9398    4.6911    0.5012 C.ar      1 <0>        -0.1098
     13 C10         1.7526    5.8439    1.2425 C.ar      1 <0>        -0.0938
     14 C11         1.3294    5.7661    2.5572 C.ar      1 <0>        -0.1094
     15 C12         1.0915    4.5365    3.1367 C.ar      1 <0>        -0.1034
     16 H1         -1.6922    3.4211    2.6223 H         1 <0>         0.0713
     17 H2         -2.6472    1.9333    2.8290 H         1 <0>         0.0616
     18 H3         -2.7817    2.8754    1.3247 H         1 <0>         0.0871
     19 H4         -1.3762    0.8733    0.9716 H         1 <0>         0.1031
     20 H5         -0.4058    2.3556    0.8006 H         1 <0>         0.1206
     21 H6          0.9010   -1.9169    5.4085 H         1 <0>         0.4430
     22 H7         -0.4254   -2.1244    4.3984 H         1 <0>         0.4302
     23 H8          3.1143    3.1721    4.0996 H         1 <0>         0.4332
     24 H9          3.4969    1.9571    5.1951 H         1 <0>         0.4287
     25 H10         1.8605    2.5561    0.4934 H         1 <0>         0.1276
     26 H11         2.2706    4.7577   -0.5247 H         1 <0>         0.1346
     27 H12         1.9373    6.8084    0.7930 H         1 <0>         0.1336
     28 H13         1.1846    6.6695    3.1311 H         1 <0>         0.1346
     29 H14         0.7608    4.4769    4.1631 H         1 <0>         0.1266
     30 N4         -0.2985    0.0398    3.1499 N.ar      1 <0>        -0.5936
     31 H15        -1.0778   -0.5011    2.8334 H         1 <0>         0.4590
@<TRIPOS>BOND
     1    1    2 1
     2    1   16 1
     3    1   17 1
     4    1   18 1
     5    2    3 1
     6    2   19 1
     7    2   20 1
     8    3    4 ar
     9    3   30 ar
    10    4    5 ar
    11    4   10 1
    12    5    6 ar
    13    5    9 1
    14    6    7 ar
    15    7    8 1
    16    7   30 ar
    17    8   21 1
    18    8   22 1
    19    9   23 1
    20    9   24 1
    21   10   15 ar
    22   10   11 ar
    23   11   12 ar
    24   11   25 1
    25   12   13 ar
    26   12   26 1
    27   13   14 ar
    28   13   27 1
    29   14   15 ar
    30   14   28 1
    31   15   29 1
    32   30   31 1
@<TRIPOS>MOLECULE
ZINC13282257
   31    32     0     0     0
SMALL
USER_CHARGES
6-ethyl-5-phenyl-pyrimidine-2,4-diamine
@<TRIPOS>ATOM
      1 C1         -2.1031    2.5494    2.1130 C.3       1 <0>        -0.1481
      2 C2         -0.9638    1.7328    1.4999 C.3       1 <0>        -0.0952
      3 C3         -0.0427    1.2559    2.5931 C.ar      1 <0>         0.2907
      4 C4          1.0249    2.0472    3.0117 C.ar      1 <0>        -0.2283
      5 C5          1.8560    1.5569    4.0360 C.ar      1 <0>         0.3678
      6 N1          1.5923    0.3658    4.5610 N.ar      1 <0>        -0.5322
      7 C6          0.5652   -0.3515    4.1306 C.ar      1 <0>         0.5845
      8 N2          0.3228   -1.5874    4.7028 N.pl3     1 <0>        -0.7389
      9 N3          2.9293    2.3030    4.4887 N.pl3     1 <0>        -0.7667
     10 C7          1.2784    3.3714    2.3946 C.ar      1 <0>        -0.0801
     11 C8          1.7100    3.4557    1.0718 C.ar      1 <0>        -0.0866
     12 C9          1.9398    4.6911    0.5012 C.ar      1 <0>        -0.1078
     13 C10         1.7526    5.8439    1.2425 C.ar      1 <0>        -0.0848
     14 C11         1.3294    5.7661    2.5572 C.ar      1 <0>        -0.1080
     15 C12         1.0915    4.5365    3.1367 C.ar      1 <0>        -0.1010
     16 H1         -1.6922    3.4211    2.6223 H         1 <0>         0.0648
     17 H2         -2.6472    1.9333    2.8290 H         1 <0>         0.0671
     18 H3         -2.7817    2.8754    1.3247 H         1 <0>         0.0879
     19 H4         -1.3762    0.8733    0.9716 H         1 <0>         0.1147
     20 H5         -0.4058    2.3556    0.8006 H         1 <0>         0.1116
     21 H6          0.9010   -1.9169    5.4085 H         1 <0>         0.4366
     22 H7         -0.4254   -2.1244    4.3984 H         1 <0>         0.4491
     23 H8          3.1143    3.1721    4.0996 H         1 <0>         0.4538
     24 H9          3.4969    1.9571    5.1951 H         1 <0>         0.4465
     25 H10         1.8605    2.5561    0.4934 H         1 <0>         0.1322
     26 H11         2.2706    4.7577   -0.5247 H         1 <0>         0.1391
     27 H12         1.9373    6.8084    0.7930 H         1 <0>         0.1374
     28 H13         1.1846    6.6695    3.1311 H         1 <0>         0.1385
     29 H14         0.7608    4.4769    4.1631 H         1 <0>         0.1291
     30 N4         -0.2985    0.0398    3.1499 N.ar      1 <0>        -0.4929
     31 H15         1.7738    1.2663    4.1659 H         1 <0>         0.4192
@<TRIPOS>BOND
     1    1    2 1
     2    1   16 1
     3    1   17 1
     4    1   18 1
     5    2    3 1
     6    2   19 1
     7    2   20 1
     8    3    4 ar
     9    3   30 ar
    10    4    5 ar
    11    4   10 1
    12    5    6 ar
    13    5    9 1
    14    6    7 ar
    15    6   31 1
    16    7    8 1
    17    7   30 ar
    18    8   21 1
    19    8   22 1
    20    9   23 1
    21    9   24 1
    22   10   15 ar
    23   10   11 ar
    24   11   12 ar
    25   11   25 1
    26   12   13 ar
    27   12   26 1
    28   13   14 ar
    29   13   27 1
    30   14   15 ar
    31   14   28 1
    32   15   29 1
@<TRIPOS>MOLECULE
ZINC17949002
   21    21     0     0     0
SMALL
USER_CHARGES

@<TRIPOS>ATOM
      1 C1         -0.0167    1.3795    0.0096 C.ar      1 <0>        -0.0947
      2 C2          1.1682    2.0941    0.0022 C.ar      1 <0>        -0.1236
      3 C3          2.3774    1.4308   -0.0130 C.ar      1 <0>        -0.0816
      4 C4          2.4040    0.0342   -0.0208 C.ar      1 <0>        -0.0713
      5 C5          1.2039   -0.6807   -0.0131 C.ar      1 <0>        -0.0757
      6 C6          0.0021   -0.0041    0.0020 C.ar      1 <0>        -0.1260
      7 C7          3.6930   -0.6822   -0.0374 C.2       1 <0>         0.1573
      8 N1          3.7142   -1.9796   -0.0446 N.2       1 <0>        -0.2896
      9 N2          4.9387   -2.6601   -0.0604 N.pl3     1 <0>        -0.5386
     10 C8          4.9607   -4.0077   -0.0679 C.2       1 <0>         0.6037
     11 S1          6.4571   -4.8393   -0.0873 S.2       1 <0>        -0.6175
     12 N3          3.8047   -4.7006   -0.0601 N.pl3     1 <0>        -0.7839
     13 H1         -0.9606    1.9041    0.0260 H         1 <0>         0.1281
     14 H2          1.1461    3.1739    0.0078 H         1 <0>         0.1310
     15 H3          3.3014    1.9898   -0.0192 H         1 <0>         0.1316
     16 H4          1.2171   -1.7606   -0.0191 H         1 <0>         0.1309
     17 H5         -0.9265   -0.5555    0.0079 H         1 <0>         0.1291
     18 H6          4.6194   -0.1269   -0.0436 H         1 <0>         0.1307
     19 H7          5.7707   -2.1614   -0.0660 H         1 <0>         0.4189
     20 H8          2.9569   -4.2294   -0.0492 H         1 <0>         0.4081
     21 H9          3.8206   -5.6704   -0.0655 H         1 <0>         0.4328
@<TRIPOS>BOND
     1    1    6 ar
     2    1    2 ar
     3    1   13 1
     4    2    3 ar
     5    2   14 1
     6    3    4 ar
     7    3   15 1
     8    4    5 ar
     9    4    7 1
    10    5    6 ar
    11    5   16 1
    12    6   17 1
    13    7    8 2
    14    7   18 1
    15    8    9 1
    16    9   10 1
    17    9   19 1
    18   10   11 2
    19   10   12 1
    20   12   20 1
    21   12   21 1
@<TRIPOS>MOLECULE
ZINC17949002
   21    21     0     0     0
SMALL
USER_CHARGES

@<TRIPOS>ATOM
      1 C1         -0.0167    1.3795    0.0096 C.ar      1 <0>        -0.0982
      2 C2          1.1682    2.0941    0.0022 C.ar      1 <0>        -0.1271
      3 C3          2.3774    1.4308   -0.0130 C.ar      1 <0>        -0.0870
      4 C4          2.4040    0.0342   -0.0208 C.ar      1 <0>        -0.0642
      5 C5          1.2040   -0.6807   -0.0131 C.ar      1 <0>        -0.0714
      6 C6          0.0021   -0.0041    0.0020 C.ar      1 <0>        -0.1255
      7 C7          3.6930   -0.6822   -0.0374 C.2       1 <0>         0.1250
      8 N1          3.7142   -1.9796   -0.0446 N.2       1 <0>        -0.2016
      9 N2          4.9387   -2.6602   -0.0604 N.pl3     1 <0>        -0.5584
     10 C8          4.9611   -4.0278   -0.0680 C.cat     1 <0>         0.5590
     11 N3          6.1563   -4.6921   -0.0835 N.pl3     1 <0>        -0.8125
     12 S1          3.5373   -4.8812   -0.0585 S.3       1 <0>        -0.5226
     13 H1         -0.9606    1.9041    0.0260 H         1 <0>         0.1260
     14 H2          1.1461    3.1739    0.0078 H         1 <0>         0.1281
     15 H3          3.3014    1.9898   -0.0192 H         1 <0>         0.1277
     16 H4          1.2171   -1.7606   -0.0194 H         1 <0>         0.1414
     17 H5         -0.9265   -0.5555    0.0079 H         1 <0>         0.1290
     18 H6          4.6194   -0.1270   -0.0436 H         1 <0>         0.1223
     19 H7          6.9883   -4.1934   -0.0891 H         1 <0>         0.3938
     20 H8          6.1721   -5.6619   -0.0889 H         1 <0>         0.4357
     21 H9          5.7707   -2.1615   -0.0660 H         1 <0>         0.3806
@<TRIPOS>BOND
     1    1    6 ar
     2    1    2 ar
     3    1   13 1
     4    2    3 ar
     5    2   14 1
     6    3    4 ar
     7    3   15 1
     8    4    5 ar
     9    4    7 1
    10    5    6 ar
    11    5   16 1
    12    6   17 1
    13    7    8 2
    14    7   18 1
    15    8    9 1
    16    9   10 2
    17    9   21 1
    18   10   11 1
    19   10   12 1
    20   11   19 1
    21   11   20 1
@<TRIPOS>MOLECULE
ZINC13472716
   30    31     0     0     0
SMALL
USER_CHARGES
5-(3-chlorophenyl)-6-ethyl-pyrimidine-2,4-diamine
@<TRIPOS>ATOM
      1 C1         -0.7469    2.5297    2.8923 C.3       1 <0>        -0.1420
      2 C2         -0.8135    1.7452    1.5805 C.3       1 <0>        -0.0798
      3 C3         -2.1401    1.0364    1.4859 C.ar      1 <0>         0.2693
      4 C4         -2.2972   -0.2413    2.0188 C.ar      1 <0>        -0.2870
      5 C5         -3.5558   -0.8602    1.9052 C.ar      1 <0>         0.4978
      6 N1         -4.5396   -0.2065    1.2980 N.ar      1 <0>        -0.6303
      7 C6         -4.3434    1.0078    0.8064 C.ar      1 <0>         0.6110
      8 N2         -3.1724    1.6216    0.9005 N.ar      1 <0>        -0.6026
      9 N3         -5.3931    1.6566    0.1813 N.pl3     1 <0>        -0.8186
     10 N4         -3.7651   -2.1280    2.4177 N.pl3     1 <0>        -0.8301
     11 C7         -1.1680   -0.9305    2.6884 C.ar      1 <0>         0.0013
     12 C8         -0.0677   -1.3553    1.9449 C.ar      1 <0>        -0.1055
     13 C9          0.9828   -1.9920    2.5736 C.ar      1 <0>        -0.1009
     14 C10         0.9415   -2.2189    3.9375 C.ar      1 <0>        -0.1122
     15 C11        -0.1504   -1.8043    4.6805 C.ar      1 <0>        -0.0299
     16 C12        -1.2052   -1.1612    4.0622 C.ar      1 <0>        -0.1084
     17 Cl1        -0.1946   -2.0934    6.3917 Cl        1 <0>        -0.0678
     18 H1         -1.5665    3.2474    2.9285 H         1 <0>         0.0592
     19 H2          0.2035    3.0604    2.9504 H         1 <0>         0.0659
     20 H3         -0.8301    1.8404    3.7325 H         1 <0>         0.0563
     21 H4         -0.7078    2.4319    0.7406 H         1 <0>         0.0875
     22 H5         -0.0073    1.0122    1.5541 H         1 <0>         0.0867
     23 H6         -6.2572    1.2221    0.1080 H         1 <0>         0.4141
     24 H7         -5.2650    2.5461   -0.1839 H         1 <0>         0.4160
     25 H8         -3.0409   -2.5979    2.8599 H         1 <0>         0.4126
     26 H9         -4.6360   -2.5469    2.3349 H         1 <0>         0.4082
     27 H10        -0.0359   -1.1829    0.8793 H         1 <0>         0.1292
     28 H11         1.8370   -2.3179    1.9987 H         1 <0>         0.1348
     29 H12         1.7640   -2.7216    4.4245 H         1 <0>         0.1340
     30 H13        -2.0567   -0.8376    4.6424 H         1 <0>         0.1312
@<TRIPOS>BOND
     1    1    2 1
     2    1   18 1
     3    1   19 1
     4    1   20 1
     5    2    3 1
     6    2   21 1
     7    2   22 1
     8    3    8 ar
     9    3    4 ar
    10    4    5 ar
    11    4   11 1
    12    5    6 ar
    13    5   10 1
    14    6    7 ar
    15    7    8 ar
    16    7    9 1
    17    9   23 1
    18    9   24 1
    19   10   25 1
    20   10   26 1
    21   11   16 ar
    22   11   12 ar
    23   12   13 ar
    24   12   27 1
    25   13   14 ar
    26   13   28 1
    27   14   15 ar
    28   14   29 1
    29   15   16 ar
    30   15   17 1
    31   16   30 1
@<TRIPOS>MOLECULE
ZINC13472716
   31    32     0     0     0
SMALL
USER_CHARGES
5-(3-chlorophenyl)-6-ethyl-pyrimidine-2,4-diamine
@<TRIPOS>ATOM
      1 C1         -0.7469    2.5297    2.8923 C.3       1 <0>        -0.1538
      2 C2         -0.8135    1.7452    1.5805 C.3       1 <0>        -0.1123
      3 C3         -2.1401    1.0364    1.4859 C.ar      1 <0>         0.2531
      4 C4         -2.2972   -0.2413    2.0188 C.ar      1 <0>        -0.1883
      5 C5         -3.5558   -0.8602    1.9052 C.ar      1 <0>         0.5436
      6 N1         -4.5396   -0.2065    1.2980 N.ar      1 <0>        -0.5680
      7 C6         -4.3434    1.0078    0.8064 C.ar      1 <0>         0.6727
      8 N2         -5.3931    1.6566    0.1813 N.pl3     1 <0>        -0.7902
      9 N3         -3.7651   -2.1280    2.4177 N.pl3     1 <0>        -0.7699
     10 C7         -1.1680   -0.9305    2.6884 C.ar      1 <0>        -0.0540
     11 C8         -0.0677   -1.3553    1.9449 C.ar      1 <0>        -0.0937
     12 C9          0.9828   -1.9920    2.5736 C.ar      1 <0>        -0.0947
     13 C10         0.9415   -2.2189    3.9375 C.ar      1 <0>        -0.0864
     14 C11        -0.1504   -1.8043    4.6805 C.ar      1 <0>        -0.0303
     15 C12        -1.2052   -1.1612    4.0622 C.ar      1 <0>        -0.0979
     16 Cl1        -0.1946   -2.0934    6.3917 Cl        1 <0>        -0.0450
     17 H1         -1.5665    3.2474    2.9285 H         1 <0>         0.0628
     18 H2          0.2035    3.0604    2.9504 H         1 <0>         0.0882
     19 H3         -0.8301    1.8404    3.7325 H         1 <0>         0.0711
     20 H4         -0.7078    2.4319    0.7406 H         1 <0>         0.1049
     21 H5         -0.0073    1.0122    1.5541 H         1 <0>         0.1205
     22 H6         -6.2572    1.2221    0.1080 H         1 <0>         0.4434
     23 H7         -5.2650    2.5461   -0.1839 H         1 <0>         0.4306
     24 H8         -3.0409   -2.5979    2.8599 H         1 <0>         0.4327
     25 H9         -4.6360   -2.5469    2.3349 H         1 <0>         0.4298
     26 H10        -0.0359   -1.1829    0.8793 H         1 <0>         0.1357
     27 H11         1.8370   -2.3179    1.9987 H         1 <0>         0.1456
     28 H12         1.7640   -2.7216    4.4245 H         1 <0>         0.1451
     29 H13        -2.0567   -0.8376    4.6424 H         1 <0>         0.1382
     30 N4         -3.1645    1.6909    0.8721 N.ar      1 <0>        -0.5934
     31 H14        -3.0223    2.6107    0.5064 H         1 <0>         0.4598
@<TRIPOS>BOND
     1    1    2 1
     2    1   17 1
     3    1   18 1
     4    1   19 1
     5    2    3 1
     6    2   20 1
     7    2   21 1
     8    3    4 ar
     9    3   30 ar
    10    4    5 ar
    11    4   10 1
    12    5    6 ar
    13    5    9 1
    14    6    7 ar
    15    7    8 1
    16    7   30 ar
    17    8   22 1
    18    8   23 1
    19    9   24 1
    20    9   25 1
    21   10   15 ar
    22   10   11 ar
    23   11   12 ar
    24   11   26 1
    25   12   13 ar
    26   12   27 1
    27   13   14 ar
    28   13   28 1
    29   14   15 ar
    30   14   16 1
    31   15   29 1
    32   30   31 1
@<TRIPOS>MOLECULE
ZINC13472716
   31    32     0     0     0
SMALL
USER_CHARGES
5-(3-chlorophenyl)-6-ethyl-pyrimidine-2,4-diamine
@<TRIPOS>ATOM
      1 C1         -0.7469    2.5297    2.8923 C.3       1 <0>        -0.1491
      2 C2         -0.8135    1.7452    1.5805 C.3       1 <0>        -0.0958
      3 C3         -2.1401    1.0364    1.4859 C.ar      1 <0>         0.2935
      4 C4         -2.2972   -0.2413    2.0188 C.ar      1 <0>        -0.2345
      5 C5         -3.5558   -0.8602    1.9052 C.ar      1 <0>         0.3737
      6 N1         -4.5396   -0.2065    1.2980 N.ar      1 <0>        -0.5305
      7 C6         -4.3434    1.0078    0.8064 C.ar      1 <0>         0.5857
      8 N2         -5.3931    1.6566    0.1813 N.pl3     1 <0>        -0.7370
      9 N3         -3.7651   -2.1280    2.4177 N.pl3     1 <0>        -0.7653
     10 C7         -1.1680   -0.9305    2.6884 C.ar      1 <0>        -0.0643
     11 C8         -0.0677   -1.3553    1.9449 C.ar      1 <0>        -0.0833
     12 C9          0.9828   -1.9920    2.5736 C.ar      1 <0>        -0.0925
     13 C10         0.9415   -2.2189    3.9375 C.ar      1 <0>        -0.0776
     14 C11        -0.1504   -1.8043    4.6805 C.ar      1 <0>        -0.0304
     15 C12        -1.2052   -1.1612    4.0622 C.ar      1 <0>        -0.0963
     16 Cl1        -0.1946   -2.0934    6.3917 Cl        1 <0>        -0.0394
     17 H1         -1.5665    3.2474    2.9285 H         1 <0>         0.0681
     18 H2          0.2035    3.0604    2.9504 H         1 <0>         0.0888
     19 H3         -0.8301    1.8404    3.7325 H         1 <0>         0.0645
     20 H4         -0.7078    2.4319    0.7406 H         1 <0>         0.1162
     21 H5         -0.0073    1.0122    1.5541 H         1 <0>         0.1112
     22 H6         -6.2572    1.2221    0.1080 H         1 <0>         0.4371
     23 H7         -5.2650    2.5461   -0.1839 H         1 <0>         0.4497
     24 H8         -3.0409   -2.5979    2.8599 H         1 <0>         0.4536
     25 H9         -4.6360   -2.5469    2.3349 H         1 <0>         0.4478
     26 H10        -0.0359   -1.1829    0.8793 H         1 <0>         0.1402
     27 H11         1.8370   -2.3179    1.9987 H         1 <0>         0.1501
     28 H12         1.7640   -2.7216    4.4245 H         1 <0>         0.1487
     29 H13        -2.0567   -0.8376    4.6424 H         1 <0>         0.1405
     30 N4         -3.1645    1.6909    0.8721 N.ar      1 <0>        -0.4917
     31 H14        -3.7940   -0.6844    1.7624 H         1 <0>         0.4182
@<TRIPOS>BOND
     1    1    2 1
     2    1   17 1
     3    1   18 1
     4    1   19 1
     5    2    3 1
     6    2   20 1
     7    2   21 1
     8    3    4 ar
     9    3   30 ar
    10    4    5 ar
    11    4   10 1
    12    5    6 ar
    13    5    9 1
    14    6    7 ar
    15    6   31 1
    16    7    8 1
    17    7   30 ar
    18    8   22 1
    19    8   23 1
    20    9   24 1
    21    9   25 1
    22   10   15 ar
    23   10   11 ar
    24   11   12 ar
    25   11   26 1
    26   12   13 ar
    27   12   27 1
    28   13   14 ar
    29   13   28 1
    30   14   15 ar
    31   14   16 1
    32   15   29 1
@<TRIPOS>MOLECULE
ZINC13472721
   24    25     0     0     0
SMALL
USER_CHARGES
5-(4-chlorophenyl)pyrimidine-2,4-diamine
@<TRIPOS>ATOM
      1 C1         -1.6934   -1.2528   -0.9242 C.ar      1 <0>        -0.1171
      2 C2         -1.7090   -2.6326   -0.9244 C.ar      1 <0>        -0.1012
      3 C3         -2.4840   -3.3185   -0.0049 C.ar      1 <0>        -0.0405
      4 C4         -3.2429   -2.6249    0.9223 C.ar      1 <0>        -0.1007
      5 C5         -3.2301   -1.2452    0.9343 C.ar      1 <0>        -0.1002
      6 C6         -2.4515   -0.5497    0.0107 C.ar      1 <0>        -0.0066
      7 C7         -2.4344    0.9330    0.0187 C.ar      1 <0>        -0.2864
      8 C8         -3.6219    1.6616    0.0287 C.ar      1 <0>         0.2378
      9 N1         -3.5664    2.9836    0.0361 N.ar      1 <0>        -0.6037
     10 C9         -2.4034    3.6192    0.0340 C.ar      1 <0>         0.6079
     11 N2         -1.2494    2.9688    0.0297 N.ar      1 <0>        -0.6272
     12 C10        -1.2185    1.6412    0.0167 C.ar      1 <0>         0.4967
     13 N3         -0.0111    0.9658    0.0074 N.pl3     1 <0>        -0.8317
     14 N4         -2.3944    5.0026    0.0420 N.pl3     1 <0>        -0.8176
     15 Cl1        -2.5040   -5.0544   -0.0143 Cl        1 <0>        -0.0685
     16 H1         -1.0919   -0.7185   -1.6448 H         1 <0>         0.1319
     17 H2         -1.1191   -3.1783   -1.6459 H         1 <0>         0.1357
     18 H3         -3.8461   -3.1647    1.6373 H         1 <0>         0.1362
     19 H4         -3.8227   -0.7050    1.6578 H         1 <0>         0.1343
     20 H5         -4.5752    1.1540    0.0309 H         1 <0>         0.1682
     21 H6          0.0021   -0.0041    0.0020 H         1 <0>         0.4135
     22 H7          0.8223    1.4622    0.0021 H         1 <0>         0.4081
     23 H8         -3.2312    5.4930    0.0490 H         1 <0>         0.4167
     24 H9         -1.5512    5.4821    0.0406 H         1 <0>         0.4144
@<TRIPOS>BOND
     1    1    6 ar
     2    1    2 ar
     3    1   16 1
     4    2    3 ar
     5    2   17 1
     6    3    4 ar
     7    3   15 1
     8    4    5 ar
     9    4   18 1
    10    5    6 ar
    11    5   19 1
    12    6    7 1
    13    7   12 ar
    14    7    8 ar
    15    8    9 ar
    16    8   20 1
    17    9   10 ar
    18   10   11 ar
    19   10   14 1
    20   11   12 ar
    21   12   13 1
    22   13   21 1
    23   13   22 1
    24   14   23 1
    25   14   24 1
@<TRIPOS>MOLECULE
ZINC13472721
   25    26     0     0     0
SMALL
USER_CHARGES
5-(4-chlorophenyl)pyrimidine-2,4-diamine
@<TRIPOS>ATOM
      1 C1         -1.6934   -1.2528   -0.9242 C.ar      1 <0>        -0.1030
      2 C2         -1.7090   -2.6326   -0.9244 C.ar      1 <0>        -0.0980
      3 C3         -2.4840   -3.3185   -0.0049 C.ar      1 <0>        -0.0173
      4 C4         -3.2429   -2.6249    0.9223 C.ar      1 <0>        -0.0991
      5 C5         -3.2301   -1.2452    0.9343 C.ar      1 <0>        -0.0822
      6 C6         -2.4515   -0.5497    0.0107 C.ar      1 <0>        -0.0632
      7 C7         -2.4344    0.9330    0.0187 C.ar      1 <0>        -0.1786
      8 C8         -3.6219    1.6616    0.0287 C.ar      1 <0>         0.2119
      9 C9         -2.4034    3.6192    0.0340 C.ar      1 <0>         0.6692
     10 N1         -1.2494    2.9688    0.0297 N.ar      1 <0>        -0.5658
     11 C10        -1.2185    1.6412    0.0167 C.ar      1 <0>         0.5417
     12 N2         -0.0111    0.9658    0.0074 N.pl3     1 <0>        -0.7713
     13 N3         -2.3944    5.0026    0.0420 N.pl3     1 <0>        -0.7895
     14 Cl1        -2.5040   -5.0544   -0.0143 Cl        1 <0>        -0.0420
     15 H1         -1.0919   -0.7185   -1.6448 H         1 <0>         0.1377
     16 H2         -1.1191   -3.1783   -1.6459 H         1 <0>         0.1475
     17 H3         -3.8461   -3.1647    1.6373 H         1 <0>         0.1471
     18 H4         -3.8227   -0.7050    1.6578 H         1 <0>         0.1399
     19 H5         -4.5752    1.1540    0.0309 H         1 <0>         0.2070
     20 H6          0.0021   -0.0041    0.0020 H         1 <0>         0.4329
     21 H7          0.8223    1.4622    0.0021 H         1 <0>         0.4298
     22 H8         -3.2312    5.4930    0.0490 H         1 <0>         0.4313
     23 H9         -1.5512    5.4821    0.0406 H         1 <0>         0.4434
     24 N4         -3.6304    3.0234    0.0367 N.ar      1 <0>        -0.5935
     25 H10        -4.4996    3.5179    0.0438 H         1 <0>         0.4641
@<TRIPOS>BOND
     1    1    6 ar
     2    1    2 ar
     3    1   15 1
     4    2    3 ar
     5    2   16 1
     6    3    4 ar
     7    3   14 1
     8    4    5 ar
     9    4   17 1
    10    5    6 ar
    11    5   18 1
    12    6    7 1
    13    7   11 ar
    14    7    8 ar
    15    8   19 1
    16    8   24 ar
    17    9   10 ar
    18    9   13 1
    19    9   24 ar
    20   10   11 ar
    21   11   12 1
    22   12   20 1
    23   12   21 1
    24   13   22 1
    25   13   23 1
    26   24   25 1
@<TRIPOS>MOLECULE
ZINC13472721
   25    26     0     0     0
SMALL
USER_CHARGES
5-(4-chlorophenyl)pyrimidine-2,4-diamine
@<TRIPOS>ATOM
      1 C1         -1.6934   -1.2528   -0.9242 C.ar      1 <0>        -0.1031
      2 C2         -1.7090   -2.6326   -0.9244 C.ar      1 <0>        -0.0971
      3 C3         -2.4840   -3.3185   -0.0049 C.ar      1 <0>        -0.0099
      4 C4         -3.2429   -2.6249    0.9223 C.ar      1 <0>        -0.0973
      5 C5         -3.2301   -1.2452    0.9343 C.ar      1 <0>        -0.0701
      6 C6         -2.4515   -0.5497    0.0107 C.ar      1 <0>        -0.0716
      7 C7         -2.4344    0.9330    0.0187 C.ar      1 <0>        -0.2285
      8 C8         -3.6219    1.6616    0.0287 C.ar      1 <0>         0.2619
      9 C9         -2.4034    3.6192    0.0340 C.ar      1 <0>         0.5811
     10 N1         -1.2494    2.9688    0.0297 N.ar      1 <0>        -0.5245
     11 C10        -1.2185    1.6412    0.0167 C.ar      1 <0>         0.3671
     12 N2         -0.0111    0.9658    0.0074 N.pl3     1 <0>        -0.7671
     13 N3         -2.3944    5.0026    0.0420 N.pl3     1 <0>        -0.7356
     14 Cl1        -2.5040   -5.0544   -0.0143 Cl        1 <0>        -0.0353
     15 H1         -1.0919   -0.7185   -1.6448 H         1 <0>         0.1395
     16 H2         -1.1191   -3.1783   -1.6459 H         1 <0>         0.1512
     17 H3         -3.8461   -3.1647    1.6373 H         1 <0>         0.1517
     18 H4         -3.8227   -0.7050    1.6578 H         1 <0>         0.1456
     19 H5         -4.5752    1.1540    0.0309 H         1 <0>         0.2209
     20 H6          0.0021   -0.0041    0.0020 H         1 <0>         0.4531
     21 H7          0.8223    1.4622    0.0021 H         1 <0>         0.4475
     22 H8         -3.2312    5.4930    0.0490 H         1 <0>         0.4504
     23 H9         -1.5512    5.4821    0.0406 H         1 <0>         0.4375
     24 N4         -3.6304    3.0234    0.0367 N.ar      1 <0>        -0.4862
     25 H10        -1.2390    1.9689    0.0315 H         1 <0>         0.4187
@<TRIPOS>BOND
     1    1    6 ar
     2    1    2 ar
     3    1   15 1
     4    2    3 ar
     5    2   16 1
     6    3    4 ar
     7    3   14 1
     8    4    5 ar
     9    4   17 1
    10    5    6 ar
    11    5   18 1
    12    6    7 1
    13    7   11 ar
    14    7    8 ar
    15    8   19 1
    16    8   24 ar
    17    9   10 ar
    18    9   13 1
    19    9   24 ar
    20   10   11 ar
    21   10   25 1
    22   11   12 1
    23   12   20 1
    24   12   21 1
    25   13   22 1
    26   13   23 1
@<TRIPOS>MOLECULE
ZINC13472715
   34    35     0     0     0
SMALL
USER_CHARGES
6-ethyl-5-(4-methoxyphenyl)pyrimidine-2,4-diamine
@<TRIPOS>ATOM
      1 C1         -0.7468    2.5296    2.8926 C.3       1 <0>        -0.1412
      2 C2         -0.8134    1.7451    1.5807 C.3       1 <0>        -0.0780
      3 C3         -2.1400    1.0364    1.4860 C.ar      1 <0>         0.2628
      4 C4         -2.2971   -0.2411    2.0187 C.ar      1 <0>        -0.2746
      5 C5         -3.5558   -0.8599    1.9050 C.ar      1 <0>         0.4934
      6 N1         -4.5394   -0.2062    1.2979 N.ar      1 <0>        -0.6311
      7 C6         -4.3432    1.0081    0.8062 C.ar      1 <0>         0.6077
      8 N2         -3.1724    1.6218    0.9005 N.ar      1 <0>        -0.6035
      9 N3         -5.3932    1.6571    0.1809 N.pl3     1 <0>        -0.8206
     10 N4         -3.7651   -2.1281    2.4176 N.pl3     1 <0>        -0.8310
     11 C7         -1.1676   -0.9309    2.6876 C.ar      1 <0>        -0.0525
     12 C8         -0.0686   -1.3555    1.9424 C.ar      1 <0>        -0.0675
     13 C9          0.9830   -1.9917    2.5685 C.ar      1 <0>        -0.2036
     14 C10         0.9425   -2.2195    3.9372 C.ar      1 <0>         0.1271
     15 C11        -0.1529   -1.8031    4.6811 C.ar      1 <0>        -0.1470
     16 C12        -1.2051   -1.1613    4.0620 C.ar      1 <0>        -0.0749
     17 O1          1.9776   -2.8521    4.5502 O.3       1 <0>        -0.3176
     18 C13         3.0728   -3.2536    3.7248 C.3       1 <0>         0.0263
     19 H1         -1.5663    3.2474    2.9287 H         1 <0>         0.0582
     20 H2          0.2037    3.0601    2.9509 H         1 <0>         0.0642
     21 H3         -0.8303    1.8403    3.7328 H         1 <0>         0.0572
     22 H4         -0.7076    2.4319    0.7409 H         1 <0>         0.0851
     23 H5         -0.0071    1.0121    1.5544 H         1 <0>         0.0859
     24 H6         -6.2573    1.2226    0.1076 H         1 <0>         0.4133
     25 H7         -5.2651    2.5466   -0.1841 H         1 <0>         0.4152
     26 H8         -3.0409   -2.5981    2.8598 H         1 <0>         0.4130
     27 H9         -4.6360   -2.5470    2.3347 H         1 <0>         0.4067
     28 H10        -0.0385   -1.1825    0.8768 H         1 <0>         0.1245
     29 H11         1.8367   -2.3169    1.9925 H         1 <0>         0.1295
     30 H12        -0.1816   -1.9822    5.7458 H         1 <0>         0.1320
     31 H13        -2.0573   -0.8379    4.6412 H         1 <0>         0.1274
     32 H14         3.8283   -3.7454    4.3376 H         1 <0>         0.1010
     33 H15         2.7177   -3.9455    2.9611 H         1 <0>         0.0560
     34 H16         3.5079   -2.3762    3.2463 H         1 <0>         0.0566
@<TRIPOS>BOND
     1    1    2 1
     2    1   19 1
     3    1   20 1
     4    1   21 1
     5    2    3 1
     6    2   22 1
     7    2   23 1
     8    3    8 ar
     9    3    4 ar
    10    4    5 ar
    11    4   11 1
    12    5    6 ar
    13    5   10 1
    14    6    7 ar
    15    7    8 ar
    16    7    9 1
    17    9   24 1
    18    9   25 1
    19   10   26 1
    20   10   27 1
    21   11   16 ar
    22   11   12 ar
    23   12   13 ar
    24   12   28 1
    25   13   14 ar
    26   13   29 1
    27   14   15 ar
    28   14   17 1
    29   15   16 ar
    30   15   30 1
    31   16   31 1
    32   17   18 1
    33   18   32 1
    34   18   33 1
    35   18   34 1
@<TRIPOS>MOLECULE
ZINC13472715
   35    36     0     0     0
SMALL
USER_CHARGES
6-ethyl-5-(4-methoxyphenyl)pyrimidine-2,4-diamine
@<TRIPOS>ATOM
      1 C1         -0.7468    2.5296    2.8926 C.3       1 <0>        -0.1529
      2 C2         -0.8134    1.7451    1.5807 C.3       1 <0>        -0.1098
      3 C3         -2.1400    1.0364    1.4860 C.ar      1 <0>         0.2436
      4 C4         -2.2971   -0.2411    2.0187 C.ar      1 <0>        -0.1743
      5 C5         -3.5558   -0.8599    1.9050 C.ar      1 <0>         0.5405
      6 N1         -4.5394   -0.2062    1.2979 N.ar      1 <0>        -0.5696
      7 C6         -4.3432    1.0081    0.8062 C.ar      1 <0>         0.6711
      8 N2         -5.3932    1.6571    0.1809 N.pl3     1 <0>        -0.7926
      9 N3         -3.7651   -2.1281    2.4176 N.pl3     1 <0>        -0.7707
     10 C7         -1.1676   -0.9309    2.6876 C.ar      1 <0>        -0.1138
     11 C8         -0.0686   -1.3555    1.9424 C.ar      1 <0>        -0.0516
     12 C9          0.9830   -1.9917    2.5685 C.ar      1 <0>        -0.2041
     13 C10         0.9425   -2.2195    3.9372 C.ar      1 <0>         0.1577
     14 C11        -0.1529   -1.8031    4.6811 C.ar      1 <0>        -0.1453
     15 C12        -1.2051   -1.1613    4.0620 C.ar      1 <0>        -0.0603
     16 O1          1.9776   -2.8521    4.5502 O.3       1 <0>        -0.3089
     17 C13         3.0728   -3.2536    3.7248 C.3       1 <0>         0.0218
     18 H1         -1.5663    3.2474    2.9287 H         1 <0>         0.0615
     19 H2          0.2037    3.0601    2.9509 H         1 <0>         0.0862
     20 H3         -0.8303    1.8403    3.7328 H         1 <0>         0.0720
     21 H4         -0.7076    2.4319    0.7409 H         1 <0>         0.1020
     22 H5         -0.0071    1.0121    1.5544 H         1 <0>         0.1193
     23 H6         -6.2573    1.2226    0.1076 H         1 <0>         0.4427
     24 H7         -5.2651    2.5466   -0.1841 H         1 <0>         0.4299
     25 H8         -3.0409   -2.5981    2.8598 H         1 <0>         0.4332
     26 H9         -4.6360   -2.5470    2.3347 H         1 <0>         0.4283
     27 H10        -0.0385   -1.1825    0.8768 H         1 <0>         0.1305
     28 H11         1.8367   -2.3169    1.9925 H         1 <0>         0.1398
     29 H12        -0.1816   -1.9822    5.7458 H         1 <0>         0.1430
     30 H13        -2.0573   -0.8379    4.6412 H         1 <0>         0.1340
     31 H14         3.8283   -3.7454    4.3376 H         1 <0>         0.1093
     32 H15         2.7177   -3.9455    2.9611 H         1 <0>         0.0613
     33 H16         3.5079   -2.3762    3.2463 H         1 <0>         0.0614
     34 N4         -3.1645    1.6911    0.8721 N.ar      1 <0>        -0.5936
     35 H17        -3.0223    2.6110    0.5066 H         1 <0>         0.4584
@<TRIPOS>BOND
     1    1    2 1
     2    1   18 1
     3    1   19 1
     4    1   20 1
     5    2    3 1
     6    2   21 1
     7    2   22 1
     8    3    4 ar
     9    3   34 ar
    10    4    5 ar
    11    4   10 1
    12    5    6 ar
    13    5    9 1
    14    6    7 ar
    15    7    8 1
    16    7   34 ar
    17    8   23 1
    18    8   24 1
    19    9   25 1
    20    9   26 1
    21   10   15 ar
    22   10   11 ar
    23   11   12 ar
    24   11   27 1
    25   12   13 ar
    26   12   28 1
    27   13   14 ar
    28   13   16 1
    29   14   15 ar
    30   14   29 1
    31   15   30 1
    32   16   17 1
    33   17   31 1
    34   17   32 1
    35   17   33 1
    36   34   35 1
@<TRIPOS>MOLECULE
ZINC13472715
   35    36     0     0     0
SMALL
USER_CHARGES
6-ethyl-5-(4-methoxyphenyl)pyrimidine-2,4-diamine
@<TRIPOS>ATOM
      1 C1         -0.7468    2.5296    2.8926 C.3       1 <0>        -0.1482
      2 C2         -0.8134    1.7451    1.5807 C.3       1 <0>        -0.0940
      3 C3         -2.1400    1.0364    1.4860 C.ar      1 <0>         0.2888
      4 C4         -2.2971   -0.2411    2.0187 C.ar      1 <0>        -0.2189
      5 C5         -3.5558   -0.8599    1.9050 C.ar      1 <0>         0.3642
      6 N1         -4.5394   -0.2062    1.2979 N.ar      1 <0>        -0.5330
      7 C6         -4.3432    1.0081    0.8062 C.ar      1 <0>         0.5841
      8 N2         -5.3932    1.6571    0.1809 N.pl3     1 <0>        -0.7403
      9 N3         -3.7651   -2.1281    2.4176 N.pl3     1 <0>        -0.7674
     10 C7         -1.1676   -0.9309    2.6876 C.ar      1 <0>        -0.1256
     11 C8         -0.0686   -1.3555    1.9424 C.ar      1 <0>        -0.0405
     12 C9          0.9830   -1.9917    2.5685 C.ar      1 <0>        -0.2034
     13 C10         0.9425   -2.2195    3.9372 C.ar      1 <0>         0.1672
     14 C11        -0.1529   -1.8031    4.6811 C.ar      1 <0>        -0.1442
     15 C12        -1.2051   -1.1613    4.0620 C.ar      1 <0>        -0.0575
     16 O1          1.9776   -2.8521    4.5502 O.3       1 <0>        -0.3061
     17 C13         3.0728   -3.2536    3.7248 C.3       1 <0>         0.0201
     18 H1         -1.5663    3.2474    2.9287 H         1 <0>         0.0671
     19 H2          0.2037    3.0601    2.9509 H         1 <0>         0.0871
     20 H3         -0.8303    1.8403    3.7328 H         1 <0>         0.0655
     21 H4         -0.7076    2.4319    0.7409 H         1 <0>         0.1138
     22 H5         -0.0071    1.0121    1.5544 H         1 <0>         0.1104
     23 H6         -6.2573    1.2226    0.1076 H         1 <0>         0.4362
     24 H7         -5.2651    2.5466   -0.1841 H         1 <0>         0.4487
     25 H8         -3.0409   -2.5981    2.8598 H         1 <0>         0.4537
     26 H9         -4.6360   -2.5470    2.3347 H         1 <0>         0.4460
     27 H10        -0.0385   -1.1825    0.8768 H         1 <0>         0.1351
     28 H11         1.8367   -2.3169    1.9925 H         1 <0>         0.1441
     29 H12        -0.1816   -1.9822    5.7458 H         1 <0>         0.1469
     30 H13        -2.0573   -0.8379    4.6412 H         1 <0>         0.1365
     31 H14         3.8283   -3.7454    4.3376 H         1 <0>         0.1110
     32 H15         2.7177   -3.9455    2.9611 H         1 <0>         0.0627
     33 H16         3.5079   -2.3762    3.2463 H         1 <0>         0.0635
     34 N4         -3.1645    1.6911    0.8721 N.ar      1 <0>        -0.4933
     35 H17        -3.7939   -0.6839    1.7627 H         1 <0>         0.4198
@<TRIPOS>BOND
     1    1    2 1
     2    1   18 1
     3    1   19 1
     4    1   20 1
     5    2    3 1
     6    2   21 1
     7    2   22 1
     8    3    4 ar
     9    3   34 ar
    10    4    5 ar
    11    4   10 1
    12    5    6 ar
    13    5    9 1
    14    6    7 ar
    15    6   35 1
    16    7    8 1
    17    7   34 ar
    18    8   23 1
    19    8   24 1
    20    9   25 1
    21    9   26 1
    22   10   15 ar
    23   10   11 ar
    24   11   12 ar
    25   11   27 1
    26   12   13 ar
    27   12   28 1
    28   13   14 ar
    29   13   16 1
    30   14   15 ar
    31   14   29 1
    32   15   30 1
    33   16   17 1
    34   17   31 1
    35   17   32 1
    36   17   33 1
@<TRIPOS>MOLECULE
ZINC13858385
   38    39     0     0     0
SMALL
USER_CHARGES

@<TRIPOS>ATOM
      1 C1         -0.0242    1.4607   -0.0336 C.3       1 <0>         0.0894
      2 N1         -0.0026   -0.0041   -0.0300 N.pl3     1 <0>        -0.6867
      3 C2         -1.1597   -0.6951   -0.0146 C.2       1 <0>         0.5613
      4 N2         -1.1399   -2.0427   -0.0114 N.pl3     1 <0>        -0.4715
      5 N3          0.0835   -2.7253   -0.0240 N.am      1 <0>        -0.5367
      6 C3          0.1034   -4.0729   -0.0208 C.2       1 <0>         0.5877
      7 O1         -0.9357   -4.6962    0.0872 O.2       1 <0>        -0.5310
      8 C4          1.3813   -4.7899   -0.1479 C.2       1 <0>        -0.2824
      9 C5          1.4067   -6.1780   -0.2670 C.2       1 <0>         0.0824
     10 C6          2.6375   -6.8232   -0.3855 C.2       1 <0>        -0.2365
     11 C7          3.7878   -6.1022   -0.3839 C.2       1 <0>         0.1737
     12 N4          3.7707   -4.7529   -0.2685 N.am      1 <0>        -0.4811
     13 C8          2.6097   -4.0799   -0.1573 C.2       1 <0>         0.5393
     14 O2          2.6143   -2.8649   -0.0596 O.2       1 <0>        -0.5545
     15 C9          5.0352   -4.0132   -0.2713 C.3       1 <0>         0.1292
     16 C10         5.3956   -3.6396   -1.6861 C.ar      1 <0>        -0.1132
     17 C11         6.1576   -4.4994   -2.4553 C.ar      1 <0>        -0.0983
     18 C12         6.4885   -4.1575   -3.7530 C.ar      1 <0>        -0.1070
     19 C13         6.0581   -2.9552   -4.2824 C.ar      1 <0>        -0.0966
     20 C14         5.2957   -2.0946   -3.5133 C.ar      1 <0>        -0.0376
     21 C15         4.9596   -2.4402   -2.2163 C.ar      1 <0>        -0.0819
     22 Cl1         4.7547   -0.5846   -4.1775 Cl        1 <0>        -0.0598
     23 S1         -2.6546    0.1391    0.0008 S.2       1 <0>        -0.6006
     24 H1          0.9980    1.8391   -0.0466 H         1 <0>         0.0837
     25 H2         -0.5537    1.8142   -0.9183 H         1 <0>         0.0832
     26 H3         -0.5328    1.8187    0.8615 H         1 <0>         0.0833
     27 H4         -1.9726   -2.5400   -0.0003 H         1 <0>         0.4563
     28 H5          0.9163   -2.2280   -0.0351 H         1 <0>         0.4321
     29 H6          0.4877   -6.7453   -0.2671 H         1 <0>         0.1572
     30 H7          2.6756   -7.8985   -0.4783 H         1 <0>         0.1635
     31 H8          4.7342   -6.6142   -0.4760 H         1 <0>         0.1750
     32 H9          4.9283   -3.1086    0.3274 H         1 <0>         0.1185
     33 H10         5.8224   -4.6376    0.1513 H         1 <0>         0.1128
     34 H11         6.4947   -5.4385   -2.0419 H         1 <0>         0.1315
     35 H12         7.0837   -4.8295   -4.3533 H         1 <0>         0.1381
     36 H13         6.3173   -2.6878   -5.2962 H         1 <0>         0.1378
     37 H14         4.3606   -1.7706   -1.6168 H         1 <0>         0.1417
     38 H15         0.8444   -0.4767   -0.0388 H         1 <0>         0.3978
@<TRIPOS>BOND
     1    1    2 1
     2    1   24 1
     3    1   25 1
     4    1   26 1
     5    2    3 1
     6    2   38 1
     7    3    4 1
     8    3   23 2
     9    4    5 1
    10    4   27 1
    11    5    6 am
    12    5   28 1
    13    6    7 2
    14    6    8 1
    15    8   13 1
    16    8    9 2
    17    9   10 1
    18    9   29 1
    19   10   11 2
    20   10   30 1
    21   11   12 1
    22   11   31 1
    23   12   13 am
    24   12   15 1
    25   13   14 2
    26   15   16 1
    27   15   32 1
    28   15   33 1
    29   16   21 ar
    30   16   17 ar
    31   17   18 ar
    32   17   34 1
    33   18   19 ar
    34   18   35 1
    35   19   20 ar
    36   19   36 1
    37   20   21 ar
    38   20   22 1
    39   21   37 1
@<TRIPOS>MOLECULE
ZINC03157274
   37    38     0     0     0
SMALL
USER_CHARGES
5-[(4-propoxyphenyl)methyl]pyrimidine-2,4-diamine
@<TRIPOS>ATOM
      1 C1          3.7145   -4.8608   -0.0606 C.3       1 <0>        -0.1507
      2 C2          2.3407   -4.1875   -0.0438 C.3       1 <0>        -0.1242
      3 C3          2.5176   -2.6678   -0.0368 C.3       1 <0>         0.0586
      4 O1          1.2345   -2.0389   -0.0212 O.3       1 <0>        -0.3164
      5 C4          1.2134   -0.6801   -0.0132 C.ar      1 <0>         0.1272
      6 C5          0.0021   -0.0041    0.0020 C.ar      1 <0>        -0.1477
      7 C6         -0.0167    1.3772    0.0096 C.ar      1 <0>        -0.0724
      8 C7          1.1705    2.0859    0.0021 C.ar      1 <0>        -0.1158
      9 C8          2.3791    1.4145   -0.0132 C.ar      1 <0>        -0.0778
     10 C9          2.4032    0.0333   -0.0208 C.ar      1 <0>        -0.2049
     11 C10         1.1472    3.5927    0.0100 C.3       1 <0>        -0.0109
     12 C11         1.1527    4.0878    1.4333 C.ar      1 <0>        -0.3053
     13 C12        -0.0289    4.3991    2.0774 C.ar      1 <0>         0.2218
     14 N1          0.0097    4.8315    3.3292 N.ar      1 <0>        -0.6051
     15 C13         1.1628    4.9681    3.9673 C.ar      1 <0>         0.6008
     16 N2          2.3173    4.6800    3.3856 N.ar      1 <0>        -0.6276
     17 C14         2.3520    4.2367    2.1329 C.ar      1 <0>         0.4864
     18 N3          3.5607    3.9314    1.5287 N.pl3     1 <0>        -0.8363
     19 N4          1.1609    5.4228    5.2744 N.pl3     1 <0>        -0.8221
     20 H1          4.2752   -4.5644    0.8259 H         1 <0>         0.0576
     21 H2          3.5884   -5.9435   -0.0656 H         1 <0>         0.0659
     22 H3          4.2585   -4.5542   -0.9540 H         1 <0>         0.0579
     23 H4          1.7967   -4.4941    0.8496 H         1 <0>         0.0738
     24 H5          1.7799   -4.4839   -0.9303 H         1 <0>         0.0742
     25 H6          3.0616   -2.3612   -0.9302 H         1 <0>         0.0621
     26 H7          3.0783   -2.3714    0.8496 H         1 <0>         0.0612
     27 H8         -0.9255   -0.5572    0.0076 H         1 <0>         0.1310
     28 H9         -0.9594    1.9040    0.0169 H         1 <0>         0.1303
     29 H10         3.3051    1.9703   -0.0194 H         1 <0>         0.1172
     30 H11         3.3475   -0.4907   -0.0323 H         1 <0>         0.1263
     31 H12         2.0265    3.9725   -0.5102 H         1 <0>         0.0724
     32 H13         0.2469    3.9448   -0.4937 H         1 <0>         0.0859
     33 H14        -0.9741    4.2909    1.5663 H         1 <0>         0.1638
     34 H15         3.5781    3.6116    0.6131 H         1 <0>         0.4090
     35 H16         4.3896    4.0374    2.0212 H         1 <0>         0.4059
     36 H17         0.3222    5.6370    5.7122 H         1 <0>         0.4152
     37 H18         1.9982    5.5272    5.7528 H         1 <0>         0.4127
@<TRIPOS>BOND
     1    1    2 1
     2    1   20 1
     3    1   21 1
     4    1   22 1
     5    2    3 1
     6    2   23 1
     7    2   24 1
     8    3    4 1
     9    3   25 1
    10    3   26 1
    11    4    5 1
    12    5   10 ar
    13    5    6 ar
    14    6    7 ar
    15    6   27 1
    16    7    8 ar
    17    7   28 1
    18    8    9 ar
    19    8   11 1
    20    9   10 ar
    21    9   29 1
    22   10   30 1
    23   11   12 1
    24   11   31 1
    25   11   32 1
    26   12   17 ar
    27   12   13 ar
    28   13   14 ar
    29   13   33 1
    30   14   15 ar
    31   15   16 ar
    32   15   19 1
    33   16   17 ar
    34   17   18 1
    35   18   34 1
    36   18   35 1
    37   19   36 1
    38   19   37 1
@<TRIPOS>MOLECULE
ZINC03157274
   38    39     0     0     0
SMALL
USER_CHARGES
5-[(4-propoxyphenyl)methyl]pyrimidine-2,4-diamine
@<TRIPOS>ATOM
      1 C1          3.7145   -4.8608   -0.0606 C.3       1 <0>        -0.1520
      2 C2          2.3407   -4.1875   -0.0438 C.3       1 <0>        -0.1252
      3 C3          2.5176   -2.6678   -0.0368 C.3       1 <0>         0.0573
      4 O1          1.2345   -2.0389   -0.0212 O.3       1 <0>        -0.3114
      5 C4          1.2134   -0.6801   -0.0132 C.ar      1 <0>         0.1459
      6 C5          0.0021   -0.0041    0.0020 C.ar      1 <0>        -0.1465
      7 C6         -0.0167    1.3772    0.0096 C.ar      1 <0>        -0.0684
      8 C7          1.1705    2.0859    0.0021 C.ar      1 <0>        -0.1463
      9 C8          2.3791    1.4145   -0.0132 C.ar      1 <0>        -0.0750
     10 C9          2.4032    0.0333   -0.0208 C.ar      1 <0>        -0.2034
     11 C10         1.1472    3.5927    0.0100 C.3       1 <0>        -0.0224
     12 C11         1.1527    4.0878    1.4333 C.ar      1 <0>        -0.2168
     13 C12        -0.0289    4.3991    2.0774 C.ar      1 <0>         0.2027
     14 C13         1.1628    4.9681    3.9673 C.ar      1 <0>         0.6677
     15 N1          2.3173    4.6800    3.3856 N.ar      1 <0>        -0.5677
     16 C14         2.3520    4.2367    2.1329 C.ar      1 <0>         0.5386
     17 N2          3.5607    3.9314    1.5287 N.pl3     1 <0>        -0.7767
     18 N3          1.1609    5.4228    5.2744 N.pl3     1 <0>        -0.7925
     19 H1          4.2752   -4.5644    0.8259 H         1 <0>         0.0578
     20 H2          3.5884   -5.9435   -0.0656 H         1 <0>         0.0692
     21 H3          4.2585   -4.5542   -0.9540 H         1 <0>         0.0591
     22 H4          1.7967   -4.4941    0.8496 H         1 <0>         0.0752
     23 H5          1.7799   -4.4839   -0.9303 H         1 <0>         0.0766
     24 H6          3.0616   -2.3612   -0.9302 H         1 <0>         0.0659
     25 H7          3.0783   -2.3714    0.8496 H         1 <0>         0.0635
     26 H8         -0.9255   -0.5572    0.0076 H         1 <0>         0.1372
     27 H9         -0.9594    1.9040    0.0169 H         1 <0>         0.1320
     28 H10         3.3051    1.9703   -0.0194 H         1 <0>         0.1167
     29 H11         3.3475   -0.4907   -0.0323 H         1 <0>         0.1332
     30 H12         2.0265    3.9725   -0.5102 H         1 <0>         0.0947
     31 H13         0.2469    3.9448   -0.4937 H         1 <0>         0.1080
     32 H14        -0.9741    4.2909    1.5663 H         1 <0>         0.2050
     33 H15         3.5781    3.6116    0.6131 H         1 <0>         0.4291
     34 H16         4.3896    4.0374    2.0212 H         1 <0>         0.4285
     35 H17         0.3222    5.6370    5.7122 H         1 <0>         0.4305
     36 H18         1.9982    5.5272    5.7528 H         1 <0>         0.4424
     37 N4         -0.0539    4.8484    3.3642 N.ar      1 <0>        -0.5950
     38 H19        -0.9269    5.0649    3.8013 H         1 <0>         0.4622
@<TRIPOS>BOND
     1    1    2 1
     2    1   19 1
     3    1   20 1
     4    1   21 1
     5    2    3 1
     6    2   22 1
     7    2   23 1
     8    3    4 1
     9    3   24 1
    10    3   25 1
    11    4    5 1
    12    5   10 ar
    13    5    6 ar
    14    6    7 ar
    15    6   26 1
    16    7    8 ar
    17    7   27 1
    18    8    9 ar
    19    8   11 1
    20    9   10 ar
    21    9   28 1
    22   10   29 1
    23   11   12 1
    24   11   30 1
    25   11   31 1
    26   12   16 ar
    27   12   13 ar
    28   13   32 1
    29   13   37 ar
    30   14   15 ar
    31   14   18 1
    32   14   37 ar
    33   15   16 ar
    34   16   17 1
    35   17   33 1
    36   17   34 1
    37   18   35 1
    38   18   36 1
    39   37   38 1
@<TRIPOS>MOLECULE
ZINC00057464
   31    32     0     0     0
SMALL
USER_CHARGES

@<TRIPOS>ATOM
      1 C1          0.8938   -1.6695   -0.2826 C.3       1 <0>        -0.1541
      2 C2          0.1058   -0.3830   -0.0280 C.3       1 <0>        -0.1059
      3 C3         -1.3705   -0.6715   -0.1204 C.ar      1 <0>         0.2540
      4 C4         -2.0171   -0.6541   -1.3543 C.ar      1 <0>        -0.1905
      5 C5         -3.3964   -0.9306   -1.3874 C.ar      1 <0>         0.5400
      6 N1         -4.0249   -1.1960   -0.2480 N.ar      1 <0>        -0.5746
      7 C6         -3.3681   -1.2013    0.9023 C.ar      1 <0>         0.6664
      8 N2         -2.0684   -0.9502    0.9687 N.ar      1 <0>        -0.5689
      9 N3         -4.0580   -1.4823    2.0680 N.pl3     1 <0>        -0.7902
     10 N4         -4.0862   -0.9256   -2.5867 N.pl3     1 <0>        -0.7725
     11 C7         -1.2715   -0.3515   -2.5998 C.ar      1 <0>        -0.0664
     12 C8         -0.7740    0.9313   -2.8230 C.ar      1 <0>        -0.0833
     13 C9         -0.0805    1.2075   -3.9835 C.ar      1 <0>        -0.1019
     14 C10         0.1212    0.2132   -4.9255 C.ar      1 <0>        -0.0159
     15 C11        -0.3708   -1.0625   -4.7087 C.ar      1 <0>        -0.1017
     16 C12        -1.0607   -1.3505   -3.5489 C.ar      1 <0>        -0.0895
     17 Cl1         0.9936    0.5676   -6.3840 Cl        1 <0>        -0.0435
     18 H1          1.9579   -1.4768   -0.1461 H         1 <0>         0.0889
     19 H2          0.5708   -2.4384    0.4193 H         1 <0>         0.0627
     20 H3          0.7140   -2.0099   -1.3023 H         1 <0>         0.0723
     21 H4          0.3403   -0.0041    0.9668 H         1 <0>         0.1048
     22 H5          0.3775    0.3633   -0.7745 H         1 <0>         0.1224
     23 H6         -5.0088   -1.6717    2.0352 H         1 <0>         0.4457
     24 H7         -3.5910   -1.4900    2.9181 H         1 <0>         0.4308
     25 H8         -3.6191   -0.7304   -3.4141 H         1 <0>         0.4323
     26 H9         -5.0370   -1.1173   -2.6001 H         1 <0>         0.4292
     27 H10        -0.9315    1.7078   -2.0891 H         1 <0>         0.1381
     28 H11         0.3054    2.2011   -4.1575 H         1 <0>         0.1461
     29 H12        -0.2111   -1.8346   -5.4468 H         1 <0>         0.1460
     30 H13        -1.4406   -2.3471   -3.3788 H         1 <0>         0.1372
     31 H14        -1.6224   -0.9677    1.8299 H         1 <0>         0.4421
@<TRIPOS>BOND
     1    1    2 1
     2    1   18 1
     3    1   19 1
     4    1   20 1
     5    2    3 1
     6    2   21 1
     7    2   22 1
     8    3    8 ar
     9    3    4 ar
    10    4    5 ar
    11    4   11 1
    12    5    6 ar
    13    5   10 1
    14    6    7 ar
    15    7    8 ar
    16    7    9 1
    17    8   31 1
    18    9   23 1
    19    9   24 1
    20   10   25 1
    21   10   26 1
    22   11   16 ar
    23   11   12 ar
    24   12   13 ar
    25   12   27 1
    26   13   14 ar
    27   13   28 1
    28   14   15 ar
    29   14   17 1
    30   15   16 ar
    31   15   29 1
    32   16   30 1
@<TRIPOS>MOLECULE
ZINC00057464
   30    31     0     0     0
SMALL
USER_CHARGES

@<TRIPOS>ATOM
      1 C1         -0.0187    1.5258    0.0104 C.3       1 <0>        -0.1415
      2 C2          0.0021   -0.0041    0.0020 C.3       1 <0>        -0.0814
      3 C3          0.7309   -0.5033    1.2229 C.ar      1 <0>         0.2684
      4 C4          2.1076   -0.7142    1.1859 C.ar      1 <0>        -0.2868
      5 C5          2.7415   -1.1805    2.3524 C.ar      1 <0>         0.4973
      6 N1          2.0075   -1.4004    3.4372 N.ar      1 <0>        -0.6305
      7 C6          0.7005   -1.1855    3.4254 C.ar      1 <0>         0.6107
      8 N2          0.0727   -0.7418    2.3457 N.ar      1 <0>        -0.6025
      9 N3         -0.0299   -1.4263    4.5753 N.pl3     1 <0>        -0.8186
     10 N4          4.1063   -1.4066    2.3689 N.pl3     1 <0>        -0.8307
     11 C7          2.8842   -0.4545   -0.0502 C.ar      1 <0>        -0.0061
     12 C8          2.6528   -1.2161   -1.1945 C.ar      1 <0>        -0.0980
     13 C9          3.3779   -0.9701   -2.3425 C.ar      1 <0>        -0.1043
     14 C10         4.3342    0.0308   -2.3589 C.ar      1 <0>        -0.0374
     15 C11         4.5679    0.7901   -1.2251 C.ar      1 <0>        -0.1042
     16 C12         3.8442    0.5559   -0.0737 C.ar      1 <0>        -0.1060
     17 Cl1         5.2438    0.3344   -3.8059 Cl        1 <0>        -0.0689
     18 H1          1.0039    1.9031    0.0027 H         1 <0>         0.0561
     19 H2         -0.5459    1.8868   -0.8726 H         1 <0>         0.0657
     20 H3         -0.5289    1.8773    0.9072 H         1 <0>         0.0593
     21 H4         -1.0205   -0.3814    0.0098 H         1 <0>         0.0875
     22 H5          0.5123   -0.3556   -0.8948 H         1 <0>         0.0875
     23 H6          0.4159   -1.7477    5.3746 H         1 <0>         0.4141
     24 H7         -0.9878   -1.2737    4.5823 H         1 <0>         0.4160
     25 H8          4.6346   -1.2437    1.5719 H         1 <0>         0.4128
     26 H9          4.5349   -1.7282    3.1775 H         1 <0>         0.4080
     27 H10         1.9075   -1.9977   -1.1826 H         1 <0>         0.1325
     28 H11         3.1993   -1.5597   -3.2296 H         1 <0>         0.1355
     29 H12         5.3153    1.5695   -1.2429 H         1 <0>         0.1350
     30 H13         4.0244    1.1515    0.8090 H         1 <0>         0.1304
@<TRIPOS>BOND
     1    1    2 1
     2    1   18 1
     3    1   19 1
     4    1   20 1
     5    2    3 1
     6    2   21 1
     7    2   22 1
     8    3    8 ar
     9    3    4 ar
    10    4    5 ar
    11    4   11 1
    12    5    6 ar
    13    5   10 1
    14    6    7 ar
    15    7    8 ar
    16    7    9 1
    17    9   23 1
    18    9   24 1
    19   10   25 1
    20   10   26 1
    21   11   16 ar
    22   11   12 ar
    23   12   13 ar
    24   12   27 1
    25   13   14 ar
    26   13   28 1
    27   14   15 ar
    28   14   17 1
    29   15   16 ar
    30   15   29 1
    31   16   30 1
@<TRIPOS>MOLECULE
ZINC04394823
   28    29     0     0     0
SMALL
USER_CHARGES

@<TRIPOS>ATOM
      1 C1          0.0050    1.3785    0.0266 C.ar      1 <0>        -0.0551
      2 C2          1.1960    2.0709   -0.0095 C.ar      1 <0>        -0.1406
      3 C3          2.3991    1.3825   -0.1011 C.ar      1 <0>         0.1407
      4 C4          2.4064   -0.0056   -0.1560 C.ar      1 <0>        -0.1950
      5 C5          1.2191   -0.7045   -0.1204 C.ar      1 <0>        -0.0249
      6 C6          0.0086   -0.0160   -0.0285 C.ar      1 <0>        -0.1270
      7 C7         -1.2679   -0.7628    0.0106 C.2       1 <0>         0.4204
      8 N1         -1.2979   -1.9758    0.4806 N.2       1 <0>        -0.4233
      9 O1         -0.1418   -2.5316    1.0804 O.3       1 <0>        -0.4056
     10 N2         -2.4307   -0.1710   -0.4532 N.pl3     1 <0>        -0.8316
     11 O2          3.5708    2.0680   -0.1373 O.3       1 <0>        -0.2377
     12 C8          4.7234    1.3559   -0.2271 C.ar      1 <0>         0.1461
     13 C9          5.3911    0.9296    0.9192 C.ar      1 <0>        -0.0940
     14 C10         6.5604    0.2072    0.7854 C.ar      1 <0>         0.1325
     15 N3          7.0455   -0.0793   -0.4079 N.ar      1 <0>        -0.4469
     16 C11         6.4426    0.3065   -1.5164 C.ar      1 <0>         0.1324
     17 C12         5.2659    1.0277   -1.4678 C.ar      1 <0>        -0.0942
     18 Cl1         4.4768    1.5240   -2.9323 Cl        1 <0>        -0.0167
     19 Cl2         4.7621    1.3020    2.4938 Cl        1 <0>        -0.0156
     20 H1         -0.9297    1.9142    0.1019 H         1 <0>         0.1377
     21 H2          1.1940    3.1501    0.0330 H         1 <0>         0.1416
     22 H3          3.3435   -0.5377   -0.2272 H         1 <0>         0.1252
     23 H4          1.2254   -1.7836   -0.1639 H         1 <0>         0.1481
     24 H5         -0.2607   -3.4366    1.3994 H         1 <0>         0.3968
     25 H6         -2.4083    0.7332   -0.8036 H         1 <0>         0.4120
     26 H7         -3.2677   -0.6606   -0.4276 H         1 <0>         0.4089
     27 H8          7.0845   -0.1273    1.6684 H         1 <0>         0.1830
     28 H9          6.8728    0.0519   -2.4737 H         1 <0>         0.1829
@<TRIPOS>BOND
     1    1    6 ar
     2    1    2 ar
     3    1   20 1
     4    2    3 ar
     5    2   21 1
     6    3    4 ar
     7    3   11 1
     8    4    5 ar
     9    4   22 1
    10    5    6 ar
    11    5   23 1
    12    6    7 1
    13    7    8 2
    14    7   10 1
    15    8    9 1
    16    9   24 1
    17   10   25 1
    18   10   26 1
    19   11   12 1
    20   12   17 ar
    21   12   13 ar
    22   13   14 ar
    23   13   19 1
    24   14   15 ar
    25   14   27 1
    26   15   16 ar
    27   16   17 ar
    28   16   28 1
    29   17   18 1
@<TRIPOS>MOLECULE
ZINC05974561
   41    43     0     0     0
SMALL
USER_CHARGES
5-[(4-benzyloxyphenyl)methyl]pyrimidine-2,4-diamine
@<TRIPOS>ATOM
      1 C1         -0.0167    1.3781    0.0096 C.ar      1 <0>        -0.1087
      2 C2          1.1709    2.0855    0.0021 C.ar      1 <0>        -0.1228
      3 C3          2.3773    1.4107   -0.0141 C.ar      1 <0>        -0.0955
      4 C4          2.3960    0.0285   -0.0217 C.ar      1 <0>        -0.0990
      5 C5          1.2084   -0.6789   -0.0136 C.ar      1 <0>        -0.0952
      6 C6          0.0021   -0.0041    0.0020 C.ar      1 <0>        -0.1229
      7 C7          3.7112   -0.7071   -0.0392 C.3       1 <0>         0.1028
      8 O1          4.1132   -0.9320   -1.3920 O.3       1 <0>        -0.3088
      9 C8          5.2871   -1.5886   -1.5857 C.ar      1 <0>         0.1265
     10 C9          6.0395   -2.0030   -0.4963 C.ar      1 <0>        -0.2052
     11 C10         7.2294   -2.6758   -0.6959 C.ar      1 <0>        -0.0774
     12 C11         7.6768   -2.9255   -1.9801 C.ar      1 <0>        -0.1153
     13 C12         6.9315   -2.5085   -3.0676 C.ar      1 <0>        -0.0721
     14 C13         5.7379   -1.8408   -2.8733 C.ar      1 <0>        -0.1463
     15 C14         8.9785   -3.6537   -2.1950 C.3       1 <0>        -0.0110
     16 C15        10.1061   -2.6565   -2.2666 C.ar      1 <0>        -0.3053
     17 C16        10.5549   -2.1839   -3.4844 C.ar      1 <0>         0.2218
     18 N1         11.5479   -1.3073   -3.5136 N.ar      1 <0>        -0.6050
     19 C17        12.1127   -0.8806   -2.3935 C.ar      1 <0>         0.6009
     20 N2         11.7115   -1.3086   -1.2062 N.ar      1 <0>        -0.6276
     21 C18        10.7171   -2.1847   -1.1029 C.ar      1 <0>         0.4865
     22 N3         10.2963   -2.6268    0.1407 N.pl3     1 <0>        -0.8362
     23 N4         13.1474    0.0356   -2.4663 N.pl3     1 <0>        -0.8221
     24 H1         -0.9592    1.9054    0.0170 H         1 <0>         0.1252
     25 H2          1.1563    3.1654    0.0081 H         1 <0>         0.1260
     26 H3          3.3051    1.9634   -0.0207 H         1 <0>         0.1238
     27 H4          1.2231   -1.7587   -0.0199 H         1 <0>         0.1243
     28 H5         -0.9258   -0.5567    0.0079 H         1 <0>         0.1262
     29 H6          4.4679   -0.1107    0.4703 H         1 <0>         0.0707
     30 H7          3.5990   -1.6641    0.4703 H         1 <0>         0.0716
     31 H8          5.6929   -1.8039    0.5070 H         1 <0>         0.1267
     32 H9          7.8130   -3.0031    0.1519 H         1 <0>         0.1174
     33 H10         7.2831   -2.7048   -4.0697 H         1 <0>         0.1303
     34 H11         5.1560   -1.5157   -3.7230 H         1 <0>         0.1310
     35 H12         9.1522   -4.3396   -1.3659 H         1 <0>         0.0725
     36 H13         8.9308   -4.2157   -3.1277 H         1 <0>         0.0859
     37 H14        10.1010   -2.5252   -4.4031 H         1 <0>         0.1637
     38 H15         9.5722   -3.2688    0.2077 H         1 <0>         0.4090
     39 H16        10.7257   -2.2944    0.9445 H         1 <0>         0.4059
     40 H17        13.4506    0.3573   -3.3297 H         1 <0>         0.4151
     41 H18        13.5695    0.3560   -1.6538 H         1 <0>         0.4127
@<TRIPOS>BOND
     1    1    6 ar
     2    1    2 ar
     3    1   24 1
     4    2    3 ar
     5    2   25 1
     6    3    4 ar
     7    3   26 1
     8    4    5 ar
     9    4    7 1
    10    5    6 ar
    11    5   27 1
    12    6   28 1
    13    7    8 1
    14    7   29 1
    15    7   30 1
    16    8    9 1
    17    9   14 ar
    18    9   10 ar
    19   10   11 ar
    20   10   31 1
    21   11   12 ar
    22   11   32 1
    23   12   13 ar
    24   12   15 1
    25   13   14 ar
    26   13   33 1
    27   14   34 1
    28   15   16 1
    29   15   35 1
    30   15   36 1
    31   16   21 ar
    32   16   17 ar
    33   17   18 ar
    34   17   37 1
    35   18   19 ar
    36   19   20 ar
    37   19   23 1
    38   20   21 ar
    39   21   22 1
    40   22   38 1
    41   22   39 1
    42   23   40 1
    43   23   41 1
@<TRIPOS>MOLECULE
ZINC05974561
   42    44     0     0     0
SMALL
USER_CHARGES
5-[(4-benzyloxyphenyl)methyl]pyrimidine-2,4-diamine
@<TRIPOS>ATOM
      1 C1         -0.0167    1.3781    0.0096 C.ar      1 <0>        -0.1038
      2 C2          1.1709    2.0855    0.0021 C.ar      1 <0>        -0.1220
      3 C3          2.3773    1.4107   -0.0141 C.ar      1 <0>        -0.0955
      4 C4          2.3960    0.0285   -0.0217 C.ar      1 <0>        -0.1064
      5 C5          1.2084   -0.6789   -0.0136 C.ar      1 <0>        -0.0941
      6 C6          0.0021   -0.0041    0.0020 C.ar      1 <0>        -0.1209
      7 C7          3.7112   -0.7071   -0.0392 C.3       1 <0>         0.1036
      8 O1          4.1132   -0.9320   -1.3920 O.3       1 <0>        -0.3043
      9 C8          5.2871   -1.5886   -1.5857 C.ar      1 <0>         0.1456
     10 C9          6.0395   -2.0030   -0.4963 C.ar      1 <0>        -0.2041
     11 C10         7.2294   -2.6758   -0.6959 C.ar      1 <0>        -0.0745
     12 C11         7.6768   -2.9255   -1.9801 C.ar      1 <0>        -0.1461
     13 C12         6.9315   -2.5085   -3.0676 C.ar      1 <0>        -0.0680
     14 C13         5.7379   -1.8408   -2.8733 C.ar      1 <0>        -0.1455
     15 C14         8.9785   -3.6537   -2.1950 C.3       1 <0>        -0.0224
     16 C15        10.1061   -2.6565   -2.2666 C.ar      1 <0>        -0.2168
     17 C16        10.5549   -2.1839   -3.4844 C.ar      1 <0>         0.2026
     18 C17        12.1127   -0.8806   -2.3935 C.ar      1 <0>         0.6678
     19 N1         11.7115   -1.3086   -1.2062 N.ar      1 <0>        -0.5677
     20 C18        10.7171   -2.1847   -1.1029 C.ar      1 <0>         0.5387
     21 N2         10.2963   -2.6268    0.1407 N.pl3     1 <0>        -0.7766
     22 N3         13.1474    0.0356   -2.4663 N.pl3     1 <0>        -0.7926
     23 H1         -0.9592    1.9054    0.0170 H         1 <0>         0.1279
     24 H2          1.1563    3.1654    0.0081 H         1 <0>         0.1277
     25 H3          3.3051    1.9634   -0.0207 H         1 <0>         0.1226
     26 H4          1.2231   -1.7587   -0.0199 H         1 <0>         0.1245
     27 H5         -0.9258   -0.5567    0.0079 H         1 <0>         0.1285
     28 H6          4.4679   -0.1107    0.4703 H         1 <0>         0.0725
     29 H7          3.5990   -1.6641    0.4703 H         1 <0>         0.0747
     30 H8          5.6929   -1.8039    0.5070 H         1 <0>         0.1335
     31 H9          7.8130   -3.0031    0.1519 H         1 <0>         0.1168
     32 H10         7.2831   -2.7048   -4.0697 H         1 <0>         0.1319
     33 H11         5.1560   -1.5157   -3.7230 H         1 <0>         0.1370
     34 H12         9.1522   -4.3396   -1.3659 H         1 <0>         0.0948
     35 H13         8.9308   -4.2157   -3.1277 H         1 <0>         0.1080
     36 H14        10.1010   -2.5252   -4.4031 H         1 <0>         0.2048
     37 H15         9.5722   -3.2688    0.2077 H         1 <0>         0.4292
     38 H16        10.7257   -2.2944    0.9445 H         1 <0>         0.4285
     39 H17        13.4506    0.3573   -3.3297 H         1 <0>         0.4305
     40 H18        13.5695    0.3560   -1.6538 H         1 <0>         0.4424
     41 N4         11.5723   -1.2816   -3.5792 N.ar      1 <0>        -0.5950
     42 H19        11.8732   -0.9598   -4.4769 H         1 <0>         0.4622
@<TRIPOS>BOND
     1    1    6 ar
     2    1    2 ar
     3    1   23 1
     4    2    3 ar
     5    2   24 1
     6    3    4 ar
     7    3   25 1
     8    4    5 ar
     9    4    7 1
    10    5    6 ar
    11    5   26 1
    12    6   27 1
    13    7    8 1
    14    7   28 1
    15    7   29 1
    16    8    9 1
    17    9   14 ar
    18    9   10 ar
    19   10   11 ar
    20   10   30 1
    21   11   12 ar
    22   11   31 1
    23   12   13 ar
    24   12   15 1
    25   13   14 ar
    26   13   32 1
    27   14   33 1
    28   15   16 1
    29   15   34 1
    30   15   35 1
    31   16   20 ar
    32   16   17 ar
    33   17   36 1
    34   17   41 ar
    35   18   19 ar
    36   18   22 1
    37   18   41 ar
    38   19   20 ar
    39   20   21 1
    40   21   37 1
    41   21   38 1
    42   22   39 1
    43   22   40 1
    44   41   42 1
@<TRIPOS>MOLECULE
ZINC05974561
   42    44     0     0     0
SMALL
USER_CHARGES
5-[(4-benzyloxyphenyl)methyl]pyrimidine-2,4-diamine
@<TRIPOS>ATOM
      1 C1         -0.0167    1.3781    0.0096 C.ar      1 <0>        -0.1030
      2 C2          1.1709    2.0855    0.0021 C.ar      1 <0>        -0.1218
      3 C3          2.3773    1.4107   -0.0141 C.ar      1 <0>        -0.0953
      4 C4          2.3960    0.0285   -0.0217 C.ar      1 <0>        -0.1077
      5 C5          1.2084   -0.6789   -0.0136 C.ar      1 <0>        -0.0938
      6 C6          0.0021   -0.0041    0.0020 C.ar      1 <0>        -0.1208
      7 C7          3.7112   -0.7071   -0.0392 C.3       1 <0>         0.1034
      8 O1          4.1132   -0.9320   -1.3920 O.3       1 <0>        -0.3025
      9 C8          5.2871   -1.5886   -1.5857 C.ar      1 <0>         0.1504
     10 C9          6.0395   -2.0030   -0.4963 C.ar      1 <0>        -0.2048
     11 C10         7.2294   -2.6758   -0.6959 C.ar      1 <0>        -0.0774
     12 C11         7.6768   -2.9255   -1.9801 C.ar      1 <0>        -0.1554
     13 C12         6.9315   -2.5085   -3.0676 C.ar      1 <0>        -0.0626
     14 C13         5.7379   -1.8408   -2.8733 C.ar      1 <0>        -0.1435
     15 C14         8.9785   -3.6537   -2.1950 C.3       1 <0>        -0.0200
     16 C15        10.1061   -2.6565   -2.2666 C.ar      1 <0>        -0.2685
     17 C16        10.5549   -2.1839   -3.4844 C.ar      1 <0>         0.2546
     18 C17        12.1127   -0.8806   -2.3935 C.ar      1 <0>         0.5799
     19 N1         11.7115   -1.3086   -1.2062 N.ar      1 <0>        -0.5255
     20 C18        10.7171   -2.1847   -1.1029 C.ar      1 <0>         0.3613
     21 N2         10.2963   -2.6268    0.1407 N.pl3     1 <0>        -0.7727
     22 N3         13.1474    0.0356   -2.4663 N.pl3     1 <0>        -0.7392
     23 H1         -0.9592    1.9054    0.0170 H         1 <0>         0.1282
     24 H2          1.1563    3.1654    0.0081 H         1 <0>         0.1279
     25 H3          3.3051    1.9634   -0.0207 H         1 <0>         0.1226
     26 H4          1.2231   -1.7587   -0.0199 H         1 <0>         0.1246
     27 H5         -0.9258   -0.5567    0.0079 H         1 <0>         0.1288
     28 H6          4.4679   -0.1107    0.4703 H         1 <0>         0.0728
     29 H7          3.5990   -1.6641    0.4703 H         1 <0>         0.0753
     30 H8          5.6929   -1.8039    0.5070 H         1 <0>         0.1355
     31 H9          7.8130   -3.0031    0.1519 H         1 <0>         0.1161
     32 H10         7.2831   -2.7048   -4.0697 H         1 <0>         0.1366
     33 H11         5.1560   -1.5157   -3.7230 H         1 <0>         0.1401
     34 H12         9.1522   -4.3396   -1.3659 H         1 <0>         0.1002
     35 H13         8.9308   -4.2157   -3.1277 H         1 <0>         0.1228
     36 H14        10.1010   -2.5252   -4.4031 H         1 <0>         0.2197
     37 H15         9.5722   -3.2688    0.2077 H         1 <0>         0.4496
     38 H16        10.7257   -2.2944    0.9445 H         1 <0>         0.4464
     39 H17        13.4506    0.3573   -3.3297 H         1 <0>         0.4496
     40 H18        13.5695    0.3560   -1.6538 H         1 <0>         0.4366
     41 N4         11.5723   -1.2816   -3.5792 N.ar      1 <0>        -0.4879
     42 H19        10.9645   -1.9701   -1.1394 H         1 <0>         0.4191
@<TRIPOS>BOND
     1    1    6 ar
     2    1    2 ar
     3    1   23 1
     4    2    3 ar
     5    2   24 1
     6    3    4 ar
     7    3   25 1
     8    4    5 ar
     9    4    7 1
    10    5    6 ar
    11    5   26 1
    12    6   27 1
    13    7    8 1
    14    7   28 1
    15    7   29 1
    16    8    9 1
    17    9   14 ar
    18    9   10 ar
    19   10   11 ar
    20   10   30 1
    21   11   12 ar
    22   11   31 1
    23   12   13 ar
    24   12   15 1
    25   13   14 ar
    26   13   32 1
    27   14   33 1
    28   15   16 1
    29   15   34 1
    30   15   35 1
    31   16   20 ar
    32   16   17 ar
    33   17   36 1
    34   17   41 ar
    35   18   19 ar
    36   18   22 1
    37   18   41 ar
    38   19   20 ar
    39   19   42 1
    40   20   21 1
    41   21   37 1
    42   21   38 1
    43   22   39 1
    44   22   40 1
@<TRIPOS>MOLECULE
ZINC00146421
   31    32     0     0     0
SMALL
USER_CHARGES
1-(4-bromophenyl)-6,6-dimethyl-1,3,5-triazine-2,4-diamine
@<TRIPOS>ATOM
      1 C1         -4.9004    1.3940   -0.4647 C.3       1 <0>        -0.1339
      2 C2         -3.6649    1.7601    0.3601 C.3       1 <0>         0.3717
      3 N1         -3.3572    3.1842    0.1846 N.2       1 <0>        -0.6849
      4 C3         -2.1187    3.5995    0.2041 C.2       1 <0>         0.6195
      5 N2         -1.0862    2.7509    0.3443 N.2       1 <0>        -0.6783
      6 C4         -1.2541    1.4489    0.2044 C.2       1 <0>         0.6954
      7 N3         -2.5091    0.9771   -0.1039 N.pl3     1 <0>        -0.6197
      8 C5         -2.6801   -0.2052   -0.8322 C.ar      1 <0>         0.1581
      9 C6         -3.2080   -1.3320   -0.2155 C.ar      1 <0>        -0.1177
     10 C7         -3.3815   -2.4959   -0.9385 C.ar      1 <0>        -0.0760
     11 C8         -3.0184   -2.5436   -2.2728 C.ar      1 <0>        -0.0909
     12 C9         -2.4870   -1.4241   -2.8883 C.ar      1 <0>        -0.0746
     13 C10        -2.3170   -0.2558   -2.1717 C.ar      1 <0>        -0.1129
     14 Br1        -3.2496   -4.1415   -3.2572 Br        1 <0>        -0.0412
     15 N4         -0.2048    0.5877    0.3679 N.pl3     1 <0>        -0.8164
     16 N5         -1.8640    4.9507    0.0825 N.pl3     1 <0>        -0.8287
     17 C11        -3.9265    1.4666    1.8388 C.3       1 <0>        -0.1629
     18 H1         -5.1763    0.3584   -0.2657 H         1 <0>         0.0618
     19 H2         -5.7273    2.0493   -0.1909 H         1 <0>         0.0814
     20 H3         -4.6779    1.5134   -1.5250 H         1 <0>         0.0595
     21 H4         -3.4871   -1.2968    0.8272 H         1 <0>         0.1368
     22 H5         -3.7961   -3.3711   -0.4606 H         1 <0>         0.1401
     23 H6         -2.2044   -1.4641   -3.9299 H         1 <0>         0.1391
     24 H7         -1.9018    0.6176   -2.6526 H         1 <0>         0.1312
     25 H8         -0.3555   -0.3702    0.3448 H         1 <0>         0.4126
     26 H9          0.6908    0.9347    0.5030 H         1 <0>         0.4237
     27 H10        -2.5991    5.5759   -0.0156 H         1 <0>         0.4109
     28 H11        -0.9499    5.2750    0.0951 H         1 <0>         0.4066
     29 H12        -3.0479    1.7379    2.4240 H         1 <0>         0.0517
     30 H13        -4.7833    2.0484    2.1786 H         1 <0>         0.0782
     31 H14        -4.1347    0.4044    1.9670 H         1 <0>         0.0599
@<TRIPOS>BOND
     1    1    2 1
     2    1   18 1
     3    1   19 1
     4    1   20 1
     5    2    7 1
     6    2    3 1
     7    2   17 1
     8    3    4 2
     9    4    5 1
    10    4   16 1
    11    5    6 2
    12    6    7 1
    13    6   15 1
    14    7    8 1
    15    8   13 ar
    16    8    9 ar
    17    9   10 ar
    18    9   21 1
    19   10   11 ar
    20   10   22 1
    21   11   12 ar
    22   11   14 1
    23   12   13 ar
    24   12   23 1
    25   13   24 1
    26   15   25 1
    27   15   26 1
    28   16   27 1
    29   16   28 1
    30   17   29 1
    31   17   30 1
    32   17   31 1
@<TRIPOS>MOLECULE
ZINC16981849
   32    33     0     0     0
SMALL
USER_CHARGES

@<TRIPOS>ATOM
      1 C1         -0.6693    1.4668    1.0655 C.3       1 <0>        -0.1716
      2 C2         -0.3853    0.0749    0.4974 C.3       1 <0>         0.4020
      3 N1         -1.5216   -0.8125    0.7714 N.pl3     1 <0>        -0.6960
      4 C3         -1.3268   -2.0846    0.9961 C.cat     1 <0>         0.7283
      5 N2         -0.0953   -2.6215    1.0306 N.2       1 <0>        -0.6379
      6 C4          0.9777   -1.8547    1.0907 C.2       1 <0>         0.7305
      7 N3          0.8089   -0.4905    1.1442 N.pl3     1 <0>        -0.5928
      8 C5          1.7391    0.3296    1.7914 C.ar      1 <0>         0.0869
      9 C6          1.6712    0.5080    3.1670 C.ar      1 <0>        -0.1012
     10 C7          2.5911    1.3184    3.8029 C.ar      1 <0>        -0.1027
     11 C8          3.5790    1.9518    3.0715 C.ar      1 <0>        -0.0881
     12 C9          3.6494    1.7762    1.7016 C.ar      1 <0>        -0.1026
     13 C10         2.7360    0.9626    1.0604 C.ar      1 <0>        -0.1079
     14 N4          2.2295   -2.4044    1.0999 N.pl3     1 <0>        -0.7698
     15 N5         -2.4192   -2.9022    1.2050 N.pl3     1 <0>        -0.7923
     16 C11        -0.1573    0.1709   -1.0125 C.3       1 <0>        -0.1808
     17 H1          0.1483    2.1391    0.8054 H         1 <0>         0.1013
     18 H2         -1.6003    1.8476    0.6457 H         1 <0>         0.0982
     19 H3         -0.7581    1.4054    2.1501 H         1 <0>         0.0825
     20 H4          0.8996    0.0139    3.7388 H         1 <0>         0.1260
     21 H5          2.5386    1.4579    4.8726 H         1 <0>         0.1386
     22 H6          4.2970    2.5853    3.5711 H         1 <0>         0.1386
     23 H7          4.4220    2.2726    1.1332 H         1 <0>         0.1403
     24 H8          2.7942    0.8223   -0.0089 H         1 <0>         0.1337
     25 H9          2.3389   -3.3632    1.0018 H         1 <0>         0.4405
     26 H10         3.0082   -1.8357    1.2046 H         1 <0>         0.4302
     27 H11        -3.3147   -2.5299    1.1837 H         1 <0>         0.4289
     28 H12        -2.2913   -3.8489    1.3732 H         1 <0>         0.4408
     29 H13         0.6937    0.8226   -1.2107 H         1 <0>         0.0966
     30 H14         0.0446   -0.8224   -1.4134 H         1 <0>         0.0715
     31 H15        -1.0477    0.5809   -1.4891 H         1 <0>         0.0968
     32 H16        -2.4221   -0.4525    0.7860 H         1 <0>         0.4314
@<TRIPOS>BOND
     1    1    2 1
     2    1   17 1
     3    1   18 1
     4    1   19 1
     5    2    7 1
     6    2    3 1
     7    2   16 1
     8    3    4 2
     9    3   32 1
    10    4    5 1
    11    4   15 1
    12    5    6 2
    13    6    7 1
    14    6   14 1
    15    7    8 1
    16    8   13 ar
    17    8    9 ar
    18    9   10 ar
    19    9   20 1
    20   10   11 ar
    21   10   21 1
    22   11   12 ar
    23   11   22 1
    24   12   13 ar
    25   12   23 1
    26   13   24 1
    27   14   25 1
    28   14   26 1
    29   15   27 1
    30   15   28 1
    31   16   29 1
    32   16   30 1
    33   16   31 1
@<TRIPOS>MOLECULE
ZINC16981849
   32    33     0     0     0
SMALL
USER_CHARGES

@<TRIPOS>ATOM
      1 C1         -0.6994    1.4356    1.0443 C.3       1 <0>        -0.1687
      2 C2         -0.4003    0.0405    0.4920 C.3       1 <0>         0.3987
      3 N1         -1.5012   -0.8815    0.8267 N.pl3     1 <0>        -0.6956
      4 C3         -1.2590   -2.2281    0.7343 C.cat     1 <0>         0.7441
      5 N2         -2.2976   -3.0927    0.5289 N.pl3     1 <0>        -0.7884
      6 N3         -0.0316   -2.6933    0.8418 N.pl3     1 <0>        -0.6251
      7 C4          1.0208   -1.8740    1.0315 C.2       1 <0>         0.5953
      8 N4          2.2311   -2.3666    1.1254 N.2       1 <0>        -0.6776
      9 N5          0.8148   -0.5043    1.1272 N.pl3     1 <0>        -0.5673
     10 C5          1.7212    0.3241    1.7963 C.ar      1 <0>         0.1440
     11 C6          2.7049    0.9979    1.0840 C.ar      1 <0>        -0.0952
     12 C7          3.5985    1.8153    1.7478 C.ar      1 <0>        -0.1067
     13 C8          3.5147    1.9633    3.1201 C.ar      1 <0>        -0.0978
     14 C9          2.5364    1.2939    3.8323 C.ar      1 <0>        -0.1081
     15 C10         1.6361    0.4794    3.1739 C.ar      1 <0>        -0.1086
     16 C11        -0.2132    0.1073   -1.0251 C.3       1 <0>        -0.1757
     17 H1          0.1044    2.1169    0.7651 H         1 <0>         0.1045
     18 H2         -1.6413    1.7960    0.6305 H         1 <0>         0.0964
     19 H3         -0.7744    1.3880    2.1306 H         1 <0>         0.0853
     20 H4         -2.3684   -0.5465    1.1034 H         1 <0>         0.4460
     21 H5         -3.2027   -2.7531    0.4490 H         1 <0>         0.4439
     22 H6          2.3716   -3.3241    1.0584 H         1 <0>         0.3637
     23 H7          2.7712    0.8825    0.0122 H         1 <0>         0.1271
     24 H8          4.3639    2.3392    1.1945 H         1 <0>         0.1343
     25 H9          4.2149    2.6028    3.6369 H         1 <0>         0.1328
     26 H10         2.4736    1.4116    4.9040 H         1 <0>         0.1323
     27 H11         0.8696   -0.0396    3.7301 H         1 <0>         0.1195
     28 H12         0.6184    0.7717   -1.2597 H         1 <0>         0.1011
     29 H13        -0.0007   -0.8904   -1.4092 H         1 <0>         0.0638
     30 H14        -1.1241    0.4882   -1.4870 H         1 <0>         0.0944
     31 H15        -2.1295   -4.0457    0.4631 H         1 <0>         0.4407
     32 H16         0.1184   -3.6498    0.7827 H         1 <0>         0.4470
@<TRIPOS>BOND
     1    1    2 1
     2    1   17 1
     3    1   18 1
     4    1   19 1
     5    2    9 1
     6    2    3 1
     7    2   16 1
     8    3    4 1
     9    3   20 1
    10    4    5 1
    11    4    6 2
    12    5   21 1
    13    5   31 1
    14    6    7 1
    15    6   32 1
    16    7    8 2
    17    7    9 1
    18    8   22 1
    19    9   10 1
    20   10   15 ar
    21   10   11 ar
    22   11   12 ar
    23   11   23 1
    24   12   13 ar
    25   12   24 1
    26   13   14 ar
    27   13   25 1
    28   14   15 ar
    29   14   26 1
    30   15   27 1
    31   16   28 1
    32   16   29 1
    33   16   30 1
@<TRIPOS>MOLECULE
ZINC16981849
   31    32     0     0     0
SMALL
USER_CHARGES

@<TRIPOS>ATOM
      1 C1         -0.2465    1.0766   -0.4404 C.3       1 <0>        -0.1661
      2 C2         -0.1472   -0.3825    0.0091 C.3       1 <0>         0.4218
      3 N1         -1.4817   -0.8800    0.3913 N.pl3     1 <0>        -0.7441
      4 C3         -1.9948   -0.4462    1.6057 C.2       1 <0>         0.6312
      5 N2         -3.2318   -0.0581    1.7305 N.2       1 <0>        -0.7410
      6 N3         -1.1122   -0.4496    2.6842 N.pl3     1 <0>        -0.7611
      7 C4          0.1945   -0.0516    2.4061 C.2       1 <0>         0.6327
      8 N4          0.8813    0.6823    3.2345 N.2       1 <0>        -0.7293
      9 N5          0.7231   -0.4823    1.1953 N.pl3     1 <0>        -0.5938
     10 C5          2.0237   -0.9890    1.1058 C.ar      1 <0>         0.1725
     11 C6          3.0713   -0.1555    0.7359 C.ar      1 <0>        -0.1028
     12 C7          4.3545   -0.6588    0.6488 C.ar      1 <0>        -0.1130
     13 C8          4.5968   -1.9910    0.9295 C.ar      1 <0>        -0.1156
     14 C9          3.5559   -2.8236    1.2976 C.ar      1 <0>        -0.1140
     15 C10         2.2713   -2.3253    1.3921 C.ar      1 <0>        -0.1176
     16 C11         0.4215   -1.2373   -1.1253 C.3       1 <0>        -0.1608
     17 H1          0.7473    1.4482   -0.6905 H         1 <0>         0.0740
     18 H2         -0.8907    1.1437   -1.3171 H         1 <0>         0.0777
     19 H3         -0.6667    1.6775    0.3661 H         1 <0>         0.0573
     20 H4         -1.9796   -1.4841   -0.1815 H         1 <0>         0.4206
     21 H5         -1.3906   -0.7128    3.5753 H         1 <0>         0.4181
     22 H6          0.4852    0.9675    4.0728 H         1 <0>         0.3485
     23 H7          2.8827    0.8849    0.5162 H         1 <0>         0.1247
     24 H8          5.1695   -0.0113    0.3609 H         1 <0>         0.1260
     25 H9          5.6011   -2.3821    0.8607 H         1 <0>         0.1242
     26 H10         3.7484   -3.8637    1.5158 H         1 <0>         0.1246
     27 H11         1.4595   -2.9749    1.6843 H         1 <0>         0.1196
     28 H12         1.3751   -0.8214   -1.4506 H         1 <0>         0.0824
     29 H13         0.5717   -2.2572   -0.7715 H         1 <0>         0.0735
     30 H14        -0.2771   -1.2421   -1.9620 H         1 <0>         0.0817
     31 H15        -3.5620    0.2400    2.5925 H         1 <0>         0.3481
@<TRIPOS>BOND
     1    1    2 1
     2    1   17 1
     3    1   18 1
     4    1   19 1
     5    2    9 1
     6    2    3 1
     7    2   16 1
     8    3    4 1
     9    3   20 1
    10    4    5 2
    11    4    6 1
    12    5   31 1
    13    6    7 1
    14    6   21 1
    15    7    8 2
    16    7    9 1
    17    8   22 1
    18    9   10 1
    19   10   15 ar
    20   10   11 ar
    21   11   12 ar
    22   11   23 1
    23   12   13 ar
    24   12   24 1
    25   13   14 ar
    26   13   25 1
    27   14   15 ar
    28   14   26 1
    29   15   27 1
    30   16   28 1
    31   16   29 1
    32   16   30 1
@<TRIPOS>MOLECULE
ZINC17040529
   35    36     0     0     0
SMALL
USER_CHARGES

@<TRIPOS>ATOM
      1 C1          0.2075    1.4957   -0.0933 C.3       1 <0>        -0.1299
      2 C2          0.1817   -0.0110   -0.0779 C.ar      1 <0>        -0.0484
      3 C3          1.3560   -0.7228   -0.2405 C.ar      1 <0>        -0.1070
      4 C4          1.3358   -2.1037   -0.2265 C.ar      1 <0>        -0.0943
      5 C5          0.1344   -2.7774   -0.0488 C.ar      1 <0>         0.0780
      6 C6         -1.0433   -2.0594    0.1141 C.ar      1 <0>        -0.1018
      7 C7         -1.0155   -0.6786    0.1044 C.ar      1 <0>        -0.1068
      8 N1          0.1104   -4.1759   -0.0346 N.pl3     1 <0>        -0.5909
      9 C8          0.0111   -4.8987   -1.2010 C.2       1 <0>         0.7305
     10 N2          0.5569   -6.0999   -1.2473 N.2       1 <0>        -0.6382
     11 C9          1.1745   -6.6197   -0.1729 C.cat     1 <0>         0.7281
     12 N3          1.0552   -6.0931    1.0167 N.pl3     1 <0>        -0.6955
     13 C10         0.1965   -4.9265    1.2276 C.3       1 <0>         0.4015
     14 C11         0.7959   -4.0357    2.3176 C.3       1 <0>        -0.1713
     15 C12        -1.1997   -5.3893    1.6487 C.3       1 <0>        -0.1807
     16 N4          1.9586   -7.7447   -0.3310 N.pl3     1 <0>        -0.7925
     17 N5         -0.6391   -4.3845   -2.2882 N.pl3     1 <0>        -0.7699
     18 H1          0.3643    1.8667    0.9196 H         1 <0>         0.0831
     19 H2          1.0188    1.8386   -0.7354 H         1 <0>         0.0758
     20 H3         -0.7417    1.8715   -0.4750 H         1 <0>         0.0766
     21 H4          2.2899   -0.1984   -0.3789 H         1 <0>         0.1379
     22 H5          2.2533   -2.6591   -0.3538 H         1 <0>         0.1261
     23 H6         -1.9793   -2.5803    0.2522 H         1 <0>         0.1337
     24 H7         -1.9303   -0.1197    0.2352 H         1 <0>         0.1396
     25 H8          0.1045   -3.2242    2.5445 H         1 <0>         0.1011
     26 H9          0.9689   -4.6277    3.2163 H         1 <0>         0.0974
     27 H10         1.7413   -3.6205    1.9683 H         1 <0>         0.0825
     28 H11        -1.6185   -6.0318    0.8742 H         1 <0>         0.0713
     29 H12        -1.1316   -5.9449    2.5840 H         1 <0>         0.0965
     30 H13        -1.8436   -4.5210    1.7880 H         1 <0>         0.0961
     31 H14         2.0572   -8.1479   -1.2077 H         1 <0>         0.4407
     32 H15         2.4111   -8.1320    0.4346 H         1 <0>         0.4288
     33 H16        -0.9812   -3.4772   -2.2644 H         1 <0>         0.4301
     34 H17        -0.7584   -4.9271   -3.0834 H         1 <0>         0.4403
     35 H18         1.5408   -6.4753    1.7643 H         1 <0>         0.4314
@<TRIPOS>BOND
     1    1    2 1
     2    1   18 1
     3    1   19 1
     4    1   20 1
     5    2    7 ar
     6    2    3 ar
     7    3    4 ar
     8    3   21 1
     9    4    5 ar
    10    4   22 1
    11    5    6 ar
    12    5    8 1
    13    6    7 ar
    14    6   23 1
    15    7   24 1
    16    8   13 1
    17    8    9 1
    18    9   10 2
    19    9   17 1
    20   10   11 1
    21   11   12 2
    22   11   16 1
    23   12   13 1
    24   12   35 1
    25   13   14 1
    26   13   15 1
    27   14   25 1
    28   14   26 1
    29   14   27 1
    30   15   28 1
    31   15   29 1
    32   15   30 1
    33   16   31 1
    34   16   32 1
    35   17   33 1
    36   17   34 1
@<TRIPOS>MOLECULE
ZINC17040529
   34    35     0     0     0
SMALL
USER_CHARGES

@<TRIPOS>ATOM
      1 C1         -1.0060    1.3596   -0.1627 C.3       1 <0>        -0.1154
      2 C2         -0.7825   -0.1303   -0.1261 C.ar      1 <0>        -0.0863
      3 C3          0.5004   -0.6380   -0.2186 C.ar      1 <0>        -0.1131
      4 C4          0.7086   -2.0028   -0.1853 C.ar      1 <0>        -0.1033
      5 C5         -0.3723   -2.8658   -0.0584 C.ar      1 <0>         0.1768
      6 C6         -1.6595   -2.3526    0.0347 C.ar      1 <0>        -0.1130
      7 C7         -1.8604   -0.9865    0.0056 C.ar      1 <0>        -0.1137
      8 N1         -0.1650   -4.2483   -0.0249 N.pl3     1 <0>        -0.6077
      9 C8         -0.2743   -5.0242   -1.1710 C.2       1 <0>         0.6004
     10 N2         -0.1028   -4.4834   -2.3519 N.2       1 <0>        -0.7531
     11 N3         -0.5575   -6.3367   -1.0613 N.2       1 <0>        -0.6655
     12 C9         -0.7265   -6.9115    0.1115 C.2       1 <0>         0.6758
     13 N4         -0.6297   -6.1762    1.2650 N.pl3     1 <0>        -0.7639
     14 C10         0.1851   -4.9430    1.2288 C.3       1 <0>         0.4193
     15 C11        -0.1509   -4.0569    2.4300 C.3       1 <0>        -0.1613
     16 C12         1.6744   -5.2936    1.2350 C.3       1 <0>        -0.1685
     17 N5         -1.0003   -8.2489    0.1794 N.pl3     1 <0>        -0.8271
     18 H1         -0.9660    1.7581    0.8511 H         1 <0>         0.0700
     19 H2         -0.2303    1.8286   -0.7682 H         1 <0>         0.0667
     20 H3         -1.9831    1.5699   -0.5975 H         1 <0>         0.0659
     21 H4          1.3405    0.0336   -0.3172 H         1 <0>         0.1233
     22 H5          1.7108   -2.3987   -0.2583 H         1 <0>         0.1202
     23 H6         -2.5021   -3.0209    0.1334 H         1 <0>         0.1151
     24 H7         -2.8607   -0.5866    0.0820 H         1 <0>         0.1221
     25 H8         -0.1799   -5.0283   -3.1507 H         1 <0>         0.3445
     26 H9         -1.0787   -6.4577    2.0775 H         1 <0>         0.4063
     27 H10        -1.1996   -3.7635    2.3830 H         1 <0>         0.0736
     28 H11         0.0308   -4.6099    3.3515 H         1 <0>         0.0797
     29 H12         0.4769   -3.1660    2.4112 H         1 <0>         0.0856
     30 H13         2.2631   -4.3797    1.1551 H         1 <0>         0.0780
     31 H14         1.9232   -5.8060    2.1643 H         1 <0>         0.0747
     32 H15         1.8979   -5.9448    0.3899 H         1 <0>         0.0622
     33 H16        -1.0697   -8.7717   -0.6348 H         1 <0>         0.4230
     34 H17        -1.1252   -8.6753    1.0416 H         1 <0>         0.4089
@<TRIPOS>BOND
     1    1    2 1
     2    1   18 1
     3    1   19 1
     4    1   20 1
     5    2    7 ar
     6    2    3 ar
     7    3    4 ar
     8    3   21 1
     9    4    5 ar
    10    4   22 1
    11    5    6 ar
    12    5    8 1
    13    6    7 ar
    14    6   23 1
    15    7   24 1
    16    8   14 1
    17    8    9 1
    18    9   10 2
    19    9   11 1
    20   10   25 1
    21   11   12 2
    22   12   13 1
    23   12   17 1
    24   13   14 1
    25   13   26 1
    26   14   15 1
    27   14   16 1
    28   15   27 1
    29   15   28 1
    30   15   29 1
    31   16   30 1
    32   16   31 1
    33   16   32 1
    34   17   33 1
    35   17   34 1
@<TRIPOS>MOLECULE
ZINC17126763
   32    33     0     0     0
SMALL
USER_CHARGES
1-(4-fluorophenyl)-6,6-dimethyl-1,3,5-triazine-2,4-diamine
@<TRIPOS>ATOM
      1 C1         -4.9017    1.3937   -0.4608 C.3       1 <0>        -0.1756
      2 C2         -3.6650    1.7599    0.3622 C.3       1 <0>         0.4059
      3 N1         -3.3575    3.1840    0.1860 N.pl3     1 <0>        -0.7144
      4 C3         -2.1189    3.5992    0.2036 C.cat     1 <0>         0.7258
      5 N2         -1.0864    2.7506    0.3426 N.2       1 <0>        -0.6475
      6 C4         -1.2546    1.4485    0.2031 C.2       1 <0>         0.7259
      7 N3         -2.5099    0.9769   -0.1033 N.pl3     1 <0>        -0.5961
      8 C5         -2.6821   -0.2058   -0.8324 C.ar      1 <0>         0.0862
      9 C6         -3.2102   -1.3322   -0.2155 C.ar      1 <0>        -0.0808
     10 C7         -3.3841   -2.4964   -0.9380 C.ar      1 <0>        -0.1376
     11 C8         -3.0216   -2.5442   -2.2736 C.ar      1 <0>         0.1307
     12 C9         -2.4900   -1.4236   -2.8893 C.ar      1 <0>        -0.1375
     13 C10        -2.3197   -0.2557   -2.1719 C.ar      1 <0>        -0.0769
     14 F1         -3.1873   -3.6856   -2.9771 F         1 <0>        -0.1222
     15 N4         -0.2052    0.5872    0.3653 N.pl3     1 <0>        -0.8011
     16 N5         -1.8643    4.9504    0.0814 N.pl3     1 <0>        -0.8245
     17 C11        -3.9246    1.4667    1.8412 C.3       1 <0>        -0.1821
     18 H1         -5.7629    1.9811   -0.1097 H         1 <0>         0.0986
     19 H2         -5.1165    0.3214   -0.3424 H         1 <0>         0.0987
     20 H3         -4.7148    1.6153   -1.5219 H         1 <0>         0.0817
     21 H4         -3.4885   -1.2967    0.8274 H         1 <0>         0.1435
     22 H5         -3.7989   -3.3714   -0.4598 H         1 <0>         0.1528
     23 H6         -2.2079   -1.4629   -3.9311 H         1 <0>         0.1510
     24 H7         -1.9047    0.6180   -2.6524 H         1 <0>         0.1353
     25 H8         -0.3588   -0.4955    0.2463 H         1 <0>         0.4552
     26 H9          0.7927    0.9770    0.6148 H         1 <0>         0.4689
     27 H10        -0.8277    5.3181    0.0941 H         1 <0>         0.4676
     28 H11        -2.6981    5.6594   -0.0287 H         1 <0>         0.4523
     29 H12        -3.0335    1.7312    2.4293 H         1 <0>         0.0705
     30 H13        -4.1444    0.3966    1.9698 H         1 <0>         0.0930
     31 H14        -4.7825    2.0615    2.1878 H         1 <0>         0.0956
     32 H15        -4.1766    3.9032    0.0385 H         1 <0>         0.4571
@<TRIPOS>BOND
     1    1    2 1
     2    1   18 1
     3    1   19 1
     4    1   20 1
     5    2    7 1
     6    2    3 1
     7    2   17 1
     8    3    4 2
     9    3   32 1
    10    4    5 1
    11    4   16 1
    12    5    6 2
    13    6    7 1
    14    6   15 1
    15    7    8 1
    16    8   13 ar
    17    8    9 ar
    18    9   10 ar
    19    9   21 1
    20   10   11 ar
    21   10   22 1
    22   11   12 ar
    23   11   14 1
    24   12   13 ar
    25   12   23 1
    26   13   24 1
    27   15   25 1
    28   15   26 1
    29   16   27 1
    30   16   28 1
    31   17   29 1
    32   17   30 1
    33   17   31 1
@<TRIPOS>MOLECULE
ZINC01666576
   32    33     0     0     0
SMALL
USER_CHARGES

@<TRIPOS>ATOM
      1 C1         -0.6690    1.4670    1.0654 C.3       1 <0>        -0.1732
      2 C2         -0.3852    0.0750    0.4972 C.3       1 <0>         0.4025
      3 N1         -1.5216   -0.8122    0.7713 N.pl3     1 <0>        -0.6953
      4 C3         -1.3270   -2.0844    0.9956 C.cat     1 <0>         0.7287
      5 N2         -0.0957   -2.6215    1.0301 N.2       1 <0>        -0.6355
      6 C4          0.9775   -1.8549    1.0906 C.2       1 <0>         0.7316
      7 N3          0.8089   -0.4905    1.1441 N.pl3     1 <0>        -0.5944
      8 C5          1.7394    0.3295    1.7908 C.ar      1 <0>         0.1028
      9 C6          1.6717    0.5083    3.1667 C.ar      1 <0>        -0.0977
     10 C7          2.5915    1.3184    3.8029 C.ar      1 <0>        -0.0875
     11 C8          3.5796    1.9521    3.0719 C.ar      1 <0>        -0.0807
     12 C9          3.6501    1.7767    1.7011 C.ar      1 <0>        -0.0254
     13 C10         2.7361    0.9617    1.0596 C.ar      1 <0>        -0.1031
     14 Cl1         4.8919    2.5746    0.7873 Cl        1 <0>        -0.0365
     15 N4          2.2292   -2.4048    1.0998 N.pl3     1 <0>        -0.7691
     16 N5         -2.4196   -2.9018    1.2041 N.pl3     1 <0>        -0.7911
     17 C11        -0.1572    0.1710   -1.0126 C.3       1 <0>        -0.1820
     18 H1          0.1487    2.1392    0.8052 H         1 <0>         0.1013
     19 H2         -1.6000    1.8479    0.6456 H         1 <0>         0.1001
     20 H3         -0.7578    1.4056    2.1500 H         1 <0>         0.0835
     21 H4          0.8999    0.0144    3.7385 H         1 <0>         0.1341
     22 H5          2.5388    1.4575    4.8726 H         1 <0>         0.1499
     23 H6          4.2975    2.5854    3.5719 H         1 <0>         0.1499
     24 H7          2.7940    0.8210   -0.0096 H         1 <0>         0.1450
     25 H8          2.3384   -3.3636    1.0013 H         1 <0>         0.4416
     26 H9          3.0080   -1.8362    1.2049 H         1 <0>         0.4301
     27 H10        -3.3150   -2.5294    1.1827 H         1 <0>         0.4293
     28 H11        -2.2919   -3.8486    1.3720 H         1 <0>         0.4412
     29 H12         0.6939    0.8226   -1.2109 H         1 <0>         0.0969
     30 H13         0.0446   -0.8223   -1.4135 H         1 <0>         0.0726
     31 H14        -1.0476    0.5811   -1.4892 H         1 <0>         0.0983
     32 H15        -2.4222   -0.4521    0.7856 H         1 <0>         0.4323
@<TRIPOS>BOND
     1    1    2 1
     2    1   18 1
     3    1   19 1
     4    1   20 1
     5    2    7 1
     6    2    3 1
     7    2   17 1
     8    3    4 2
     9    3   32 1
    10    4    5 1
    11    4   16 1
    12    5    6 2
    13    6    7 1
    14    6   15 1
    15    7    8 1
    16    8   13 ar
    17    8    9 ar
    18    9   10 ar
    19    9   21 1
    20   10   11 ar
    21   10   22 1
    22   11   12 ar
    23   11   23 1
    24   12   13 ar
    25   12   14 1
    26   13   24 1
    27   15   25 1
    28   15   26 1
    29   16   27 1
    30   16   28 1
    31   17   29 1
    32   17   30 1
    33   17   31 1
@<TRIPOS>MOLECULE
ZINC00001233
   32    33     0     0     0
SMALL
USER_CHARGES

@<TRIPOS>ATOM
      1 C1         -0.6687    1.4673    1.0653 C.3       1 <0>        -0.1731
      2 C2         -0.3851    0.0753    0.4972 C.3       1 <0>         0.4024
      3 N1         -1.5216   -0.8118    0.7711 N.pl3     1 <0>        -0.6957
      4 C3         -1.3272   -2.0840    0.9958 C.cat     1 <0>         0.7287
      5 N2         -0.0959   -2.6212    1.0299 N.2       1 <0>        -0.6361
      6 C4          0.9774   -1.8548    1.0901 C.2       1 <0>         0.7312
      7 N3          0.8089   -0.4905    1.1441 N.pl3     1 <0>        -0.5947
      8 C5          1.7401    0.3297    1.7908 C.ar      1 <0>         0.0910
      9 C6          1.6724    0.5086    3.1663 C.ar      1 <0>        -0.0872
     10 C7          2.5927    1.3187    3.8022 C.ar      1 <0>        -0.0952
     11 C8          3.5813    1.9521    3.0698 C.ar      1 <0>        -0.0119
     12 C9          3.6510    1.7755    1.6990 C.ar      1 <0>        -0.0951
     13 C10         2.7370    0.9616    1.0591 C.ar      1 <0>        -0.0941
     14 Cl1         4.7358    2.9706    3.8720 Cl        1 <0>        -0.0357
     15 N4          2.2290   -2.4049    1.0990 N.pl3     1 <0>        -0.7693
     16 N5         -2.4198   -2.9011    1.2051 N.pl3     1 <0>        -0.7913
     17 C11        -0.1569    0.1712   -1.0127 C.3       1 <0>        -0.1812
     18 H1          0.1491    2.1394    0.8053 H         1 <0>         0.1015
     19 H2         -1.5996    1.8483    0.6455 H         1 <0>         0.0996
     20 H3         -0.7575    1.4058    2.1500 H         1 <0>         0.0830
     21 H4          0.9006    0.0151    3.7383 H         1 <0>         0.1366
     22 H5          2.5405    1.4582    4.8718 H         1 <0>         0.1498
     23 H6          4.4234    2.2713    1.1297 H         1 <0>         0.1515
     24 H7          2.7948    0.8202   -0.0101 H         1 <0>         0.1442
     25 H8          2.3380   -3.3637    1.0004 H         1 <0>         0.4413
     26 H9          3.0079   -1.8365    1.2038 H         1 <0>         0.4301
     27 H10        -3.3152   -2.5286    1.1840 H         1 <0>         0.4293
     28 H11        -2.2923   -3.8479    1.3733 H         1 <0>         0.4411
     29 H12         0.6942    0.8227   -1.2108 H         1 <0>         0.0969
     30 H13         0.0447   -0.8221   -1.4135 H         1 <0>         0.0723
     31 H14        -1.0472    0.5816   -1.4893 H         1 <0>         0.0977
     32 H15        -2.4221   -0.4515    0.7857 H         1 <0>         0.4321
@<TRIPOS>BOND
     1    1    2 1
     2    1   18 1
     3    1   19 1
     4    1   20 1
     5    2    7 1
     6    2    3 1
     7    2   17 1
     8    3    4 2
     9    3   32 1
    10    4    5 1
    11    4   16 1
    12    5    6 2
    13    6    7 1
    14    6   15 1
    15    7    8 1
    16    8   13 ar
    17    8    9 ar
    18    9   10 ar
    19    9   21 1
    20   10   11 ar
    21   10   22 1
    22   11   12 ar
    23   11   14 1
    24   12   13 ar
    25   12   23 1
    26   13   24 1
    27   15   25 1
    28   15   26 1
    29   16   27 1
    30   16   28 1
    31   17   29 1
    32   17   30 1
    33   17   31 1
@<TRIPOS>MOLECULE
ZINC03076473
   39    41     0     0     0
SMALL
USER_CHARGES

@<TRIPOS>ATOM
      1 C1         -0.1304    1.4894    0.0764 C.3       1 <0>        -0.1289
      2 C2         -0.0854   -0.0168    0.0529 C.ar      1 <0>        -0.0552
      3 C3         -1.2021   -0.7343   -0.3351 C.ar      1 <0>        -0.0955
      4 C4         -1.1640   -2.1147   -0.3582 C.ar      1 <0>        -0.1275
      5 C5         -0.0027   -2.7821    0.0088 C.ar      1 <0>         0.0888
      6 C6          1.1171   -2.0585    0.3980 C.ar      1 <0>        -0.1006
      7 C7          1.0741   -0.6781    0.4138 C.ar      1 <0>        -0.0971
      8 N1          0.0390   -4.1801   -0.0131 N.pl3     1 <0>        -0.5912
      9 C8         -0.0337   -4.8767   -1.1972 C.2       1 <0>         0.7358
     10 N2          0.5676   -6.0493   -1.2774 N.2       1 <0>        -0.6319
     11 C9          1.2157   -6.5668   -0.2200 C.cat     1 <0>         0.7323
     12 N3          1.0793   -6.0771    0.9834 N.pl3     1 <0>        -0.6976
     13 C10         0.1683   -4.9580    1.2288 C.3       1 <0>         0.4323
     14 H1          0.5700   -4.3240    2.0193 H         1 <0>         0.1530
     15 C11        -1.1813   -5.4885    1.6388 C.ar      1 <0>        -0.1591
     16 C12        -2.3274   -4.7871    1.3139 C.ar      1 <0>        -0.0950
     17 C13        -3.5654   -5.2737    1.6899 C.ar      1 <0>        -0.1115
     18 C14        -3.6574   -6.4619    2.3904 C.ar      1 <0>        -0.0912
     19 C15        -2.5114   -7.1637    2.7145 C.ar      1 <0>        -0.1107
     20 C16        -1.2737   -6.6793    2.3347 C.ar      1 <0>        -0.0938
     21 N4          2.0507   -7.6493   -0.4113 N.pl3     1 <0>        -0.7902
     22 N5         -0.7142   -4.3660   -2.2674 N.pl3     1 <0>        -0.7723
     23 H2          0.1770    1.8772   -0.8948 H         1 <0>         0.0828
     24 H3         -1.1461    1.8192    0.2944 H         1 <0>         0.0766
     25 H4          0.5455    1.8610    0.8465 H         1 <0>         0.0761
     26 H5         -2.1050   -0.2147   -0.6200 H         1 <0>         0.1416
     27 H6         -2.0366   -2.6745   -0.6610 H         1 <0>         0.1332
     28 H7          2.0216   -2.5745    0.6842 H         1 <0>         0.1303
     29 H8          1.9458   -0.1147    0.7124 H         1 <0>         0.1400
     30 H9         -2.2556   -3.8588    0.7667 H         1 <0>         0.1272
     31 H10        -4.4608   -4.7254    1.4368 H         1 <0>         0.1339
     32 H11        -4.6246   -6.8417    2.6848 H         1 <0>         0.1346
     33 H12        -2.5832   -8.0919    3.2620 H         1 <0>         0.1346
     34 H13        -0.3785   -7.2295    2.5846 H         1 <0>         0.1222
     35 H14         2.1625   -8.0248   -1.2986 H         1 <0>         0.4415
     36 H15         2.5256   -8.0344    0.3417 H         1 <0>         0.4292
     37 H16        -1.0757   -3.4668   -2.2280 H         1 <0>         0.4283
     38 H17        -0.8354   -4.9029   -3.0661 H         1 <0>         0.4406
     39 H18         1.5871   -6.4550    1.7184 H         1 <0>         0.4341
@<TRIPOS>BOND
     1    1    2 1
     2    1   23 1
     3    1   24 1
     4    1   25 1
     5    2    7 ar
     6    2    3 ar
     7    3    4 ar
     8    3   26 1
     9    4    5 ar
    10    4   27 1
    11    5    6 ar
    12    5    8 1
    13    6    7 ar
    14    6   28 1
    15    7   29 1
    16    8   13 1
    17    8    9 1
    18    9   10 2
    19    9   22 1
    20   10   11 1
    21   11   12 2
    22   11   21 1
    23   12   13 1
    24   12   39 1
    25   13   14 1
    26   13   15 1
    27   15   20 ar
    28   15   16 ar
    29   16   17 ar
    30   16   30 1
    31   17   18 ar
    32   17   31 1
    33   18   19 ar
    34   18   32 1
    35   19   20 ar
    36   19   33 1
    37   20   34 1
    38   21   35 1
    39   21   36 1
    40   22   37 1
    41   22   38 1
@<TRIPOS>MOLECULE
ZINC03076474
   39    41     0     0     0
SMALL
USER_CHARGES

@<TRIPOS>ATOM
      1 C1         -0.0263    1.5034    0.0064 C.3       1 <0>        -0.1287
      2 C2         -0.0041   -0.0034   -0.0012 C.ar      1 <0>        -0.0556
      3 C3          1.0639   -0.6748   -0.5678 C.ar      1 <0>        -0.0951
      4 C4          1.0876   -2.0557   -0.5759 C.ar      1 <0>        -0.1281
      5 C5          0.0373   -2.7700   -0.0142 C.ar      1 <0>         0.0910
      6 C6         -1.0338   -2.0927    0.5541 C.ar      1 <0>        -0.1003
      7 C7         -1.0488   -0.7117    0.5636 C.ar      1 <0>        -0.0969
      8 N1          0.0580   -4.1686   -0.0212 N.pl3     1 <0>        -0.5921
      9 C8         -0.0337   -4.8767   -1.1972 C.2       1 <0>         0.7365
     10 N2         -0.5846   -6.0762   -1.1702 N.2       1 <0>        -0.6329
     11 C9         -1.0240   -6.6086   -0.0172 C.cat     1 <0>         0.7330
     12 N3         -0.7135   -6.0974    1.1443 N.pl3     1 <0>        -0.6985
     13 C10         0.1846   -4.9350    1.2281 C.3       1 <0>         0.4327
     14 H1         -0.1017   -4.3094    2.0735 H         1 <0>         0.1535
     15 C11         1.6085   -5.3985    1.3975 C.ar      1 <0>        -0.1590
     16 C12         2.6467   -4.6447    0.8828 C.ar      1 <0>        -0.0959
     17 C13         3.9528   -5.0698    1.0382 C.ar      1 <0>        -0.1112
     18 C14         4.2208   -6.2486    1.7087 C.ar      1 <0>        -0.0910
     19 C15         3.1827   -7.0019    2.2243 C.ar      1 <0>        -0.1105
     20 C16         1.8769   -6.5746    2.0726 C.ar      1 <0>        -0.0934
     21 N4         -1.8284   -7.7294   -0.0615 N.pl3     1 <0>        -0.7906
     22 N5          0.4350   -4.3495   -2.3684 N.pl3     1 <0>        -0.7718
     23 H2          0.4556    1.8693    0.9130 H         1 <0>         0.0830
     24 H3          0.5081    1.8790   -0.8662 H         1 <0>         0.0764
     25 H4         -1.0588    1.8516   -0.0222 H         1 <0>         0.0759
     26 H5          1.8801   -0.1187   -1.0047 H         1 <0>         0.1414
     27 H6          1.9217   -2.5794   -1.0189 H         1 <0>         0.1316
     28 H7         -1.8522   -2.6453    0.9914 H         1 <0>         0.1305
     29 H8         -1.8795   -0.1844    1.0090 H         1 <0>         0.1400
     30 H9          2.4373   -3.7237    0.3589 H         1 <0>         0.1269
     31 H10         4.7638   -4.4813    0.6355 H         1 <0>         0.1341
     32 H11         5.2412   -6.5811    1.8296 H         1 <0>         0.1348
     33 H12         3.3921   -7.9230    2.7478 H         1 <0>         0.1348
     34 H13         1.0661   -7.1613    2.4786 H         1 <0>         0.1225
     35 H14        -2.0682   -8.1209   -0.9160 H         1 <0>         0.4414
     36 H15        -2.1538   -8.1257    0.7619 H         1 <0>         0.4291
     37 H16         0.9033   -3.5001   -2.3648 H         1 <0>         0.4283
     38 H17         0.2993   -4.8249   -3.2029 H         1 <0>         0.4401
     39 H18        -1.0745   -6.4882    1.9553 H         1 <0>         0.4337
@<TRIPOS>BOND
     1    1    2 1
     2    1   23 1
     3    1   24 1
     4    1   25 1
     5    2    7 ar
     6    2    3 ar
     7    3    4 ar
     8    3   26 1
     9    4    5 ar
    10    4   27 1
    11    5    6 ar
    12    5    8 1
    13    6    7 ar
    14    6   28 1
    15    7   29 1
    16    8   13 1
    17    8    9 1
    18    9   10 2
    19    9   22 1
    20   10   11 1
    21   11   12 2
    22   11   21 1
    23   12   13 1
    24   12   39 1
    25   13   14 1
    26   13   15 1
    27   15   20 ar
    28   15   16 ar
    29   16   17 ar
    30   16   30 1
    31   17   18 ar
    32   17   31 1
    33   18   19 ar
    34   18   32 1
    35   19   20 ar
    36   19   33 1
    37   20   34 1
    38   21   35 1
    39   21   36 1
    40   22   37 1
    41   22   38 1
@<TRIPOS>MOLECULE
ZINC02571257
   34    35     0     0     0
SMALL
USER_CHARGES

@<TRIPOS>ATOM
      1 C1         -0.0057    1.3685   -0.2318 C.ar      1 <0>        -0.0662
      2 C2          1.1785    2.0733   -0.2392 C.ar      1 <0>        -0.1156
      3 C3          2.3814    1.4167   -0.0123 C.ar      1 <0>         0.1081
      4 C4          2.3966    0.0477    0.2230 C.ar      1 <0>        -0.1139
      5 C5          1.2173   -0.6651    0.2322 C.ar      1 <0>        -0.0615
      6 C6          0.0049   -0.0087    0.0044 C.ar      1 <0>        -0.0591
      7 C7         -1.2594   -0.7670    0.0138 C.2       1 <0>         0.1540
      8 N1         -1.2474   -2.0461    0.2334 N.2       1 <0>        -0.2845
      9 N2         -2.4489   -2.7666    0.2423 N.pl3     1 <0>        -0.5378
     10 C8         -2.4364   -4.0949    0.4703 C.2       1 <0>         0.6028
     11 S1         -3.9046   -4.9754    0.4812 S.2       1 <0>        -0.6133
     12 N3         -1.2681   -4.7300    0.6898 N.pl3     1 <0>        -0.7835
     13 O1          3.5464    2.1153   -0.0209 O.3       1 <0>        -0.2288
     14 C9          3.8439    2.8713    1.0659 C.ar      1 <0>         0.3598
     15 C10         4.9717    3.6845    1.0515 C.ar      1 <0>        -0.1087
     16 C11         5.2631    4.4511    2.1671 C.ar      1 <0>         0.0181
     17 C12         4.4127    4.3767    3.2619 C.ar      1 <0>        -0.2629
     18 C13         3.3105    3.5474    3.2062 C.ar      1 <0>         0.2036
     19 N4          3.0554    2.8321    2.1269 N.ar      1 <0>        -0.5081
     20 C14         4.6900    5.1924    4.4984 C.3       1 <0>         0.5231
     21 F1          4.0563    6.4349    4.3892 F         1 <0>        -0.1701
     22 F2          4.2017    4.5169    5.6219 F         1 <0>        -0.1705
     23 F3          6.0696    5.3827    4.6317 F         1 <0>        -0.1716
     24 Cl1         6.0005    3.7375   -0.3458 Cl        1 <0>        -0.0169
     25 H1         -0.9409    1.8805   -0.4039 H         1 <0>         0.1414
     26 H2          1.1713    3.1377   -0.4220 H         1 <0>         0.1358
     27 H3          3.3342   -0.4588    0.3986 H         1 <0>         0.1382
     28 H4          1.2302   -1.7295    0.4149 H         1 <0>         0.1412
     29 H5         -2.1956   -0.2581   -0.1621 H         1 <0>         0.1338
     30 H6         -3.2897   -2.3095    0.0843 H         1 <0>         0.4199
     31 H7         -0.4363   -4.2311    0.6837 H         1 <0>         0.4080
     32 H8         -1.2591   -5.6860    0.8540 H         1 <0>         0.4332
     33 H9          6.1323    5.0919    2.1854 H         1 <0>         0.1692
     34 H10         2.6462    3.4859    4.0555 H         1 <0>         0.1831
@<TRIPOS>BOND
     1    1    6 ar
     2    1    2 ar
     3    1   25 1
     4    2    3 ar
     5    2   26 1
     6    3    4 ar
     7    3   13 1
     8    4    5 ar
     9    4   27 1
    10    5    6 ar
    11    5   28 1
    12    6    7 1
    13    7    8 2
    14    7   29 1
    15    8    9 1
    16    9   10 1
    17    9   30 1
    18   10   11 2
    19   10   12 1
    20   12   31 1
    21   12   32 1
    22   13   14 1
    23   14   19 ar
    24   14   15 ar
    25   15   16 ar
    26   15   24 1
    27   16   17 ar
    28   16   33 1
    29   17   18 ar
    30   17   20 1
    31   18   19 ar
    32   18   34 1
    33   20   21 1
    34   20   22 1
    35   20   23 1
@<TRIPOS>MOLECULE
ZINC04322438
   35    36     0     0     0
SMALL
USER_CHARGES

@<TRIPOS>ATOM
      1 C1         -0.0167    1.3792    0.0096 C.ar      1 <0>        -0.1006
      2 C2          1.1671    2.0881    0.0021 C.ar      1 <0>        -0.0712
      3 C3          2.3842    1.4072   -0.0132 C.ar      1 <0>        -0.0402
      4 C4          2.3966    0.0126   -0.0208 C.ar      1 <0>        -0.0948
      5 C5          1.2061   -0.6851   -0.0132 C.ar      1 <0>        -0.0991
      6 C6          0.0021   -0.0041    0.0020 C.ar      1 <0>        -0.0943
      7 C7         -1.2944   -0.7722    0.0108 C.3       1 <0>         0.1588
      8 N1         -1.7283   -1.0137   -1.3675 N.am      1 <0>        -0.7225
      9 C8         -2.8708   -1.6877   -1.6060 C.2       1 <0>         0.5605
     10 O1         -3.5412   -2.0953   -0.6775 O.2       1 <0>        -0.5292
     11 C9         -3.3085   -1.9313   -2.9964 C.ar      1 <0>        -0.1333
     12 C10        -2.5376   -1.4695   -4.0649 C.ar      1 <0>        -0.0735
     13 C11        -2.9509   -1.7002   -5.3601 C.ar      1 <0>        -0.1175
     14 C12        -4.1284   -2.3883   -5.6020 C.ar      1 <0>        -0.0105
     15 C13        -4.8974   -2.8490   -4.5461 C.ar      1 <0>        -0.1171
     16 C14        -4.4915   -2.6293   -3.2466 C.ar      1 <0>        -0.0453
     17 Cl1        -4.6428   -2.6740   -7.2352 Cl        1 <0>        -0.0581
     18 C15         3.6580    2.1618   -0.0218 C.2       1 <0>         0.4081
     19 N2          3.6434    3.4623   -0.0151 N.2       1 <0>        -0.4136
     20 O2          4.8617    4.1841   -0.0233 O.3       1 <0>        -0.4210
     21 N3          4.8648    1.4830   -0.0370 N.pl3     1 <0>        -0.8693
     22 H1         -0.9598    1.9053    0.0260 H         1 <0>         0.1340
     23 H2          1.1512    3.1680    0.0077 H         1 <0>         0.1415
     24 H3          3.3360   -0.5202   -0.0330 H         1 <0>         0.1290
     25 H4          1.2144   -1.7651   -0.0191 H         1 <0>         0.1335
     26 H5         -1.1484   -1.7258    0.5181 H         1 <0>         0.0829
     27 H6         -2.0555   -0.1944    0.5353 H         1 <0>         0.0833
     28 H7         -1.1934   -0.6884   -2.1084 H         1 <0>         0.4022
     29 H8         -1.6196   -0.9322   -3.8774 H         1 <0>         0.1354
     30 H9         -2.3554   -1.3434   -6.1874 H         1 <0>         0.1417
     31 H10        -5.8148   -3.3845   -4.7408 H         1 <0>         0.1432
     32 H11        -5.0897   -2.9925   -2.4241 H         1 <0>         0.1477
     33 H12         4.7498    5.1446   -0.0173 H         1 <0>         0.4026
     34 H13         4.8756    0.5131   -0.0420 H         1 <0>         0.3966
     35 H14         5.6993    1.9774   -0.0426 H         1 <0>         0.4103
@<TRIPOS>BOND
     1    1    6 ar
     2    1    2 ar
     3    1   22 1
     4    2    3 ar
     5    2   23 1
     6    3    4 ar
     7    3   18 1
     8    4    5 ar
     9    4   24 1
    10    5    6 ar
    11    5   25 1
    12    6    7 1
    13    7    8 1
    14    7   26 1
    15    7   27 1
    16    8    9 am
    17    8   28 1
    18    9   10 2
    19    9   11 1
    20   11   16 ar
    21   11   12 ar
    22   12   13 ar
    23   12   29 1
    24   13   14 ar
    25   13   30 1
    26   14   15 ar
    27   14   17 1
    28   15   16 ar
    29   15   31 1
    30   16   32 1
    31   18   19 2
    32   18   21 1
    33   19   20 1
    34   20   33 1
    35   21   34 1
    36   21   35 1
@<TRIPOS>MOLECULE
ZINC06118700
   24    25     0     0     0
SMALL
USER_CHARGES
(3-hydrazinoquinoxalin-2-yl)hydrazine
@<TRIPOS>ATOM
      1 C1         -0.7496    7.7449   -0.8926 C.ar      1 <0>        -0.1099
      2 C2         -0.0064    7.2546    0.1779 C.ar      1 <0>        -0.1100
      3 C3          0.1476    5.9145    0.3671 C.ar      1 <0>        -0.0843
      4 C4         -0.4495    5.0113   -0.5269 C.ar      1 <0>         0.0818
      5 C5         -1.2055    5.5096   -1.6148 C.ar      1 <0>         0.0820
      6 C6         -1.3429    6.8974   -1.7787 C.ar      1 <0>        -0.0844
      7 N1         -1.7804    4.6552   -2.4739 N.ar      1 <0>        -0.4643
      8 C7         -1.6383    3.3577   -2.2999 C.ar      1 <0>         0.3618
      9 C8         -0.8820    2.8593   -1.2120 C.ar      1 <0>         0.3616
     10 N2         -0.3164    3.6874   -0.3586 N.ar      1 <0>        -0.4640
     11 N3         -0.7405    1.4903   -1.0408 N.pl3     1 <0>        -0.5654
     12 N4         -0.0116    1.0048    0.0076 N.3       1 <0>        -0.5912
     13 N5         -2.2328    2.4740   -3.1882 N.pl3     1 <0>        -0.5653
     14 N6         -2.9636    2.9504   -4.2394 N.3       1 <0>        -0.5912
     15 H1         -0.8575    8.8117   -1.0219 H         1 <0>         0.1303
     16 H2          0.4547    7.9463    0.8673 H         1 <0>         0.1303
     17 H3          0.7265    5.5480    1.2019 H         1 <0>         0.1337
     18 H4         -1.9172    7.2914   -2.6041 H         1 <0>         0.1337
     19 H5         -1.1592    0.8775   -1.6654 H         1 <0>         0.4048
     20 H6          0.0021   -0.0041    0.0020 H         1 <0>         0.3565
     21 H7          0.9253    1.3792    0.0006 H         1 <0>         0.3461
     22 H8         -2.1298    1.5176   -3.0630 H         1 <0>         0.4048
     23 H9         -2.4151    3.5810   -4.8047 H         1 <0>         0.3462
     24 H10        -3.3324    2.1938   -4.7958 H         1 <0>         0.3565
@<TRIPOS>BOND
     1    1    6 ar
     2    1    2 ar
     3    1   15 1
     4    2    3 ar
     5    2   16 1
     6    3    4 ar
     7    3   17 1
     8    4   10 ar
     9    4    5 ar
    10    5    6 ar
    11    5    7 ar
    12    6   18 1
    13    7    8 ar
    14    8    9 ar
    15    8   13 1
    16    9   10 ar
    17    9   11 1
    18   11   12 1
    19   11   19 1
    20   12   20 1
    21   12   21 1
    22   13   14 1
    23   13   22 1
    24   14   23 1
    25   14   24 1
@<TRIPOS>MOLECULE
ZINC05992377
   35    36     0     0     0
SMALL
USER_CHARGES

@<TRIPOS>ATOM
      1 C1         -0.0166    1.3755    0.0096 C.ar      1 <0>        -0.1028
      2 C2          1.1704    2.0863    0.0021 C.ar      1 <0>        -0.0398
      3 C3          2.3822    1.4196   -0.0130 C.ar      1 <0>        -0.0828
      4 C4          2.4138    0.0398   -0.0207 C.ar      1 <0>        -0.0500
      5 C5          1.2209   -0.6821   -0.0132 C.ar      1 <0>        -0.1459
      6 C6          0.0021   -0.0041    0.0020 C.ar      1 <0>        -0.0523
      7 C7          1.2479   -2.1627   -0.0218 C.cat     1 <0>         0.6153
      8 N1          2.2308   -2.7927   -0.5989 N.pl3     1 <0>        -0.7205
      9 N2          0.2331   -2.8737    0.5807 N.pl3     1 <0>        -0.5345
     10 O1          0.2589   -4.2895    0.5724 O.3       1 <0>        -0.3044
     11 C8          3.6705    2.2013   -0.0216 C.3       1 <0>        -0.5807
     12 S1          4.2041    2.5065    1.6851 S.o2      1 <0>         2.4957
     13 O2          3.3019    3.3963    2.3282 O.2       1 <0>        -0.9175
     14 O3          4.5828    1.2853    2.3052 O.2       1 <0>        -0.9246
     15 C9          5.7042    3.4183    1.5344 C.ar      1 <0>        -0.6673
     16 C10         6.9131    2.7520    1.4584 C.ar      1 <0>        -0.0115
     17 C11         8.0902    3.4668    1.3402 C.ar      1 <0>        -0.1294
     18 C12         8.0584    4.8493    1.2979 C.ar      1 <0>         0.0214
     19 C13         6.8483    5.5155    1.3739 C.ar      1 <0>        -0.1281
     20 C14         5.6714    4.7995    1.4864 C.ar      1 <0>        -0.0094
     21 Cl1         9.5365    5.7477    1.1499 Cl        1 <0>        -0.0407
     22 H1         -0.9597    1.9015    0.0259 H         1 <0>         0.1588
     23 H2          1.1507    3.1661    0.0077 H         1 <0>         0.1573
     24 H3          3.3606   -0.4796   -0.0328 H         1 <0>         0.1502
     25 H4         -0.9251   -0.5578    0.0079 H         1 <0>         0.1462
     26 H5          2.2485   -3.7625   -0.6046 H         1 <0>         0.4435
     27 H6         -0.4990   -2.4045    1.0105 H         1 <0>         0.4523
     28 H7         -0.4945   -4.6992    1.0191 H         1 <0>         0.4335
     29 H8          4.4378    1.6315   -0.5458 H         1 <0>         0.1555
     30 H9          3.5145    3.1532   -0.5292 H         1 <0>         0.1602
     31 H10         6.9378    1.6728    1.4919 H         1 <0>         0.1517
     32 H11         9.0346    2.9461    1.2812 H         1 <0>         0.1490
     33 H12         6.8229    6.5947    1.3412 H         1 <0>         0.1500
     34 H13         4.7263    5.3193    1.5410 H         1 <0>         0.1541
     35 H14         2.9453   -2.2921   -1.0231 H         1 <0>         0.4477
@<TRIPOS>BOND
     1    1    6 ar
     2    1    2 ar
     3    1   22 1
     4    2    3 ar
     5    2   23 1
     6    3    4 ar
     7    3   11 1
     8    4    5 ar
     9    4   24 1
    10    5    6 ar
    11    5    7 1
    12    6   25 1
    13    7    8 2
    14    7    9 1
    15    8   26 1
    16    8   35 1
    17    9   10 1
    18    9   27 1
    19   10   28 1
    20   11   12 1
    21   11   29 1
    22   11   30 1
    23   12   13 2
    24   12   14 2
    25   12   15 1
    26   15   20 ar
    27   15   16 ar
    28   16   17 ar
    29   16   31 1
    30   17   18 ar
    31   17   32 1
    32   18   19 ar
    33   18   21 1
    34   19   20 ar
    35   19   33 1
    36   20   34 1
@<TRIPOS>MOLECULE
ZINC03133773
   42    43     0     0     0
SMALL
USER_CHARGES

@<TRIPOS>ATOM
      1 C1          0.0169    1.3410    0.0444 C.2       1 <0>        -0.1500
      2 C2          0.0286    0.0311    0.0285 C.2       1 <0>        -0.1892
      3 C3          1.3404   -0.7105    0.0091 C.3       1 <0>         0.1512
      4 N1          1.3844   -1.6541    1.1288 N.pl3     1 <0>        -0.6800
      5 C4          2.4699   -2.4316    1.3125 C.2       1 <0>         0.5625
      6 S1          3.7972   -2.3165    0.2374 S.2       1 <0>        -0.6019
      7 N2          2.5104   -3.2998    2.3427 N.pl3     1 <0>        -0.4711
      8 N3          1.4242   -3.3940    3.2225 N.am      1 <0>        -0.5366
      9 C5          1.4648   -4.2621    4.2527 C.2       1 <0>         0.5877
     10 O1          2.4022   -5.0291    4.3652 O.2       1 <0>        -0.5310
     11 C6          0.3756   -4.2820    5.2409 C.2       1 <0>        -0.2824
     12 C7          0.4613   -5.0878    6.3744 C.2       1 <0>         0.0823
     13 C8         -0.5913   -5.0805    7.2893 C.2       1 <0>        -0.2366
     14 C9         -1.6786   -4.2975    7.0709 C.2       1 <0>         0.1736
     15 N4         -1.7688   -3.5119    5.9715 N.am      1 <0>        -0.4811
     16 C10        -0.7785   -3.4768    5.0597 C.2       1 <0>         0.5390
     17 O2         -0.8756   -2.7594    4.0790 O.2       1 <0>        -0.5537
     18 C11        -2.9599   -2.6821    5.7742 C.3       1 <0>         0.1292
     19 C12        -2.7454   -1.3350    6.4148 C.ar      1 <0>        -0.1132
     20 C13        -3.1004   -1.1334    7.7358 C.ar      1 <0>        -0.0984
     21 C14        -2.9040    0.1019    8.3240 C.ar      1 <0>        -0.1070
     22 C15        -2.3528    1.1367    7.5916 C.ar      1 <0>        -0.0968
     23 C16        -1.9974    0.9356    6.2700 C.ar      1 <0>        -0.0375
     24 C17        -2.1887   -0.3031    5.6834 C.ar      1 <0>        -0.0816
     25 Cl1        -1.3051    2.2346    5.3496 Cl        1 <0>        -0.0594
     26 H1          0.9474    1.8894    0.0437 H         1 <0>         0.1041
     27 H2         -0.9231    1.8725    0.0538 H         1 <0>         0.1065
     28 H3         -0.9018   -0.5172    0.0292 H         1 <0>         0.1164
     29 H4          1.4355   -1.2560   -0.9298 H         1 <0>         0.0991
     30 H5          2.1613    0.0007    0.1008 H         1 <0>         0.0945
     31 H6          0.6324   -1.7193    1.7380 H         1 <0>         0.3977
     32 H7          3.2916   -3.8593    2.4749 H         1 <0>         0.4563
     33 H8          0.6430   -2.8344    3.0903 H         1 <0>         0.4322
     34 H9          1.3292   -5.7085    6.5417 H         1 <0>         0.1571
     35 H10        -0.5415   -5.6992    8.1731 H         1 <0>         0.1634
     36 H11        -2.4869   -4.3014    7.7872 H         1 <0>         0.1749
     37 H12        -3.1398   -2.5525    4.7070 H         1 <0>         0.1184
     38 H13        -3.8215   -3.1687    6.2314 H         1 <0>         0.1127
     39 H14        -3.5318   -1.9413    8.3081 H         1 <0>         0.1314
     40 H15        -3.1815    0.2588    9.3558 H         1 <0>         0.1379
     41 H16        -2.2000    2.1020    8.0511 H         1 <0>         0.1376
     42 H17        -1.9073   -0.4620    4.6529 H         1 <0>         0.1418
@<TRIPOS>BOND
     1    1    2 2
     2    1   26 1
     3    1   27 1
     4    2    3 1
     5    2   28 1
     6    3    4 1
     7    3   29 1
     8    3   30 1
     9    4    5 1
    10    4   31 1
    11    5    6 2
    12    5    7 1
    13    7    8 1
    14    7   32 1
    15    8    9 am
    16    8   33 1
    17    9   10 2
    18    9   11 1
    19   11   16 1
    20   11   12 2
    21   12   13 1
    22   12   34 1
    23   13   14 2
    24   13   35 1
    25   14   15 1
    26   14   36 1
    27   15   16 am
    28   15   18 1
    29   16   17 2
    30   18   19 1
    31   18   37 1
    32   18   38 1
    33   19   24 ar
    34   19   20 ar
    35   20   21 ar
    36   20   39 1
    37   21   22 ar
    38   21   40 1
    39   22   23 ar
    40   22   41 1
    41   23   24 ar
    42   23   25 1
    43   24   42 1
@<TRIPOS>MOLECULE
ZINC13468996
   34    35     0     0     0
SMALL
USER_CHARGES
methyl 3-[5-(C-methyl-N-ureido-carbonimidoyl)-2-furyl]thiophene-2-carboxylate
@<TRIPOS>ATOM
      1 C1         -5.9197    0.4796   -2.2193 C.3       1 <0>        -0.1554
      2 C2         -6.4136   -0.4553   -1.1455 C.2       1 <0>         0.1886
      3 N1         -7.2521   -1.4047   -1.4444 N.2       1 <0>        -0.2435
      4 N2         -7.6957   -1.5576   -2.7645 N.am      1 <0>        -0.5800
      5 C3         -8.5641   -2.5407   -3.0741 C.2       1 <0>         0.7356
      6 O1         -8.9491   -2.6734   -4.2199 O.2       1 <0>        -0.5821
      7 N3         -9.0057   -3.3768   -2.1137 N.am      1 <0>        -0.8483
      8 C4         -5.9500   -0.2956    0.2343 C.2       1 <0>         0.0283
      9 C5         -6.3203   -1.0772    1.3077 C.2       1 <0>        -0.1435
     10 C6         -5.6394   -0.5796    2.4247 C.2       1 <0>        -0.1799
     11 C7         -4.8932    0.4824    1.9991 C.2       1 <0>         0.0569
     12 O2         -5.0865    0.6413    0.6753 O.3       1 <0>        -0.1306
     13 C8         -4.0188    1.3111    2.8445 C.2       1 <0>         0.0421
     14 C9         -4.4622    1.8599    4.0388 C.2       1 <0>        -0.1625
     15 C10        -3.6160    2.6196    4.7716 C.2       1 <0>        -0.1737
     16 S1         -2.1505    2.6086    3.8471 S.3       1 <0>         0.2266
     17 C11        -2.6892    1.5857    2.4888 C.2       1 <0>        -0.2313
     18 C12        -1.9663    1.1656    1.3471 C.2       1 <0>         0.5454
     19 O3         -2.5028    0.4606    0.5125 O.2       1 <0>        -0.4774
     20 O4         -0.6816    1.5467    1.1837 O.3       1 <0>        -0.3505
     21 C13        -0.0127    1.0858    0.0080 C.3       1 <0>         0.0367
     22 H1         -5.0148    0.0709   -2.6688 H         1 <0>         0.0937
     23 H2         -6.6874    0.5912   -2.9851 H         1 <0>         0.0757
     24 H3         -5.6999    1.4529   -1.7807 H         1 <0>         0.0915
     25 H4         -7.3778   -0.9558   -3.4557 H         1 <0>         0.4047
     26 H5         -8.6986   -3.2710   -1.1997 H         1 <0>         0.4086
     27 H6         -9.6307   -4.0844   -2.3365 H         1 <0>         0.4161
     28 H7         -7.0013   -1.9152    1.2894 H         1 <0>         0.1620
     29 H8         -5.6955   -0.9615    3.4333 H         1 <0>         0.1587
     30 H9         -5.4730    1.6866    4.3775 H         1 <0>         0.1526
     31 H10        -3.8084    3.1157    5.7114 H         1 <0>         0.2019
     32 H11         0.0021   -0.0041    0.0020 H         1 <0>         0.0633
     33 H12         1.0099    1.4631    0.0003 H         1 <0>         0.1062
     34 H13        -0.5399    1.4469   -0.8751 H         1 <0>         0.0633
@<TRIPOS>BOND
     1    1    2 1
     2    1   22 1
     3    1   23 1
     4    1   24 1
     5    2    3 2
     6    2    8 1
     7    3    4 1
     8    4    5 am
     9    4   25 1
    10    5    6 2
    11    5    7 am
    12    7   26 1
    13    7   27 1
    14    8   12 1
    15    8    9 2
    16    9   10 1
    17    9   28 1
    18   10   11 2
    19   10   29 1
    20   11   12 1
    21   11   13 1
    22   13   17 2
    23   13   14 1
    24   14   15 2
    25   14   30 1
    26   15   16 1
    27   15   31 1
    28   16   17 1
    29   17   18 1
    30   18   19 2
    31   18   20 1
    32   20   21 1
    33   21   32 1
    34   21   33 1
    35   21   34 1
@<TRIPOS>MOLECULE
ZINC00128065
   34    35     0     0     0
SMALL
USER_CHARGES

@<TRIPOS>ATOM
      1 C1          0.0464    1.4691   -0.0425 C.ar      1 <0>        -0.1092
      2 C2          1.1964    2.1899    0.2200 C.ar      1 <0>        -0.1230
      3 C3          2.4248    1.5560    0.2187 C.ar      1 <0>        -0.0947
      4 C4          2.5032    0.2012   -0.0446 C.ar      1 <0>        -0.0982
      5 C5          1.3531   -0.5198   -0.3062 C.ar      1 <0>        -0.0955
      6 C6          0.1249    0.1144   -0.3063 C.ar      1 <0>        -0.1237
      7 C7          3.8425   -0.4897   -0.0470 C.3       1 <0>         0.1009
      8 O1          4.1324   -0.9713    1.2668 O.3       1 <0>        -0.3071
      9 C8          5.3128   -1.6241    1.4385 C.ar      1 <0>         0.1389
     10 C9          6.1751   -1.7914    0.3648 C.ar      1 <0>        -0.2004
     11 C10         7.3740   -2.4542    0.5385 C.ar      1 <0>        -0.0297
     12 C11         7.7165   -2.9530    1.7882 C.ar      1 <0>         0.0805
     13 C12         6.8531   -2.7848    2.8626 C.ar      1 <0>        -0.0784
     14 C13         5.6567   -2.1175    2.6885 C.ar      1 <0>        -0.1461
     15 N1          8.9325   -3.6260    1.9650 N.pl3     1 <0>        -0.6161
     16 C14        10.0539   -3.1552    1.3842 C.2       1 <0>         0.5662
     17 S1         10.0230   -1.6609    0.5494 S.2       1 <0>        -0.6106
     18 N2         11.1996   -3.8609    1.4607 N.pl3     1 <0>        -0.5231
     19 N3         11.2242   -5.0532    2.1268 N.3       1 <0>        -0.6240
     20 H1         -0.9138    1.9635   -0.0371 H         1 <0>         0.1246
     21 H2          1.1352    3.2483    0.4257 H         1 <0>         0.1259
     22 H3          3.3234    2.1192    0.4230 H         1 <0>         0.1252
     23 H4          1.4144   -1.5782   -0.5123 H         1 <0>         0.1242
     24 H5         -0.7736   -0.4488   -0.5111 H         1 <0>         0.1255
     25 H6          3.8179   -1.3275   -0.7439 H         1 <0>         0.0730
     26 H7          4.6147    0.2157   -0.3540 H         1 <0>         0.0745
     27 H8          5.9085   -1.4034   -0.6072 H         1 <0>         0.1334
     28 H9          8.0449   -2.5850   -0.2977 H         1 <0>         0.1446
     29 H10         7.1189   -3.1724    3.8349 H         1 <0>         0.1322
     30 H11         4.9869   -1.9830    3.5250 H         1 <0>         0.1366
     31 H12         8.9673   -4.4307    2.5054 H         1 <0>         0.4121
     32 H13        12.0067   -3.5221    1.0427 H         1 <0>         0.4356
     33 H14        10.5341   -5.6890    1.7558 H         1 <0>         0.3475
     34 H15        12.1456   -5.4637    2.0996 H         1 <0>         0.3785
@<TRIPOS>BOND
     1    1    6 ar
     2    1    2 ar
     3    1   20 1
     4    2    3 ar
     5    2   21 1
     6    3    4 ar
     7    3   22 1
     8    4    5 ar
     9    4    7 1
    10    5    6 ar
    11    5   23 1
    12    6   24 1
    13    7    8 1
    14    7   25 1
    15    7   26 1
    16    8    9 1
    17    9   14 ar
    18    9   10 ar
    19   10   11 ar
    20   10   27 1
    21   11   12 ar
    22   11   28 1
    23   12   13 ar
    24   12   15 1
    25   13   14 ar
    26   13   29 1
    27   14   30 1
    28   15   16 1
    29   15   31 1
    30   16   17 2
    31   16   18 1
    32   18   19 1
    33   18   32 1
    34   19   33 1
    35   19   34 1
@<TRIPOS>MOLECULE
ZINC00128065
   34    35     0     0     0
SMALL
USER_CHARGES

@<TRIPOS>ATOM
      1 C1         -0.1441   -0.6616   -2.2517 C.ar      1 <0>        -0.1094
      2 C2          0.8091    0.2943   -1.9538 C.ar      1 <0>        -0.1230
      3 C3          2.1029   -0.0895   -1.6546 C.ar      1 <0>        -0.0947
      4 C4          2.4435   -1.4292   -1.6528 C.ar      1 <0>        -0.0978
      5 C5          1.4901   -2.3852   -1.9497 C.ar      1 <0>        -0.0957
      6 C6          0.1966   -2.0013   -2.2503 C.ar      1 <0>        -0.1237
      7 C7          3.8543   -1.8476   -1.3276 C.3       1 <0>         0.1012
      8 O1          3.9754   -2.0606    0.0803 O.3       1 <0>        -0.3077
      9 C8          5.1944   -2.4456    0.5437 C.ar      1 <0>         0.1260
     10 C9          6.2519   -2.6085   -0.3391 C.ar      1 <0>        -0.1886
     11 C10         7.4901   -2.9994    0.1309 C.ar      1 <0>        -0.0561
     12 C11         7.6766   -3.2289    1.4876 C.ar      1 <0>         0.1169
     13 C12         6.6178   -3.0652    2.3707 C.ar      1 <0>        -0.0927
     14 C13         5.3813   -2.6696    1.8999 C.ar      1 <0>        -0.1350
     15 N1          8.9325   -3.6260    1.9650 N.pl3     1 <0>        -0.6493
     16 C14        10.0705   -3.1483    1.3756 C.cat     1 <0>         0.5176
     17 N2         11.2322   -3.8638    1.4532 N.pl3     1 <0>        -0.4633
     18 N3         12.3979   -3.3745    0.8494 N.pl3     1 <0>        -0.7428
     19 S1         10.0405   -1.6993    0.5662 S.3       1 <0>        -0.5595
     20 H1         -1.1560   -0.3620   -2.4810 H         1 <0>         0.1245
     21 H2          0.5430    1.3410   -1.9553 H         1 <0>         0.1258
     22 H3          2.8478    0.6574   -1.4226 H         1 <0>         0.1252
     23 H4          1.7563   -3.4319   -1.9487 H         1 <0>         0.1240
     24 H5         -0.5481   -2.7481   -2.4827 H         1 <0>         0.1254
     25 H6          4.0905   -2.7710   -1.8564 H         1 <0>         0.0721
     26 H7          4.5461   -1.0643   -1.6374 H         1 <0>         0.0738
     27 H8          6.1067   -2.4300   -1.3943 H         1 <0>         0.1326
     28 H9          8.3132   -3.1270   -0.5566 H         1 <0>         0.1340
     29 H10         6.7621   -3.2438    3.4260 H         1 <0>         0.1321
     30 H11         4.5587   -2.5382    2.5872 H         1 <0>         0.1362
     31 H12         8.9949   -4.2397    2.7136 H         1 <0>         0.4055
     32 H13        12.3804   -2.5278    0.3764 H         1 <0>         0.4321
     33 H14        13.2225   -3.8824    0.9044 H         1 <0>         0.4169
     34 H15        11.2497   -4.7105    1.9262 H         1 <0>         0.4174
@<TRIPOS>BOND
     1    1    6 ar
     2    1    2 ar
     3    1   20 1
     4    2    3 ar
     5    2   21 1
     6    3    4 ar
     7    3   22 1
     8    4    5 ar
     9    4    7 1
    10    5    6 ar
    11    5   23 1
    12    6   24 1
    13    7    8 1
    14    7   25 1
    15    7   26 1
    16    8    9 1
    17    9   14 ar
    18    9   10 ar
    19   10   11 ar
    20   10   27 1
    21   11   12 ar
    22   11   28 1
    23   12   13 ar
    24   12   15 1
    25   13   14 ar
    26   13   29 1
    27   14   30 1
    28   15   16 1
    29   15   31 1
    30   16   17 2
    31   16   19 1
    32   17   18 1
    33   17   34 1
    34   18   32 1
    35   18   33 1
@<TRIPOS>MOLECULE
ZINC13469871
   34    35     0     0     0
SMALL
USER_CHARGES

@<TRIPOS>ATOM
      1 C1         -0.0184    1.5028    0.0103 C.3       1 <0>        -0.1660
      2 C2          0.0021   -0.0041    0.0020 C.2       1 <0>         0.1790
      3 N1          0.0216   -0.6590    1.1224 N.2       1 <0>        -0.2892
      4 N2          0.0237    0.0349    2.3394 N.pl3     1 <0>        -0.5453
      5 C3          0.0443   -0.6551    3.5198 C.cat     1 <0>         0.5799
      6 N3          0.0628   -2.0225    3.5123 N.pl3     1 <0>        -0.7967
      7 S1          0.0467    0.1671    4.9619 S.3       1 <0>        -0.5615
      8 C4         -0.0001   -0.7343   -1.2787 C.ar      1 <0>        -0.0846
      9 C5         -0.0154   -0.0311   -2.4862 C.ar      1 <0>        -0.0463
     10 C6         -0.0174   -0.7178   -3.6810 C.ar      1 <0>        -0.1367
     11 C7         -0.0048   -2.1069   -3.6862 C.ar      1 <0>         0.1446
     12 C8          0.0104   -2.8100   -2.4882 C.ar      1 <0>        -0.1952
     13 C9          0.0188   -2.1315   -1.2888 C.ar      1 <0>        -0.0328
     14 O1         -0.0078   -2.7797   -4.8662 O.3       1 <0>        -0.2361
     15 C10         0.0049   -4.1367   -4.8263 C.ar      1 <0>         0.1445
     16 C11         1.2077   -4.8400   -4.8087 C.ar      1 <0>        -0.0942
     17 C12         1.1778   -6.2200   -4.7680 C.ar      1 <0>         0.1328
     18 N4          0.0304   -6.8713   -4.7458 N.ar      1 <0>        -0.4461
     19 C13        -1.1290   -6.2413   -4.7614 C.ar      1 <0>         0.1329
     20 C14        -1.1845   -4.8619   -4.7960 C.ar      1 <0>        -0.0941
     21 Cl1        -2.7151   -4.0429   -4.8088 Cl        1 <0>        -0.0155
     22 Cl2         2.7228   -3.9930   -4.8381 Cl        1 <0>        -0.0155
     23 H1          1.0042    1.8801    0.0026 H         1 <0>         0.0965
     24 H2         -0.5455    1.8639   -0.8728 H         1 <0>         0.0965
     25 H3         -0.5286    1.8543    0.9071 H         1 <0>         0.0755
     26 H4          0.0614   -2.5029    2.6697 H         1 <0>         0.4053
     27 H5          0.0774   -2.5120    4.3496 H         1 <0>         0.4304
     28 H6         -0.0259    1.0488   -2.4831 H         1 <0>         0.1450
     29 H7         -0.0292   -0.1752   -4.6147 H         1 <0>         0.1448
     30 H8          0.0201   -3.8899   -2.4969 H         1 <0>         0.1267
     31 H9          0.0351   -2.6789   -0.3579 H         1 <0>         0.1377
     32 H10         2.1053   -6.7732   -4.7544 H         1 <0>         0.1832
     33 H11        -2.0459   -6.8116   -4.7423 H         1 <0>         0.1832
     34 H12         0.0105    1.0048    2.3448 H         1 <0>         0.4170
@<TRIPOS>BOND
     1    1    2 1
     2    1   23 1
     3    1   24 1
     4    1   25 1
     5    2    3 2
     6    2    8 1
     7    3    4 1
     8    4    5 2
     9    4   34 1
    10    5    6 1
    11    5    7 1
    12    6   26 1
    13    6   27 1
    14    8   13 ar
    15    8    9 ar
    16    9   10 ar
    17    9   28 1
    18   10   11 ar
    19   10   29 1
    20   11   12 ar
    21   11   14 1
    22   12   13 ar
    23   12   30 1
    24   13   31 1
    25   14   15 1
    26   15   20 ar
    27   15   16 ar
    28   16   17 ar
    29   16   22 1
    30   17   18 ar
    31   17   32 1
    32   18   19 ar
    33   19   20 ar
    34   19   33 1
    35   20   21 1
