@<TRIPOS>MOLECULE
ZINC00901191
   20    21     0     0     0
SMALL
USER_CHARGES
5,8-dihydroxynaphthalene-1,4-dione
@<TRIPOS>ATOM
      1 C1          1.1956   -0.6856   -0.0131 C.ar      1 <0>        -0.1087
      2 C2          0.0021   -0.0041    0.0020 C.ar      1 <0>        -0.1087
      3 C3         -0.0169    1.3937    0.0097 C.ar      1 <0>         0.1561
      4 C4          1.1850    2.1028    0.0020 C.ar      1 <0>        -0.1452
      5 C5          2.4090    1.4038   -0.0134 C.ar      1 <0>        -0.1453
      6 C6          2.4090    0.0083   -0.0209 C.ar      1 <0>         0.1562
      7 O1          3.5812   -0.6717   -0.0353 O.3       1 <0>        -0.4752
      8 C7          3.6728    2.1606   -0.0218 C.2       1 <0>         0.4112
      9 O2          4.7367    1.5719   -0.0347 O.2       1 <0>        -0.4064
     10 C8          3.6429    3.6345   -0.0141 C.2       1 <0>        -0.1399
     11 C9          2.4792    4.2991    0.0005 C.2       1 <0>        -0.1399
     12 C10         1.1946    3.5759    0.0093 C.2       1 <0>         0.4112
     13 O3          0.1470    4.1930    0.0222 O.2       1 <0>        -0.4064
     14 O4         -1.1982    2.0577    0.0189 O.3       1 <0>        -0.4751
     15 H1          1.1958   -1.7656   -0.0185 H         1 <0>         0.1499
     16 H2         -0.9282   -0.5526    0.0083 H         1 <0>         0.1499
     17 H3          3.9131   -0.8645   -0.9228 H         1 <0>         0.4012
     18 H4          4.5714    4.1861   -0.0199 H         1 <0>         0.1570
     19 H5          2.4826    5.3790    0.0063 H         1 <0>         0.1570
     20 H6         -1.5369    2.2456    0.9049 H         1 <0>         0.4012
@<TRIPOS>BOND
     1    1    6 ar
     2    1    2 ar
     3    1   15 1
     4    2    3 ar
     5    2   16 1
     6    3    4 ar
     7    3   14 1
     8    4   12 1
     9    4    5 ar
    10    5    6 ar
    11    5    8 1
    12    6    7 1
    13    7   17 1
    14    8    9 2
    15    8   10 1
    16   10   11 2
    17   10   18 1
    18   11   12 1
    19   11   19 1
    20   12   13 2
    21   14   20 1
@<TRIPOS>MOLECULE
ZINC01593117
   25    26     0     0     0
SMALL
USER_CHARGES
4-ethoxynaphthalene-1,2-dione
@<TRIPOS>ATOM
      1 C1          2.4616    8.0165    0.0176 C.3       1 <0>        -0.1542
      2 C2          1.0474    7.4327    0.0277 C.3       1 <0>         0.0465
      3 O1          1.1212    6.0056    0.0208 O.3       1 <0>        -0.2958
      4 C3         -0.0490    5.3311    0.0283 C.2       1 <0>         0.2421
      5 C4         -1.2167    6.0276    0.0432 C.2       1 <0>        -0.3649
      6 C5         -2.4613    5.3802    0.0520 C.2       1 <0>         0.3709
      7 O2         -3.4893    6.0308    0.0644 O.2       1 <0>        -0.4141
      8 C6         -2.5171    3.8844    0.0455 C.2       1 <0>         0.3560
      9 O3         -3.5804    3.3004    0.0533 O.2       1 <0>        -0.3847
     10 C7         -1.2410    3.1382    0.0298 C.ar      1 <0>        -0.1326
     11 C8         -0.0301    3.8581    0.0217 C.ar      1 <0>        -0.0396
     12 C9          1.1767    3.1652    0.0069 C.ar      1 <0>        -0.0789
     13 C10         1.1767    1.7791    0.0004 C.ar      1 <0>        -0.0921
     14 C11        -0.0126    1.0758    0.0080 C.ar      1 <0>        -0.1023
     15 C12        -1.2248    1.7489    0.0174 C.ar      1 <0>        -0.0585
     16 H1          3.0014    7.6763    0.9013 H         1 <0>         0.0697
     17 H2          2.9855    7.6841   -0.8785 H         1 <0>         0.0697
     18 H3          2.4053    9.1051    0.0229 H         1 <0>         0.0853
     19 H4          0.5076    7.7729   -0.8560 H         1 <0>         0.0758
     20 H5          0.5235    7.7651    0.9239 H         1 <0>         0.0759
     21 H6         -1.1852    7.1072    0.0479 H         1 <0>         0.1531
     22 H7          2.1113    3.7064    0.0002 H         1 <0>         0.1457
     23 H8          2.1147    1.2440   -0.0111 H         1 <0>         0.1401
     24 H9          0.0021   -0.0041    0.0020 H         1 <0>         0.1408
     25 H10        -2.1524    1.1956    0.0188 H         1 <0>         0.1462
@<TRIPOS>BOND
     1    1    2 1
     2    1   16 1
     3    1   17 1
     4    1   18 1
     5    2    3 1
     6    2   19 1
     7    2   20 1
     8    3    4 1
     9    4   11 1
    10    4    5 2
    11    5    6 1
    12    5   21 1
    13    6    7 2
    14    6    8 1
    15    8    9 2
    16    8   10 1
    17   10   15 ar
    18   10   11 ar
    19   11   12 ar
    20   12   13 ar
    21   12   22 1
    22   13   14 ar
    23   13   23 1
    24   14   15 ar
    25   14   24 1
    26   15   25 1
@<TRIPOS>MOLECULE
ZINC00901405
   18    19     0     0     0
SMALL
USER_CHARGES

@<TRIPOS>ATOM
      1 C1         -0.0167    1.3821    0.0096 C.ar      1 <0>        -0.0981
      2 C2          1.1647    2.0985    0.0022 C.ar      1 <0>        -0.0981
      3 C3          2.3850    1.4409   -0.0130 C.ar      1 <0>        -0.0670
      4 C4          2.4201    0.0516   -0.0208 C.ar      1 <0>        -0.1273
      5 C5          1.2176   -0.6776   -0.0132 C.ar      1 <0>        -0.1273
      6 C6          0.0021   -0.0041    0.0020 C.ar      1 <0>        -0.0670
      7 C7          1.2665   -2.1556   -0.0211 C.2       1 <0>         0.4132
      8 O1          0.2365   -2.7998   -0.0152 O.2       1 <0>        -0.4213
      9 C8          2.5707   -2.8448   -0.0368 C.2       1 <0>        -0.1396
     10 C9          3.7162   -2.1502   -0.0436 C.2       1 <0>        -0.1395
     11 C10         3.7080   -0.6750   -0.0365 C.2       1 <0>         0.4132
     12 O2          4.7553   -0.0594   -0.0433 O.2       1 <0>        -0.4213
     13 H1         -0.9612    1.9056    0.0260 H         1 <0>         0.1393
     14 H2          1.1373    3.1781    0.0079 H         1 <0>         0.1393
     15 H3          3.3052    2.0062   -0.0191 H         1 <0>         0.1440
     16 H4         -0.9247   -0.5586    0.0083 H         1 <0>         0.1440
     17 H5          2.6025   -3.9244   -0.0424 H         1 <0>         0.1567
     18 H6          4.6587   -2.6775   -0.0543 H         1 <0>         0.1567
@<TRIPOS>BOND
     1    1    6 ar
     2    1    2 ar
     3    1   13 1
     4    2    3 ar
     5    2   14 1
     6    3    4 ar
     7    3   15 1
     8    4   11 1
     9    4    5 ar
    10    5    6 ar
    11    5    7 1
    12    6   16 1
    13    7    8 2
    14    7    9 1
    15    9   10 2
    16    9   17 1
    17   10   11 1
    18   10   18 1
    19   11   12 2
