@<TRIPOS>MOLECULE
ZINC00966965
   33    35     0     0     0
SMALL
USER_CHARGES
3-(5-benzylidene-4-oxo-2-thioxo-thiazolidin-3-yl)benzoic acid
@<TRIPOS>ATOM
      1 C1         -5.3776    6.0367    0.5237 C.ar      1 <0>        -0.0963
      2 C2         -4.5592    7.0265    1.0401 C.ar      1 <0>        -0.1238
      3 C3         -3.1885    6.9085    0.9519 C.ar      1 <0>        -0.0802
      4 C4         -2.6250    5.7844    0.3379 C.ar      1 <0>        -0.0939
      5 C5         -3.4595    4.7913   -0.1871 C.ar      1 <0>        -0.0926
      6 C6         -4.8282    4.9216   -0.0852 C.ar      1 <0>        -0.1163
      7 C7         -1.1644    5.6503    0.2395 C.2       1 <0>         0.0782
      8 C8         -0.6042    4.4235    0.0966 C.2       1 <0>        -0.2288
      9 C9          0.8014    4.0553   -0.1757 C.2       1 <0>         0.5375
     10 O1          1.6690    4.8980   -0.3093 O.2       1 <0>        -0.4354
     11 N1          1.0675    2.7631   -0.2663 N.am      1 <0>        -0.4662
     12 C10         0.1029    1.8326   -0.1176 C.2       1 <0>         0.2719
     13 S1          0.2480    0.1288   -0.1994 S.2       1 <0>        -0.3190
     14 S2         -1.3638    2.8073    0.1775 S.3       1 <0>         0.0617
     15 C11         2.3823    2.3512   -0.5231 C.ar      1 <0>         0.0594
     16 C12         3.1168    1.7129    0.4691 C.ar      1 <0>        -0.0843
     17 C13         4.4140    1.3050    0.2214 C.ar      1 <0>        -0.1267
     18 C14         4.9886    1.5280   -1.0134 C.ar      1 <0>        -0.0531
     19 C15         4.2590    2.1681   -2.0172 C.ar      1 <0>        -0.1033
     20 C16         2.9477    2.5755   -1.7680 C.ar      1 <0>        -0.0480
     21 C17         4.8713    2.4088   -3.3400 C.2       1 <0>         0.4920
     22 O2          4.2347    2.9658   -4.2117 O.co2     1 <0>        -0.6270
     23 H1         -6.4506    6.1352    0.5960 H         1 <0>         0.1282
     24 H2         -4.9957    7.8935    1.5136 H         1 <0>         0.1301
     25 H3         -2.5513    7.6816    1.3552 H         1 <0>         0.1335
     26 H4         -3.0324    3.9230   -0.6668 H         1 <0>         0.1354
     27 H5         -5.4736    4.1538   -0.4855 H         1 <0>         0.1319
     28 H6         -0.5375    6.5287    0.2811 H         1 <0>         0.1641
     29 H7          2.6725    1.5352    1.4373 H         1 <0>         0.1191
     30 H8          4.9798    0.8097    0.9966 H         1 <0>         0.1304
     31 H9          6.0022    1.2072   -1.2034 H         1 <0>         0.1407
     32 H10         2.3768    3.0671   -2.5418 H         1 <0>         0.1284
     33 O3          6.1357    2.0104   -3.5795 O.co2     1 <0>        -0.7474
@<TRIPOS>BOND
     1    1    6 ar
     2    1    2 ar
     3    1   23 1
     4    2    3 ar
     5    2   24 1
     6    3    4 ar
     7    3   25 1
     8    4    5 ar
     9    4    7 1
    10    5    6 ar
    11    5   26 1
    12    6   27 1
    13    7    8 2
    14    7   28 1
    15    8   14 1
    16    8    9 1
    17    9   10 2
    18    9   11 am
    19   11   12 1
    20   11   15 1
    21   12   13 2
    22   12   14 1
    23   15   20 ar
    24   15   16 ar
    25   16   17 ar
    26   16   29 1
    27   17   18 ar
    28   17   30 1
    29   18   19 ar
    30   18   31 1
    31   19   20 ar
    32   19   21 1
    33   20   32 1
    34   21   22 2
    35   21   33 1
@<TRIPOS>MOLECULE
ZINC00966740
   33    35     0     0     0
SMALL
USER_CHARGES
4-[5-[(4-fluorophenyl)methylene]-4-oxo-2-thioxo-thiazolidin-3-yl]benzoic acid
@<TRIPOS>ATOM
      1 C1          3.3079    3.9882   -0.7820 C.ar      1 <0>        -0.0595
      2 C2          4.2712    4.9712   -0.8456 C.ar      1 <0>        -0.1485
      3 C3          5.5718    4.6988   -0.4485 C.ar      1 <0>         0.1245
      4 C4          5.9110    3.4386    0.0209 C.ar      1 <0>        -0.1561
      5 C5          4.9565    2.4478    0.0953 C.ar      1 <0>        -0.0479
      6 C6          3.6419    2.7155   -0.3042 C.ar      1 <0>        -0.1030
      7 C7          2.6188    1.6638   -0.2282 C.2       1 <0>         0.0749
      8 C8          1.3150    1.9686   -0.4477 C.2       1 <0>        -0.2269
      9 C9          0.1463    1.0733   -0.5703 C.2       1 <0>         0.5396
     10 O1          0.2542   -0.1352   -0.4774 O.2       1 <0>        -0.4385
     11 N1         -1.0221    1.6517   -0.7916 N.am      1 <0>        -0.4649
     12 C10        -1.1378    2.9918   -0.8892 C.2       1 <0>         0.2596
     13 S1         -2.5500    3.9196   -1.1649 S.2       1 <0>        -0.3067
     14 S2          0.5391    3.5639   -0.6681 S.3       1 <0>         0.0591
     15 C11        -2.1631    0.8570   -0.9219 C.ar      1 <0>         0.0676
     16 C12        -2.7783    0.7244   -2.1625 C.ar      1 <0>        -0.0957
     17 C13        -3.8999   -0.0627   -2.2960 C.ar      1 <0>        -0.0672
     18 C14        -4.4269   -0.7204   -1.1807 C.ar      1 <0>        -0.0843
     19 C15        -3.8093   -0.5802    0.0655 C.ar      1 <0>        -0.0782
     20 C16        -2.6849    0.2045    0.1903 C.ar      1 <0>        -0.0988
     21 C17        -5.6313   -1.5604   -1.3186 C.2       1 <0>         0.4875
     22 O2         -6.0878   -2.1317   -0.3482 O.co2     1 <0>        -0.6252
     23 F1          6.5128    5.6657   -0.5189 F         1 <0>        -0.1318
     24 H1          2.2965    4.2003   -1.0957 H         1 <0>         0.1402
     25 H2          4.0140    5.9548   -1.2098 H         1 <0>         0.1467
     26 H3          6.9257    3.2334    0.3284 H         1 <0>         0.1452
     27 H4          5.2219    1.4670    0.4613 H         1 <0>         0.1467
     28 H5          2.9045    0.6481    0.0024 H         1 <0>         0.1667
     29 H6         -2.3729    1.2360   -3.0229 H         1 <0>         0.1205
     30 H7         -4.3742   -0.1690   -3.2605 H         1 <0>         0.1434
     31 H8         -4.2138   -1.0865    0.9295 H         1 <0>         0.1389
     32 H9         -2.2072    0.3132    1.1528 H         1 <0>         0.1185
     33 O3         -6.2253   -1.6944   -2.5206 O.co2     1 <0>        -0.7469
@<TRIPOS>BOND
     1    1    6 ar
     2    1    2 ar
     3    1   24 1
     4    2    3 ar
     5    2   25 1
     6    3    4 ar
     7    3   23 1
     8    4    5 ar
     9    4   26 1
    10    5    6 ar
    11    5   27 1
    12    6    7 1
    13    7    8 2
    14    7   28 1
    15    8   14 1
    16    8    9 1
    17    9   10 2
    18    9   11 am
    19   11   12 1
    20   11   15 1
    21   12   13 2
    22   12   14 1
    23   15   20 ar
    24   15   16 ar
    25   16   17 ar
    26   16   29 1
    27   17   18 ar
    28   17   30 1
    29   18   19 ar
    30   18   21 1
    31   19   20 ar
    32   19   31 1
    33   20   32 1
    34   21   22 2
    35   21   33 1
@<TRIPOS>MOLECULE
ZINC00966733
   33    35     0     0     0
SMALL
USER_CHARGES
3-[5-[(4-fluorophenyl)methylene]-4-oxo-2-thioxo-thiazolidin-3-yl]benzoic acid
@<TRIPOS>ATOM
      1 C1          2.2995    3.2243    2.0011 C.ar      1 <0>        -0.1286
      2 C2          1.3371    3.3361    1.0183 C.ar      1 <0>        -0.0533
      3 C3          1.5535    2.7668   -0.2381 C.ar      1 <0>        -0.1010
      4 C4          2.7494    2.0964   -0.4983 C.ar      1 <0>        -0.0443
      5 C5          3.7115    1.9954    0.4936 C.ar      1 <0>         0.0596
      6 C6          3.4839    2.5601    1.7428 C.ar      1 <0>        -0.0890
      7 N1          4.9142    1.3231    0.2372 N.am      1 <0>        -0.4665
      8 C7          6.0372    2.0165    0.1551 C.2       1 <0>         0.5401
      9 O1          6.0542    3.2253    0.2960 O.2       1 <0>        -0.4421
     10 C8          7.2701    1.2494   -0.1170 C.2       1 <0>        -0.2245
     11 C9          8.5478    1.6851   -0.2525 C.2       1 <0>         0.0746
     12 C10         9.6478    0.7162   -0.3519 C.ar      1 <0>        -0.1026
     13 C11         9.4951   -0.5762    0.1637 C.ar      1 <0>        -0.0652
     14 C12        10.5289   -1.4814    0.0624 C.ar      1 <0>        -0.1492
     15 C13        11.7226   -1.1112   -0.5388 C.ar      1 <0>         0.1217
     16 C14        11.8827    0.1692   -1.0471 C.ar      1 <0>        -0.1564
     17 C15        10.8554    1.0830   -0.9574 C.ar      1 <0>        -0.0506
     18 F1         12.7340   -2.0021   -0.6302 F         1 <0>        -0.1332
     19 S1          6.6155   -0.4110   -0.2185 S.3       1 <0>         0.0546
     20 C16         4.9007   -0.0168    0.0854 C.2       1 <0>         0.2650
     21 S2          3.5627   -1.0820    0.1633 S.2       1 <0>        -0.2919
     22 C17         0.5224    2.8790   -1.2903 C.2       1 <0>         0.4920
     23 O2          0.7149    2.3872   -2.3842 O.co2     1 <0>        -0.6251
     24 H1          2.1287    3.6614    2.9739 H         1 <0>         0.1296
     25 H2          0.4148    3.8597    1.2225 H         1 <0>         0.1408
     26 H3          2.9246    1.6581   -1.4697 H         1 <0>         0.1306
     27 H4          4.2349    2.4795    2.5147 H         1 <0>         0.1169
     28 H5          8.7563    2.7442   -0.2874 H         1 <0>         0.1658
     29 H6          8.5678   -0.8643    0.6364 H         1 <0>         0.1451
     30 H7         10.4109   -2.4802    0.4557 H         1 <0>         0.1454
     31 H8         12.8149    0.4509   -1.5140 H         1 <0>         0.1440
     32 H9         10.9814    2.0797   -1.3536 H         1 <0>         0.1452
     33 O3         -0.6289    3.5315   -1.0384 O.co2     1 <0>        -0.7479
@<TRIPOS>BOND
     1    1    6 ar
     2    1    2 ar
     3    1   24 1
     4    2    3 ar
     5    2   25 1
     6    3    4 ar
     7    3   22 1
     8    4    5 ar
     9    4   26 1
    10    5    6 ar
    11    5    7 1
    12    6   27 1
    13    7   20 1
    14    7    8 am
    15    8    9 2
    16    8   10 1
    17   10   11 2
    18   10   19 1
    19   11   12 1
    20   11   28 1
    21   12   17 ar
    22   12   13 ar
    23   13   14 ar
    24   13   29 1
    25   14   15 ar
    26   14   30 1
    27   15   16 ar
    28   15   18 1
    29   16   17 ar
    30   16   31 1
    31   17   32 1
    32   19   20 1
    33   20   21 2
    34   22   23 2
    35   22   33 1
@<TRIPOS>MOLECULE
ZINC01909686
   35    37     0     0     0
SMALL
USER_CHARGES
3-[5-[(4-nitrophenyl)methylene]-4-oxo-2-thioxo-thiazolidin-3-yl]benzoic acid
@<TRIPOS>ATOM
      1 C1         -9.0120    9.4085   -0.3144 C.ar      1 <0>        -0.1263
      2 C2         -9.0376   10.3012    0.7378 C.ar      1 <0>        -0.0511
      3 C3         -8.0129   10.2916    1.6862 C.ar      1 <0>        -0.1002
      4 C4         -6.9655    9.3774    1.5652 C.ar      1 <0>        -0.0474
      5 C5         -6.9496    8.4855    0.5050 C.ar      1 <0>         0.0591
      6 C6         -7.9713    8.5070   -0.4368 C.ar      1 <0>        -0.0890
      7 N1         -5.8999    7.5654    0.3791 N.am      1 <0>        -0.4663
      8 C7         -6.0347    6.3566    0.8982 C.2       1 <0>         0.5388
      9 O1         -7.0473    6.0212    1.4836 O.2       1 <0>        -0.4310
     10 C8         -4.8918    5.4340    0.7311 C.2       1 <0>        -0.1968
     11 C9         -4.7465    4.1526    1.1511 C.2       1 <0>         0.0459
     12 C10        -3.5945    3.3579    0.7013 C.ar      1 <0>        -0.0291
     13 C11        -3.3370    2.1067    1.2726 C.ar      1 <0>        -0.0822
     14 C12        -2.2548    1.3675    0.8449 C.ar      1 <0>        -0.0542
     15 C13        -1.4243    1.8596   -0.1471 C.ar      1 <0>        -0.0319
     16 C14        -1.6690    3.0987   -0.7137 C.ar      1 <0>        -0.0444
     17 C15        -2.7497    3.8483   -0.3006 C.ar      1 <0>        -0.0982
     18 N2         -0.2645    1.0591   -0.6003 N.pl3     1 <0>         0.0251
     19 O2         -0.0432   -0.0293   -0.1006 O.2       1 <0>        -0.1545
     20 O3          0.4656    1.4868   -1.4765 O.3       1 <0>        -0.1528
     21 S1         -3.7509    6.4743   -0.1698 S.3       1 <0>         0.0581
     22 C16        -4.7759    7.9330   -0.2689 C.2       1 <0>         0.2578
     23 S2         -4.4157    9.4373   -1.0026 S.2       1 <0>        -0.2805
     24 C17        -8.0371   11.2463    2.8134 C.2       1 <0>         0.4914
     25 O4         -7.1444   11.2363    3.6371 O.co2     1 <0>        -0.6259
     26 H1         -9.8056    9.4170   -1.0469 H         1 <0>         0.1308
     27 H2         -9.8499   11.0073    0.8274 H         1 <0>         0.1418
     28 H3         -6.1702    9.3648    2.2958 H         1 <0>         0.1297
     29 H4         -7.9545    7.8138   -1.2648 H         1 <0>         0.1178
     30 H5         -5.4772    3.7161    1.8159 H         1 <0>         0.1738
     31 H6         -3.9845    1.7211    2.0462 H         1 <0>         0.1603
     32 H7         -2.0546    0.4017    1.2847 H         1 <0>         0.1620
     33 H8         -1.0136    3.4775   -1.4840 H         1 <0>         0.1632
     34 H9         -2.9419    4.8129   -0.7468 H         1 <0>         0.1521
     35 O5         -9.0493   12.1278    2.9279 O.co2     1 <0>        -0.7459
@<TRIPOS>BOND
     1    1    6 ar
     2    1    2 ar
     3    1   26 1
     4    2    3 ar
     5    2   27 1
     6    3    4 ar
     7    3   24 1
     8    4    5 ar
     9    4   28 1
    10    5    6 ar
    11    5    7 1
    12    6   29 1
    13    7   22 1
    14    7    8 am
    15    8    9 2
    16    8   10 1
    17   10   11 2
    18   10   21 1
    19   11   12 1
    20   11   30 1
    21   12   17 ar
    22   12   13 ar
    23   13   14 ar
    24   13   31 1
    25   14   15 ar
    26   14   32 1
    27   15   16 ar
    28   15   18 1
    29   16   17 ar
    30   16   33 1
    31   17   34 1
    32   18   19 2
    33   18   20 1
    34   21   22 1
    35   22   23 2
    36   24   25 2
    37   24   35 1
