@<TRIPOS>MOLECULE
ZINC36175770
   59    63     0     0     0
SMALL
USER_CHARGES

@<TRIPOS>ATOM
      1 C1         -0.0184    1.5028    0.0103 C.3       1 <0>        -0.1120
      2 C2          0.0021   -0.0041    0.0020 C.2       1 <0>         0.3967
      3 N1          0.0048   -0.6148   -1.1450 N.2       1 <0>        -0.5255
      4 C3          0.0227   -1.9611   -1.2330 C.ar      1 <0>         0.1850
      5 C4          0.0260   -2.6149   -2.4783 C.ar      1 <0>        -0.1172
      6 C5          0.0444   -3.9657   -2.5660 C.ar      1 <0>        -0.0517
      7 C6          0.0606   -4.7762   -1.4121 C.ar      1 <0>        -0.0684
      8 C7          0.0797   -6.1761   -1.5078 C.ar      1 <0>        -0.1011
      9 C8          0.0954   -6.9314   -0.3736 C.ar      1 <0>        -0.0993
     10 C9          0.0929   -6.3351    0.8837 C.ar      1 <0>        -0.0839
     11 C10         0.0745   -4.9773    1.0131 C.ar      1 <0>        -0.0937
     12 C11         0.0581   -4.1723   -0.1305 C.ar      1 <0>         0.0047
     13 C12         0.0387   -2.7179   -0.0472 C.ar      1 <0>        -0.1999
     14 C13         0.0353   -2.0080    1.2317 C.2       1 <0>         0.5432
     15 N2          0.0222   -0.6546    1.1925 N.am      1 <0>        -0.6436
     16 O1          0.0487   -2.6106    2.2903 O.2       1 <0>        -0.5025
     17 C14         0.1100   -7.2001    2.1176 C.3       1 <0>         0.1647
     18 N3          1.4967   -7.4617    2.5113 N.pl3     1 <0>        -0.7414
     19 C15         1.7663   -8.2429    3.6295 C.ar      1 <0>         0.2264
     20 C16         0.7183   -8.7813    4.3716 C.ar      1 <0>        -0.2079
     21 C17         0.9790   -9.5554    5.4786 C.ar      1 <0>        -0.0080
     22 C18         2.3013   -9.8032    5.8612 C.ar      1 <0>        -0.1834
     23 C19         3.3490   -9.2588    5.1106 C.ar      1 <0>        -0.0343
     24 C20         3.0852   -8.4915    4.0038 C.ar      1 <0>        -0.1779
     25 C21         4.6267   -9.7069    5.7756 C.3       1 <0>         0.1401
     26 N4          4.2245  -10.5231    6.9267 N.am      1 <0>        -0.5807
     27 C22         2.8823  -10.5757    6.9719 C.2       1 <0>         0.5645
     28 O2          2.2390  -11.1762    7.8111 O.2       1 <0>        -0.5158
     29 C23         5.1360  -11.1736    7.8713 C.3       1 <0>         0.0974
     30 H1          6.1665  -10.9586    7.5884 H         1 <0>         0.0731
     31 C24         4.8729  -10.6426    9.2818 C.3       1 <0>        -0.0874
     32 C25         5.2238   -9.1545    9.3403 C.3       1 <0>        -0.1732
     33 C26         4.9647   -8.6315   10.7296 C.2       1 <0>         0.4918
     34 O3          4.5388   -9.3796   11.5931 O.co2     1 <0>        -0.6947
     35 O4          5.1809   -7.4602   10.9903 O.co2     1 <0>        -0.7243
     36 C27         4.9081  -12.6630    7.8446 C.2       1 <0>         0.4963
     37 O5          4.0627  -13.1372    7.1051 O.co2     1 <0>        -0.6824
     38 O6          5.5692  -13.3938    8.5625 O.co2     1 <0>        -0.7018
     39 H2          1.0042    1.8801    0.0026 H         1 <0>         0.1000
     40 H3         -0.5455    1.8639   -0.8728 H         1 <0>         0.1042
     41 H4         -0.5286    1.8543    0.9071 H         1 <0>         0.0877
     42 H5          0.0132   -2.0267   -3.3839 H         1 <0>         0.1393
     43 H6          0.0464   -4.4323   -3.5400 H         1 <0>         0.1375
     44 H7          0.0816   -6.6531   -2.4767 H         1 <0>         0.1324
     45 H8          0.1097   -8.0085   -0.4517 H         1 <0>         0.1302
     46 H9          0.0724   -4.5259    1.9943 H         1 <0>         0.1580
     47 H10        -0.4072   -6.6870    2.9282 H         1 <0>         0.0712
     48 H11        -0.3919   -8.1443    1.9064 H         1 <0>         0.0711
     49 H12         2.2267   -7.0898    1.9920 H         1 <0>         0.3984
     50 H13        -0.3031   -8.5902    4.0772 H         1 <0>         0.1217
     51 H14         0.1635   -9.9710    6.0519 H         1 <0>         0.1275
     52 H15         3.8985   -8.0779    3.4261 H         1 <0>         0.1214
     53 H16         5.2207  -10.3029    5.0827 H         1 <0>         0.0845
     54 H17         5.1980   -8.8414    6.1112 H         1 <0>         0.0864
     55 H18         3.8203  -10.7777    9.5305 H         1 <0>         0.0692
     56 H19         5.4882  -11.1893    9.9965 H         1 <0>         0.0725
     57 H20         6.2764   -9.0193    9.0916 H         1 <0>         0.0463
     58 H21         4.6086   -8.6078    8.6256 H         1 <0>         0.0478
     59 H22         0.0232   -0.1477    2.0195 H         1 <0>         0.4209
@<TRIPOS>BOND
     1    1    2 1
     2    1   39 1
     3    1   40 1
     4    1   41 1
     5    2   15 1
     6    2    3 2
     7    3    4 1
     8    4   13 ar
     9    4    5 ar
    10    5    6 ar
    11    5   42 1
    12    6    7 ar
    13    6   43 1
    14    7   12 ar
    15    7    8 ar
    16    8    9 ar
    17    8   44 1
    18    9   10 ar
    19    9   45 1
    20   10   11 ar
    21   10   17 1
    22   11   12 ar
    23   11   46 1
    24   12   13 ar
    25   13   14 1
    26   14   15 am
    27   14   16 2
    28   15   59 1
    29   17   18 1
    30   17   47 1
    31   17   48 1
    32   18   19 1
    33   18   49 1
    34   19   24 ar
    35   19   20 ar
    36   20   21 ar
    37   20   50 1
    38   21   22 ar
    39   21   51 1
    40   22   27 1
    41   22   23 ar
    42   23   24 ar
    43   23   25 1
    44   24   52 1
    45   25   26 1
    46   25   53 1
    47   25   54 1
    48   26   27 am
    49   26   29 1
    50   27   28 2
    51   29   30 1
    52   29   31 1
    53   29   36 1
    54   31   32 1
    55   31   55 1
    56   31   56 1
    57   32   33 1
    58   32   57 1
    59   32   58 1
    60   33   34 2
    61   33   35 1
    62   36   37 2
    63   36   38 1
