@<TRIPOS>MOLECULE
ZINC13831242
   38    39     0     0     0
SMALL
USER_CHARGES

@<TRIPOS>ATOM
      1 C1          0.0520    1.4663   -0.7361 C.ar      1 <0>        -0.1242
      2 C2          1.2725    2.1064   -0.6521 C.ar      1 <0>        -0.1071
      3 C3          2.3638    1.4503   -0.1009 C.ar      1 <0>         0.0603
      4 C4          2.2294    0.1505    0.3657 C.ar      1 <0>        -0.0944
      5 C5          1.0094   -0.4906    0.2822 C.ar      1 <0>        -0.1044
      6 C6         -0.0832    0.1657   -0.2689 C.ar      1 <0>         0.1418
      7 N1         -1.3214   -0.4843   -0.3539 N.am      1 <0>        -0.6616
      8 C7         -1.3716   -1.8095   -0.5941 C.2       1 <0>         0.5141
      9 O1         -0.3465   -2.4557   -0.6469 O.2       1 <0>        -0.5366
     10 C8         -2.7016   -2.4886   -0.7971 C.3       1 <0>        -0.1504
     11 C9         -2.4788   -3.9809   -1.0505 C.3       1 <0>        -0.0303
     12 H1         -1.8946   -4.4049   -0.2338 H         1 <0>         0.1411
     13 C10        -3.8109   -4.6810   -1.1313 C.2       1 <0>         0.4882
     14 O2         -4.3772   -4.7916   -2.2054 O.co2     1 <0>        -0.6632
     15 O3         -4.3222   -5.1369   -0.1228 O.co2     1 <0>        -0.6311
     16 N2         -1.7539   -4.1600   -2.3155 N.4       1 <0>        -0.6147
     17 O4          3.5652    2.0811   -0.0184 O.3       1 <0>        -0.2310
     18 C11         3.7402    2.9935    0.9739 C.ar      1 <0>         0.1722
     19 C12         2.7144    3.2468    1.8728 C.ar      1 <0>        -0.2030
     20 C13         2.8941    4.1756    2.8819 C.ar      1 <0>         0.1281
     21 C14         4.0991    4.8529    2.9946 C.ar      1 <0>         0.0439
     22 C15         5.1224    4.6005    2.0980 C.ar      1 <0>        -0.0582
     23 C16         4.9472    3.6684    1.0920 C.ar      1 <0>        -0.1098
     24 Br1         6.3495    3.3182   -0.1274 Br        1 <0>        -0.0043
     25 F1          4.2737    5.7603    3.9802 F         1 <0>        -0.1184
     26 F2          1.8955    4.4232    3.7576 F         1 <0>        -0.1146
     27 H2         -0.7985    1.9786   -1.1611 H         1 <0>         0.1395
     28 H3          1.3778    3.1179   -1.0158 H         1 <0>         0.1408
     29 H4          3.0793   -0.3599    0.7940 H         1 <0>         0.1416
     30 H5          0.9050   -1.5024    0.6451 H         1 <0>         0.1519
     31 H6         -2.1424    0.0194   -0.2399 H         1 <0>         0.4211
     32 H7         -3.3155   -2.3590    0.0942 H         1 <0>         0.1424
     33 H8         -3.2083   -2.0461   -1.6548 H         1 <0>         0.1220
     34 H9         -2.2948   -3.7676   -3.0715 H         1 <0>         0.4289
     35 H10        -0.8621   -3.6913   -2.2614 H         1 <0>         0.4208
     36 H11         1.7761    2.7194    1.7846 H         1 <0>         0.1597
     37 H12         6.0601    5.1289    2.1867 H         1 <0>         0.1668
     38 H13        -1.6070   -5.1442   -2.4826 H         1 <0>         0.4324
@<TRIPOS>BOND
     1    1    6 ar
     2    1    2 ar
     3    1   27 1
     4    2    3 ar
     5    2   28 1
     6    3    4 ar
     7    3   17 1
     8    4    5 ar
     9    4   29 1
    10    5    6 ar
    11    5   30 1
    12    6    7 1
    13    7    8 am
    14    7   31 1
    15    8    9 2
    16    8   10 1
    17   10   11 1
    18   10   32 1
    19   10   33 1
    20   11   12 1
    21   11   13 1
    22   11   16 1
    23   13   14 2
    24   13   15 1
    25   16   34 1
    26   16   35 1
    27   16   38 1
    28   17   18 1
    29   18   23 ar
    30   18   19 ar
    31   19   20 ar
    32   19   36 1
    33   20   21 ar
    34   20   26 1
    35   21   22 ar
    36   21   25 1
    37   22   23 ar
    38   22   37 1
    39   23   24 1
@<TRIPOS>MOLECULE
ZINC40914195
   54    58     0     0     0
SMALL
USER_CHARGES

@<TRIPOS>ATOM
      1 C1         -0.0168    1.4120   -0.0038 C.3       1 <0>         0.0268
      2 O1          0.0053   -0.0168   -0.0082 O.3       1 <0>        -0.3185
      3 C2          0.6280   -0.6274    1.0341 C.ar      1 <0>         0.1266
      4 C3          1.2008    0.1329    2.0433 C.ar      1 <0>        -0.2063
      5 C4          1.8327   -0.4901    3.1019 C.ar      1 <0>        -0.0581
      6 C5          1.8951   -1.8703    3.1560 C.ar      1 <0>        -0.1104
      7 C6          1.3254   -2.6304    2.1513 C.ar      1 <0>        -0.0669
      8 C7          0.6869   -2.0122    1.0936 C.ar      1 <0>        -0.1522
      9 C8          2.5855   -2.5474    4.3118 C.3       1 <0>         0.0979
     10 H1          2.9688   -1.7909    4.9966 H         1 <0>         0.0989
     11 C9          3.7284   -3.3742    3.7935 C.2       1 <0>        -0.2594
     12 C10         3.6080   -4.7195    3.6792 C.2       1 <0>         0.4252
     13 O2          2.4699   -5.3455    4.0228 O.3       1 <0>        -0.2408
     14 C11         1.5969   -4.7561    4.8623 C.2       1 <0>         0.1675
     15 C12         1.5969   -3.4254    5.0397 C.2       1 <0>        -0.2587
     16 C13         0.6748   -2.8086    5.9072 C.2       1 <0>         0.4040
     17 O3          0.7101   -1.6035    6.0561 O.2       1 <0>        -0.4445
     18 C14        -0.3530   -3.6152    6.6531 C.3       1 <0>        -0.1607
     19 C15        -0.6774   -4.8756    5.8440 C.3       1 <0>        -0.0414
     20 H2         -1.1228   -4.5938    4.8900 H         1 <0>         0.1001
     21 C16         0.6182   -5.6359    5.6033 C.3       1 <0>        -0.0728
     22 C17        -1.6402   -5.7397    6.6169 C.ar      1 <0>        -0.0686
     23 C18        -1.2570   -6.3079    7.7930 C.ar      1 <0>        -0.1077
     24 C19        -2.1332   -7.1098    8.5214 C.ar      1 <0>        -0.1149
     25 C20        -3.3978   -7.3486    8.0779 C.ar      1 <0>        -0.1013
     26 C21        -3.8293   -6.7792    6.8681 C.ar      1 <0>        -0.0504
     27 C22        -2.9399   -5.9584    6.1302 C.ar      1 <0>        -0.0401
     28 C23        -3.3736   -5.3840    4.9229 C.ar      1 <0>        -0.1128
     29 C24        -4.6398   -5.6181    4.4826 C.ar      1 <0>        -0.1108
     30 C25        -5.5165   -6.4199    5.2114 C.ar      1 <0>        -0.1149
     31 C26        -5.1273   -7.0034    6.3778 C.ar      1 <0>        -0.1053
     32 N1          4.6659   -5.4542    3.2042 N.pl3     1 <0>        -0.8291
     33 C27         4.9537   -2.7359    3.4171 C.1       1 <0>         0.2718
     34 N2          5.9258   -2.2295    3.1184 N.1       1 <0>        -0.4389
     35 H3          1.0050    1.7913   -0.0103 H         1 <0>         0.0554
     36 H4         -0.5428    1.7700   -0.8889 H         1 <0>         0.1003
     37 H5         -0.5296    1.7647    0.8910 H         1 <0>         0.0560
     38 H6          1.1530    1.2111    2.0011 H         1 <0>         0.1278
     39 H7          2.2788    0.1013    3.8878 H         1 <0>         0.1251
     40 H8          1.3757   -3.7083    2.1956 H         1 <0>         0.1201
     41 H9          0.2382   -2.6063    0.3113 H         1 <0>         0.1293
     42 H10         0.0430   -3.8991    7.6281 H         1 <0>         0.1081
     43 H11        -1.2582   -3.0221    6.7835 H         1 <0>         0.1052
     44 H12         0.4064   -6.5243    5.0083 H         1 <0>         0.1062
     45 H13         1.0500   -5.9343    6.5587 H         1 <0>         0.1113
     46 H14        -0.2587   -6.1349    8.1670 H         1 <0>         0.1248
     47 H15        -1.8041   -7.5487    9.4517 H         1 <0>         0.1254
     48 H16        -4.0659   -7.9728    8.6527 H         1 <0>         0.1277
     49 H17        -2.7056   -4.7600    4.3478 H         1 <0>         0.1295
     50 H18        -4.9705   -5.1755    3.5546 H         1 <0>         0.1243
     51 H19        -6.5163   -6.5893    4.8397 H         1 <0>         0.1240
     52 H20        -5.8172   -7.6230    6.9314 H         1 <0>         0.1278
     53 H21         5.4911   -5.0102    2.9536 H         1 <0>         0.4267
     54 H22         4.5882   -6.4174    3.1192 H         1 <0>         0.4121
@<TRIPOS>BOND
     1    1    2 1
     2    1   35 1
     3    1   36 1
     4    1   37 1
     5    2    3 1
     6    3    8 ar
     7    3    4 ar
     8    4    5 ar
     9    4   38 1
    10    5    6 ar
    11    5   39 1
    12    6    7 ar
    13    6    9 1
    14    7    8 ar
    15    7   40 1
    16    8   41 1
    17    9   10 1
    18    9   15 1
    19    9   11 1
    20   11   12 2
    21   11   33 1
    22   12   13 1
    23   12   32 1
    24   13   14 1
    25   14   21 1
    26   14   15 2
    27   15   16 1
    28   16   17 2
    29   16   18 1
    30   18   19 1
    31   18   42 1
    32   18   43 1
    33   19   20 1
    34   19   21 1
    35   19   22 1
    36   21   44 1
    37   21   45 1
    38   22   27 ar
    39   22   23 ar
    40   23   24 ar
    41   23   46 1
    42   24   25 ar
    43   24   47 1
    44   25   26 ar
    45   25   48 1
    46   26   31 ar
    47   26   27 ar
    48   27   28 ar
    49   28   29 ar
    50   28   49 1
    51   29   30 ar
    52   29   50 1
    53   30   31 ar
    54   30   51 1
    55   31   52 1
    56   32   53 1
    57   32   54 1
    58   33   34 3
@<TRIPOS>MOLECULE
ZINC40914197
   54    58     0     0     0
SMALL
USER_CHARGES

@<TRIPOS>ATOM
      1 C1         -0.0015    1.4431    0.0155 C.3       1 <0>         0.0268
      2 O1          0.0159    0.0143    0.0037 O.3       1 <0>        -0.3186
      3 C2          0.6367   -0.6038    1.0427 C.ar      1 <0>         0.1265
      4 C3          1.2122    0.1493    2.0557 C.ar      1 <0>        -0.2063
      5 C4          1.8423   -0.4813    3.1110 C.ar      1 <0>        -0.0579
      6 C5          1.9000   -1.8620    3.1579 C.ar      1 <0>        -0.1101
      7 C6          1.3277   -2.6149    2.1493 C.ar      1 <0>        -0.0671
      8 C7          0.6911   -1.9891    1.0950 C.ar      1 <0>        -0.1522
      9 C8          2.5884   -2.5474    4.3100 C.3       1 <0>         0.0982
     10 H1          2.9744   -1.7958    4.9987 H         1 <0>         0.0985
     11 C9          1.6014   -3.4223    5.0303 C.2       1 <0>        -0.2601
     12 C10         1.6011   -4.7637    4.8355 C.2       1 <0>         0.4259
     13 O2          2.4753   -5.3430    3.9959 O.3       1 <0>        -0.2414
     14 C11         3.6144   -4.7100    3.6556 C.2       1 <0>         0.1681
     15 C12         3.7333   -3.3791    3.7850 C.2       1 <0>        -0.2589
     16 C13         4.9277   -2.7194    3.4368 C.2       1 <0>         0.4041
     17 O3          4.9979   -1.5123    3.5525 O.2       1 <0>        -0.4441
     18 C14         6.1186   -3.4829    2.9244 C.3       1 <0>        -0.1607
     19 C15         6.0823   -4.9028    3.4999 C.3       1 <0>        -0.0409
     20 H2          6.1718   -4.8604    4.5854 H         1 <0>         0.0984
     21 C16         4.7552   -5.5404    3.1169 C.3       1 <0>        -0.0730
     22 C17         7.2198   -5.7097    2.9291 C.ar      1 <0>        -0.0697
     23 C18         7.2554   -5.9964    1.5988 C.ar      1 <0>        -0.1064
     24 C19         8.2989   -6.7411    1.0531 C.ar      1 <0>        -0.1145
     25 C20         9.3129   -7.2040    1.8344 C.ar      1 <0>        -0.1012
     26 C21         9.3105   -6.9282    3.2121 C.ar      1 <0>        -0.0506
     27 C22         8.2522   -6.1653    3.7662 C.ar      1 <0>        -0.0401
     28 C23         8.2530   -5.8844    5.1434 C.ar      1 <0>        -0.1138
     29 C24         9.2699   -6.3423    5.9233 C.ar      1 <0>        -0.1109
     30 C25        10.3139   -7.0869    5.3773 C.ar      1 <0>        -0.1156
     31 C26        10.3397   -7.3896    4.0506 C.ar      1 <0>        -0.1046
     32 N1          0.6922   -5.5431    5.5070 N.pl3     1 <0>        -0.8290
     33 C27         0.6544   -2.8345    5.9294 C.1       1 <0>         0.2719
     34 N2         -0.0967   -2.3682    6.6427 N.1       1 <0>        -0.4390
     35 H3          1.0217    1.8190    0.0109 H         1 <0>         0.0561
     36 H4         -0.5264    1.8074   -0.8676 H         1 <0>         0.1003
     37 H5         -0.5129    1.7929    0.9123 H         1 <0>         0.0554
     38 H6          1.1680    1.2278    2.0192 H         1 <0>         0.1278
     39 H7          2.2904    0.1045    3.8999 H         1 <0>         0.1252
     40 H8          1.3744   -3.6932    2.1880 H         1 <0>         0.1200
     41 H9          0.2403   -2.5777    0.3096 H         1 <0>         0.1294
     42 H10         6.0820   -3.5291    1.8360 H         1 <0>         0.1087
     43 H11         7.0351   -2.9844    3.2399 H         1 <0>         0.1051
     44 H12         4.7042   -6.5441    3.5389 H         1 <0>         0.1050
     45 H13         4.6796   -5.5997    2.0311 H         1 <0>         0.1120
     46 H14         6.4627   -5.6415    0.9569 H         1 <0>         0.1257
     47 H15         8.3031   -6.9545   -0.0056 H         1 <0>         0.1259
     48 H16        10.1149   -7.7807    1.3977 H         1 <0>         0.1280
     49 H17         7.4510   -5.3080    5.5803 H         1 <0>         0.1288
     50 H18         9.2680   -6.1250    6.9812 H         1 <0>         0.1240
     51 H19        11.1089   -7.4380    6.0185 H         1 <0>         0.1240
     52 H20        11.1548   -7.9683    3.6417 H         1 <0>         0.1280
     53 H21         0.0572   -5.1331    6.1150 H         1 <0>         0.4268
     54 H22         0.6849   -6.5039    5.3736 H         1 <0>         0.4120
@<TRIPOS>BOND
     1    1    2 1
     2    1   35 1
     3    1   36 1
     4    1   37 1
     5    2    3 1
     6    3    8 ar
     7    3    4 ar
     8    4    5 ar
     9    4   38 1
    10    5    6 ar
    11    5   39 1
    12    6    7 ar
    13    6    9 1
    14    7    8 ar
    15    7   40 1
    16    8   41 1
    17    9   10 1
    18    9   15 1
    19    9   11 1
    20   11   12 2
    21   11   33 1
    22   12   13 1
    23   12   32 1
    24   13   14 1
    25   14   21 1
    26   14   15 2
    27   15   16 1
    28   16   17 2
    29   16   18 1
    30   18   19 1
    31   18   42 1
    32   18   43 1
    33   19   20 1
    34   19   21 1
    35   19   22 1
    36   21   44 1
    37   21   45 1
    38   22   27 ar
    39   22   23 ar
    40   23   24 ar
    41   23   46 1
    42   24   25 ar
    43   24   47 1
    44   25   26 ar
    45   25   48 1
    46   26   31 ar
    47   26   27 ar
    48   27   28 ar
    49   28   29 ar
    50   28   49 1
    51   29   30 ar
    52   29   50 1
    53   30   31 ar
    54   30   51 1
    55   31   52 1
    56   32   53 1
    57   32   54 1
    58   33   34 3
@<TRIPOS>MOLECULE
ZINC40914199
   54    58     0     0     0
SMALL
USER_CHARGES

@<TRIPOS>ATOM
      1 C1         -0.0140    1.4074   -0.0064 C.3       1 <0>         0.0268
      2 O1          0.0078   -0.0214   -0.0108 O.3       1 <0>        -0.3186
      3 C2          0.6304   -0.6321    1.0315 C.ar      1 <0>         0.1265
      4 C3          1.2036    0.1281    2.0406 C.ar      1 <0>        -0.2063
      5 C4          1.8355   -0.4951    3.0992 C.ar      1 <0>        -0.0579
      6 C5          1.8975   -1.8753    3.1533 C.ar      1 <0>        -0.1101
      7 C6          1.3275   -2.6352    2.1487 C.ar      1 <0>        -0.0670
      8 C7          0.6890   -2.0169    1.0911 C.ar      1 <0>        -0.1523
      9 C8          2.5879   -2.5525    4.3091 C.3       1 <0>         0.0982
     10 H1          2.9715   -1.7961    4.9938 H         1 <0>         0.0986
     11 C9          3.7304   -3.3799    3.7907 C.2       1 <0>        -0.2601
     12 C10         3.6086   -4.7250    3.6754 C.2       1 <0>         0.4259
     13 O2          2.4696   -5.3503    4.0166 O.3       1 <0>        -0.2414
     14 C11         1.5925   -4.7602    4.8513 C.2       1 <0>         0.1680
     15 C12         1.5992   -3.4304    5.0370 C.2       1 <0>        -0.2588
     16 C13         0.6868   -2.8152    5.9157 C.2       1 <0>         0.4040
     17 O3          0.7094   -1.6081    6.0499 O.2       1 <0>        -0.4442
     18 C14        -0.3158   -3.6259    6.6909 C.3       1 <0>        -0.1616
     19 C15         0.2540   -5.0296    6.9221 C.3       1 <0>        -0.0408
     20 H2          1.1539   -4.9635    7.5335 H         1 <0>         0.0984
     21 C16         0.5940   -5.6372    5.5688 C.3       1 <0>        -0.0721
     22 C17        -0.7719   -5.8837    7.6216 C.ar      1 <0>        -0.0703
     23 C18        -2.0170   -6.0298    7.0911 C.ar      1 <0>        -0.1053
     24 C19        -2.9785   -6.8153    7.7235 C.ar      1 <0>        -0.1146
     25 C20        -2.7008   -7.4590    8.8904 C.ar      1 <0>        -0.1009
     26 C21        -1.4264   -7.3319    9.4682 C.ar      1 <0>        -0.0508
     27 C22        -0.4463   -6.5379    8.8216 C.ar      1 <0>        -0.0400
     28 C23         0.8303   -6.4156    9.3967 C.ar      1 <0>        -0.1140
     29 C24         1.1096   -7.0640   10.5601 C.ar      1 <0>        -0.1108
     30 C25         0.1479   -7.8500   11.1925 C.ar      1 <0>        -0.1158
     31 C26        -1.1029   -7.9809   10.6721 C.ar      1 <0>        -0.1043
     32 N1          4.6666   -5.4604    3.2016 N.pl3     1 <0>        -0.8290
     33 C27         4.9565   -2.7425    3.4154 C.1       1 <0>         0.2719
     34 N2          5.9293   -2.2368    3.1177 N.1       1 <0>        -0.4390
     35 H3          1.0080    1.7864   -0.0130 H         1 <0>         0.0554
     36 H4         -0.5399    1.7655   -0.8914 H         1 <0>         0.1003
     37 H5         -0.5266    1.7603    0.8885 H         1 <0>         0.0561
     38 H6          1.1560    1.2062    1.9984 H         1 <0>         0.1278
     39 H7          2.2818    0.0963    3.8850 H         1 <0>         0.1252
     40 H8          1.3775   -3.7131    2.1930 H         1 <0>         0.1200
     41 H9          0.2401   -2.6110    0.3088 H         1 <0>         0.1293
     42 H10        -0.5083   -3.1473    7.6511 H         1 <0>         0.1055
     43 H11        -1.2441   -3.6975    6.1241 H         1 <0>         0.1088
     44 H12        -0.3126   -5.7202    4.9694 H         1 <0>         0.1118
     45 H13         1.0223   -6.6286    5.7168 H         1 <0>         0.1046
     46 H14        -2.2634   -5.5291    6.1665 H         1 <0>         0.1258
     47 H15        -3.9589   -6.9146    7.2815 H         1 <0>         0.1259
     48 H16        -3.4563   -8.0639    9.3697 H         1 <0>         0.1280
     49 H17         1.5858   -5.8106    8.9176 H         1 <0>         0.1286
     50 H18         2.0914   -6.9683   10.9998 H         1 <0>         0.1239
     51 H19         0.3956   -8.3543   12.1148 H         1 <0>         0.1240
     52 H20        -1.8381   -8.5927   11.1736 H         1 <0>         0.1280
     53 H21         5.4926   -5.0170    2.9526 H         1 <0>         0.4268
     54 H22         4.5881   -6.4234    3.1159 H         1 <0>         0.4120
@<TRIPOS>BOND
     1    1    2 1
     2    1   35 1
     3    1   36 1
     4    1   37 1
     5    2    3 1
     6    3    8 ar
     7    3    4 ar
     8    4    5 ar
     9    4   38 1
    10    5    6 ar
    11    5   39 1
    12    6    7 ar
    13    6    9 1
    14    7    8 ar
    15    7   40 1
    16    8   41 1
    17    9   10 1
    18    9   15 1
    19    9   11 1
    20   11   12 2
    21   11   33 1
    22   12   13 1
    23   12   32 1
    24   13   14 1
    25   14   21 1
    26   14   15 2
    27   15   16 1
    28   16   17 2
    29   16   18 1
    30   18   19 1
    31   18   42 1
    32   18   43 1
    33   19   20 1
    34   19   21 1
    35   19   22 1
    36   21   44 1
    37   21   45 1
    38   22   27 ar
    39   22   23 ar
    40   23   24 ar
    41   23   46 1
    42   24   25 ar
    43   24   47 1
    44   25   26 ar
    45   25   48 1
    46   26   31 ar
    47   26   27 ar
    48   27   28 ar
    49   28   29 ar
    50   28   49 1
    51   29   30 ar
    52   29   50 1
    53   30   31 ar
    54   30   51 1
    55   31   52 1
    56   32   53 1
    57   32   54 1
    58   33   34 3
@<TRIPOS>MOLECULE
ZINC40914200
   54    58     0     0     0
SMALL
USER_CHARGES

@<TRIPOS>ATOM
      1 C1         -0.0061    1.4371    0.0161 C.3       1 <0>         0.0268
      2 O1          0.0116    0.0083    0.0044 O.3       1 <0>        -0.3186
      3 C2          0.6327   -0.6096    1.0433 C.ar      1 <0>         0.1266
      4 C3          1.2080    0.1437    2.0563 C.ar      1 <0>        -0.2064
      5 C4          1.8383   -0.4868    3.1116 C.ar      1 <0>        -0.0581
      6 C5          1.8964   -1.8674    3.1585 C.ar      1 <0>        -0.1103
      7 C6          1.3242   -2.6205    2.1499 C.ar      1 <0>        -0.0670
      8 C7          0.6874   -1.9949    1.0957 C.ar      1 <0>        -0.1522
      9 C8          2.5851   -2.5526    4.3106 C.3       1 <0>         0.0979
     10 H1          2.9708   -1.8008    4.9992 H         1 <0>         0.0989
     11 C9          1.5982   -3.4274    5.0311 C.2       1 <0>        -0.2594
     12 C10         1.5981   -4.7690    4.8371 C.2       1 <0>         0.4251
     13 O2          2.4743   -5.3484    3.9993 O.3       1 <0>        -0.2409
     14 C11         3.6158   -4.7160    3.6657 C.2       1 <0>         0.1676
     15 C12         3.7302   -3.3838    3.7855 C.2       1 <0>        -0.2587
     16 C13         4.9193   -2.7218    3.4236 C.2       1 <0>         0.4040
     17 O3          4.9955   -1.5168    3.5571 O.2       1 <0>        -0.4445
     18 C14         6.0973   -3.4800    2.8750 C.3       1 <0>        -0.1617
     19 C15         5.5895   -4.7392    2.1643 C.3       1 <0>        -0.0414
     20 H2          4.9683   -4.4550    1.3149 H         1 <0>         0.1001
     21 C16         4.7675   -5.5492    3.1557 C.3       1 <0>        -0.0719
     22 C17         6.7608   -5.5568    1.6841 C.ar      1 <0>        -0.0693
     23 C18         7.7298   -5.9433    2.5586 C.ar      1 <0>        -0.1067
     24 C19         8.8200   -6.6995    2.1331 C.ar      1 <0>        -0.1150
     25 C20         8.9480   -7.0733    0.8304 C.ar      1 <0>        -0.1011
     26 C21         7.9676   -6.6931   -0.1014 C.ar      1 <0>        -0.0507
     27 C22         6.8554   -5.9291    0.3326 C.ar      1 <0>        -0.0401
     28 C23         5.8718   -5.5538   -0.5985 C.ar      1 <0>        -0.1131
     29 C24         5.9968   -5.9327   -1.8996 C.ar      1 <0>        -0.1107
     30 C25         7.0872   -6.6894   -2.3252 C.ar      1 <0>        -0.1152
     31 C26         8.0657   -7.0598   -1.4547 C.ar      1 <0>        -0.1051
     32 N1          0.6879   -5.5482    5.5071 N.pl3     1 <0>        -0.8291
     33 C27         0.6509   -2.8394    5.9297 C.1       1 <0>         0.2718
     34 N2         -0.1005   -2.3729    6.6426 N.1       1 <0>        -0.4389
     35 H3          1.0169    1.8132    0.0114 H         1 <0>         0.0561
     36 H4         -0.5312    1.8012   -0.8669 H         1 <0>         0.1003
     37 H5         -0.5177    1.7867    0.9129 H         1 <0>         0.0554
     38 H6          1.1635    1.2222    2.0197 H         1 <0>         0.1278
     39 H7          2.2863    0.0992    3.9004 H         1 <0>         0.1251
     40 H8          1.3712   -3.6987    2.1887 H         1 <0>         0.1201
     41 H9          0.2367   -2.5836    0.3104 H         1 <0>         0.1293
     42 H10         6.6368   -2.8528    2.1653 H         1 <0>         0.1055
     43 H11         6.7609   -3.7642    3.6916 H         1 <0>         0.1082
     44 H12         5.3970   -5.8495    3.9934 H         1 <0>         0.1112
     45 H13         4.3798   -6.4377    2.6573 H         1 <0>         0.1057
     46 H14         7.6525   -5.6593    3.5977 H         1 <0>         0.1250
     47 H15         9.5749   -6.9931    2.8474 H         1 <0>         0.1255
     48 H16         9.7988   -7.6589    0.5148 H         1 <0>         0.1278
     49 H17         5.0210   -4.9681   -0.2831 H         1 <0>         0.1295
     50 H18         5.2396   -5.6429   -2.6131 H         1 <0>         0.1243
     51 H19         7.1622   -6.9772   -3.3634 H         1 <0>         0.1239
     52 H20         8.9053   -7.6455   -1.7989 H         1 <0>         0.1277
     53 H21         0.0516   -5.1379    6.1135 H         1 <0>         0.4267
     54 H22         0.6809   -6.5090    5.3740 H         1 <0>         0.4121
@<TRIPOS>BOND
     1    1    2 1
     2    1   35 1
     3    1   36 1
     4    1   37 1
     5    2    3 1
     6    3    8 ar
     7    3    4 ar
     8    4    5 ar
     9    4   38 1
    10    5    6 ar
    11    5   39 1
    12    6    7 ar
    13    6    9 1
    14    7    8 ar
    15    7   40 1
    16    8   41 1
    17    9   10 1
    18    9   15 1
    19    9   11 1
    20   11   12 2
    21   11   33 1
    22   12   13 1
    23   12   32 1
    24   13   14 1
    25   14   21 1
    26   14   15 2
    27   15   16 1
    28   16   17 2
    29   16   18 1
    30   18   19 1
    31   18   42 1
    32   18   43 1
    33   19   20 1
    34   19   21 1
    35   19   22 1
    36   21   44 1
    37   21   45 1
    38   22   27 ar
    39   22   23 ar
    40   23   24 ar
    41   23   46 1
    42   24   25 ar
    43   24   47 1
    44   25   26 ar
    45   25   48 1
    46   26   31 ar
    47   26   27 ar
    48   27   28 ar
    49   28   29 ar
    50   28   49 1
    51   29   30 ar
    52   29   50 1
    53   30   31 ar
    54   30   51 1
    55   31   52 1
    56   32   53 1
    57   32   54 1
    58   33   34 3
