@<TRIPOS>MOLECULE
ZINC13831242
   38    39     0     0     0
SMALL
USER_CHARGES

@<TRIPOS>ATOM
      1 C1          0.0520    1.4663   -0.7361 C.ar      1 <0>        -0.1242
      2 C2          1.2725    2.1064   -0.6521 C.ar      1 <0>        -0.1071
      3 C3          2.3638    1.4503   -0.1009 C.ar      1 <0>         0.0603
      4 C4          2.2294    0.1505    0.3657 C.ar      1 <0>        -0.0944
      5 C5          1.0094   -0.4906    0.2822 C.ar      1 <0>        -0.1044
      6 C6         -0.0832    0.1657   -0.2689 C.ar      1 <0>         0.1418
      7 N1         -1.3214   -0.4843   -0.3539 N.am      1 <0>        -0.6616
      8 C7         -1.3716   -1.8095   -0.5941 C.2       1 <0>         0.5141
      9 O1         -0.3465   -2.4557   -0.6469 O.2       1 <0>        -0.5366
     10 C8         -2.7016   -2.4886   -0.7971 C.3       1 <0>        -0.1504
     11 C9         -2.4788   -3.9809   -1.0505 C.3       1 <0>        -0.0303
     12 H1         -1.8946   -4.4049   -0.2338 H         1 <0>         0.1411
     13 C10        -3.8109   -4.6810   -1.1313 C.2       1 <0>         0.4882
     14 O2         -4.3772   -4.7916   -2.2054 O.co2     1 <0>        -0.6632
     15 O3         -4.3222   -5.1369   -0.1228 O.co2     1 <0>        -0.6311
     16 N2         -1.7539   -4.1600   -2.3155 N.4       1 <0>        -0.6147
     17 O4          3.5652    2.0811   -0.0184 O.3       1 <0>        -0.2310
     18 C11         3.7402    2.9935    0.9739 C.ar      1 <0>         0.1722
     19 C12         2.7144    3.2468    1.8728 C.ar      1 <0>        -0.2030
     20 C13         2.8941    4.1756    2.8819 C.ar      1 <0>         0.1281
     21 C14         4.0991    4.8529    2.9946 C.ar      1 <0>         0.0439
     22 C15         5.1224    4.6005    2.0980 C.ar      1 <0>        -0.0582
     23 C16         4.9472    3.6684    1.0920 C.ar      1 <0>        -0.1098
     24 Br1         6.3495    3.3182   -0.1274 Br        1 <0>        -0.0043
     25 F1          4.2737    5.7603    3.9802 F         1 <0>        -0.1184
     26 F2          1.8955    4.4232    3.7576 F         1 <0>        -0.1146
     27 H2         -0.7985    1.9786   -1.1611 H         1 <0>         0.1395
     28 H3          1.3778    3.1179   -1.0158 H         1 <0>         0.1408
     29 H4          3.0793   -0.3599    0.7940 H         1 <0>         0.1416
     30 H5          0.9050   -1.5024    0.6451 H         1 <0>         0.1519
     31 H6         -2.1424    0.0194   -0.2399 H         1 <0>         0.4211
     32 H7         -3.3155   -2.3590    0.0942 H         1 <0>         0.1424
     33 H8         -3.2083   -2.0461   -1.6548 H         1 <0>         0.1220
     34 H9         -2.2948   -3.7676   -3.0715 H         1 <0>         0.4289
     35 H10        -0.8621   -3.6913   -2.2614 H         1 <0>         0.4208
     36 H11         1.7761    2.7194    1.7846 H         1 <0>         0.1597
     37 H12         6.0601    5.1289    2.1867 H         1 <0>         0.1668
     38 H13        -1.6070   -5.1442   -2.4826 H         1 <0>         0.4324
@<TRIPOS>BOND
     1    1    6 ar
     2    1    2 ar
     3    1   27 1
     4    2    3 ar
     5    2   28 1
     6    3    4 ar
     7    3   17 1
     8    4    5 ar
     9    4   29 1
    10    5    6 ar
    11    5   30 1
    12    6    7 1
    13    7    8 am
    14    7   31 1
    15    8    9 2
    16    8   10 1
    17   10   11 1
    18   10   32 1
    19   10   33 1
    20   11   12 1
    21   11   13 1
    22   11   16 1
    23   13   14 2
    24   13   15 1
    25   16   34 1
    26   16   35 1
    27   16   38 1
    28   17   18 1
    29   18   23 ar
    30   18   19 ar
    31   19   20 ar
    32   19   36 1
    33   20   21 ar
    34   20   26 1
    35   21   22 ar
    36   21   25 1
    37   22   23 ar
    38   22   37 1
    39   23   24 1
