@<TRIPOS>MOLECULE
ZINC26006800
   39    40     0     0     0
SMALL
USER_CHARGES
(4-benzoylphenyl) 2,2-dimethylpropanoate
@<TRIPOS>ATOM
      1 C1          9.3830    5.0128   -3.2980 C.3       1 <0>        -0.1389
      2 C2          8.9281    5.1047   -1.8401 C.3       1 <0>        -0.0516
      3 C3          8.5479    6.5505   -1.5146 C.3       1 <0>        -0.1473
      4 C4         10.0669    4.6576   -0.9213 C.3       1 <0>        -0.1475
      5 C5          7.7327    4.2114   -1.6297 C.2       1 <0>         0.4674
      6 O1          7.2901    3.5674   -2.5513 O.2       1 <0>        -0.4822
      7 O2          7.1594    4.1311   -0.4178 O.3       1 <0>        -0.2922
      8 C6          6.0265    3.3896   -0.3199 C.ar      1 <0>         0.1099
      9 C7          6.1068    2.0021   -0.2902 C.ar      1 <0>        -0.1263
     10 C8          4.9604    1.2461   -0.1914 C.ar      1 <0>        -0.0488
     11 C9          3.7140    1.8760   -0.1204 C.ar      1 <0>        -0.1534
     12 C10         3.6376    3.2717   -0.1555 C.ar      1 <0>        -0.0709
     13 C11         4.7895    4.0200   -0.2500 C.ar      1 <0>        -0.1269
     14 C12         2.4828    1.0701   -0.0149 C.2       1 <0>         0.4396
     15 O3          2.4180   -0.0151   -0.5593 O.2       1 <0>        -0.4412
     16 C13         1.3282    1.5819    0.7524 C.ar      1 <0>        -0.1640
     17 C14         0.1117    0.8962    0.7303 C.ar      1 <0>        -0.0598
     18 C15        -0.9637    1.3829    1.4439 C.ar      1 <0>        -0.1306
     19 C16        -0.8357    2.5412    2.1901 C.ar      1 <0>        -0.0863
     20 C17         0.3666    3.2259    2.2162 C.ar      1 <0>        -0.1315
     21 C18         1.4484    2.7537    1.5028 C.ar      1 <0>        -0.0842
     22 H1          9.6563    3.9733   -3.5320 H         1 <0>         0.0670
     23 H2         10.2555    5.6648   -3.4516 H         1 <0>         0.0757
     24 H3          8.5642    5.3342   -3.9585 H         1 <0>         0.0668
     25 H4          8.2209    6.6165   -0.4664 H         1 <0>         0.0721
     26 H5          7.7291    6.8719   -2.1751 H         1 <0>         0.0631
     27 H6          9.4204    7.2025   -1.6682 H         1 <0>         0.0781
     28 H7          9.7398    4.7237    0.1269 H         1 <0>         0.0722
     29 H8         10.9394    5.3096   -1.0749 H         1 <0>         0.0778
     30 H9         10.3402    3.6181   -1.1553 H         1 <0>         0.0632
     31 H10         7.0699    1.5164   -0.3451 H         1 <0>         0.1360
     32 H11         5.0237    0.1682   -0.1684 H         1 <0>         0.1410
     33 H12         2.6767    3.7622   -0.1053 H         1 <0>         0.1468
     34 H13         4.7316    5.0982   -0.2738 H         1 <0>         0.1404
     35 H14         0.0119   -0.0106    0.1521 H         1 <0>         0.1350
     36 H15        -1.9064    0.8563    1.4237 H         1 <0>         0.1314
     37 H16        -1.6796    2.9152    2.7509 H         1 <0>         0.1292
     38 H17         0.4581    4.1319    2.7969 H         1 <0>         0.1312
     39 H18         2.3862    3.2890    1.5240 H         1 <0>         0.1397
@<TRIPOS>BOND
     1    1    2 1
     2    1   22 1
     3    1   23 1
     4    1   24 1
     5    2    3 1
     6    2    4 1
     7    2    5 1
     8    3   25 1
     9    3   26 1
    10    3   27 1
    11    4   28 1
    12    4   29 1
    13    4   30 1
    14    5    6 2
    15    5    7 1
    16    7    8 1
    17    8   13 ar
    18    8    9 ar
    19    9   10 ar
    20    9   31 1
    21   10   11 ar
    22   10   32 1
    23   11   12 ar
    24   11   14 1
    25   12   13 ar
    26   12   33 1
    27   13   34 1
    28   14   15 2
    29   14   16 1
    30   16   21 ar
    31   16   17 ar
    32   17   18 ar
    33   17   35 1
    34   18   19 ar
    35   18   36 1
    36   19   20 ar
    37   19   37 1
    38   20   21 ar
    39   20   38 1
    40   21   39 1
@<TRIPOS>MOLECULE
ZINC02519832
   54    55     0     0     0
SMALL
USER_CHARGES
[4-[4-(2,2-dimethylpropanoyloxy)benzoyl]phenyl] 2,2-dimethylpropanoate
@<TRIPOS>ATOM
      1 C1         -0.9892    5.8411    2.1377 C.3       1 <0>        -0.1368
      2 C2          0.0563    5.4708    1.0838 C.3       1 <0>        -0.0528
      3 C3          1.3907    6.1320    1.4349 C.3       1 <0>        -0.1451
      4 C4         -0.4089    5.9589   -0.2896 C.3       1 <0>        -0.1455
      5 C5          0.2300    3.9742    1.0527 C.2       1 <0>         0.4675
      6 O1         -0.4161    3.2754    1.7971 O.2       1 <0>        -0.4815
      7 O2          1.1031    3.4172    0.1975 O.3       1 <0>        -0.2920
      8 C6          1.1349    2.0610    0.1455 C.ar      1 <0>         0.1119
      9 C7          0.1186    1.3682   -0.5021 C.ar      1 <0>        -0.1293
     10 C8          0.1469   -0.0073   -0.5573 C.ar      1 <0>        -0.0476
     11 C9          1.1999   -0.7072    0.0393 C.ar      1 <0>        -0.1538
     12 C10         2.2200   -0.0064    0.6897 C.ar      1 <0>        -0.0706
     13 C11         2.1838    1.3691    0.7401 C.ar      1 <0>        -0.1247
     14 C12         1.2343   -2.1814   -0.0168 C.2       1 <0>         0.4417
     15 O3          0.1985   -2.8162    0.0372 O.2       1 <0>        -0.4372
     16 C13         2.5256   -2.8852   -0.1385 C.ar      1 <0>        -0.1618
     17 C14         3.7007   -2.1608   -0.3596 C.ar      1 <0>        -0.0649
     18 C15         4.9043   -2.8210   -0.4662 C.ar      1 <0>        -0.1291
     19 C16         4.9504   -4.2068   -0.3669 C.ar      1 <0>         0.1180
     20 C17         3.7836   -4.9314   -0.1529 C.ar      1 <0>        -0.1345
     21 C18         2.5766   -4.2788   -0.0388 C.ar      1 <0>        -0.0410
     22 O4          6.1383   -4.8543   -0.4788 O.3       1 <0>        -0.2924
     23 C19         6.3737   -5.5015   -1.6318 C.2       1 <0>         0.4680
     24 O5          5.5874   -5.4142   -2.5451 O.2       1 <0>        -0.4817
     25 C20         7.6186   -6.3366   -1.7865 C.3       1 <0>        -0.0527
     26 C21         7.6438   -6.9605   -3.1834 C.3       1 <0>        -0.1367
     27 C22         8.8528   -5.4517   -1.6008 C.3       1 <0>        -0.1452
     28 C23         7.6229   -7.4457   -0.7326 C.3       1 <0>        -0.1457
     29 H1         -0.6578    5.4934    3.1162 H         1 <0>         0.0665
     30 H2         -1.1149    6.9236    2.1603 H         1 <0>         0.0751
     31 H3         -1.9398    5.3701    1.8876 H         1 <0>         0.0662
     32 H4          2.1355    5.8682    0.6841 H         1 <0>         0.0714
     33 H5          1.2650    7.2145    1.4575 H         1 <0>         0.0770
     34 H6          1.7221    5.7843    2.4134 H         1 <0>         0.0628
     35 H7         -1.3596    5.4879   -0.5397 H         1 <0>         0.0625
     36 H8         -0.5346    7.0414   -0.2670 H         1 <0>         0.0776
     37 H9          0.3359    5.6952   -1.0404 H         1 <0>         0.0715
     38 H10        -0.6922    1.9099   -0.9665 H         1 <0>         0.1360
     39 H11        -0.6429   -0.5447   -1.0610 H         1 <0>         0.1413
     40 H12         3.0351   -0.5432    1.1521 H         1 <0>         0.1455
     41 H13         2.9714    1.9112    1.2422 H         1 <0>         0.1409
     42 H14         3.6652   -1.0845   -0.4420 H         1 <0>         0.1483
     43 H15         5.8133   -2.2618   -0.6319 H         1 <0>         0.1407
     44 H16         3.8238   -6.0080   -0.0763 H         1 <0>         0.1362
     45 H17         1.6706   -4.8425    0.1278 H         1 <0>         0.1446
     46 H18         7.6407   -6.1703   -3.9342 H         1 <0>         0.0665
     47 H19         8.5442   -7.5645   -3.2953 H         1 <0>         0.0752
     48 H20         6.7646   -7.5909   -3.3157 H         1 <0>         0.0663
     49 H21         8.8347   -5.0073   -0.6057 H         1 <0>         0.0715
     50 H22         9.7531   -6.0558   -1.7127 H         1 <0>         0.0771
     51 H23         8.8497   -4.6616   -2.3517 H         1 <0>         0.0629
     52 H24         6.7436   -8.0762   -0.8649 H         1 <0>         0.0626
     53 H25         8.5233   -8.0498   -0.8445 H         1 <0>         0.0777
     54 H26         7.6049   -7.0013    0.2626 H         1 <0>         0.0716
@<TRIPOS>BOND
     1    1    2 1
     2    1   29 1
     3    1   30 1
     4    1   31 1
     5    2    3 1
     6    2    4 1
     7    2    5 1
     8    3   32 1
     9    3   33 1
    10    3   34 1
    11    4   35 1
    12    4   36 1
    13    4   37 1
    14    5    6 2
    15    5    7 1
    16    7    8 1
    17    8   13 ar
    18    8    9 ar
    19    9   10 ar
    20    9   38 1
    21   10   11 ar
    22   10   39 1
    23   11   12 ar
    24   11   14 1
    25   12   13 ar
    26   12   40 1
    27   13   41 1
    28   14   15 2
    29   14   16 1
    30   16   21 ar
    31   16   17 ar
    32   17   18 ar
    33   17   42 1
    34   18   19 ar
    35   18   43 1
    36   19   20 ar
    37   19   22 1
    38   20   21 ar
    39   20   44 1
    40   21   45 1
    41   22   23 1
    42   23   24 2
    43   23   25 1
    44   25   26 1
    45   25   27 1
    46   25   28 1
    47   26   46 1
    48   26   47 1
    49   26   48 1
    50   27   49 1
    51   27   50 1
    52   27   51 1
    53   28   52 1
    54   28   53 1
    55   28   54 1
@<TRIPOS>MOLECULE
ZINC13779164
   21    22     0     0     0
SMALL
USER_CHARGES
2-methylamino-3,1-benzoxazin-4-one
@<TRIPOS>ATOM
      1 C1         -2.3228   -4.1787    0.0031 C.3       1 <0>         0.0807
      2 N1         -2.3076   -2.7138    0.0104 N.pl3     1 <0>        -0.6744
      3 C2         -1.1140   -2.0411    0.0026 C.2       1 <0>         0.6045
      4 N2         -1.1403   -0.7339    0.0095 N.2       1 <0>        -0.5932
      5 C3          0.0021   -0.0041    0.0020 C.ar      1 <0>         0.2064
      6 C4         -0.0169    1.3921    0.0097 C.ar      1 <0>        -0.1293
      7 C5          1.1701    2.0896    0.0021 C.ar      1 <0>        -0.0526
      8 C6          2.3882    1.4221   -0.0131 C.ar      1 <0>        -0.1575
      9 C7          2.4332    0.0452   -0.0210 C.ar      1 <0>        -0.0199
     10 C8          1.2435   -0.6802   -0.0135 C.ar      1 <0>        -0.2628
     11 C9          1.2265   -2.1494   -0.0207 C.2       1 <0>         0.5448
     12 O1          2.2587   -2.7927   -0.0344 O.2       1 <0>        -0.4375
     13 O2          0.0197   -2.7590   -0.0120 O.3       1 <0>        -0.3277
     14 H1         -1.8212   -4.5428   -0.8934 H         1 <0>         0.0689
     15 H2         -1.8045   -4.5518    0.8864 H         1 <0>         0.0689
     16 H3         -3.3542   -4.5313    0.0110 H         1 <0>         0.0936
     17 H4         -3.1425   -2.2201    0.0206 H         1 <0>         0.4366
     18 H5         -0.9578    1.9222    0.0170 H         1 <0>         0.1411
     19 H6          1.1540    3.1695    0.0081 H         1 <0>         0.1362
     20 H7          3.3082    1.9876   -0.0193 H         1 <0>         0.1350
     21 H8          3.3834   -0.4681   -0.0324 H         1 <0>         0.1384
@<TRIPOS>BOND
     1    1    2 1
     2    1   14 1
     3    1   15 1
     4    1   16 1
     5    2    3 1
     6    2   17 1
     7    3   13 1
     8    3    4 2
     9    4    5 1
    10    5   10 ar
    11    5    6 ar
    12    6    7 ar
    13    6   18 1
    14    7    8 ar
    15    7   19 1
    16    8    9 ar
    17    8   20 1
    18    9   10 ar
    19    9   21 1
    20   10   11 1
    21   11   12 2
    22   11   13 1
@<TRIPOS>MOLECULE
ZINC72177927
   41    44     0     0     0
SMALL
USER_CHARGES

@<TRIPOS>ATOM
      1 C1          0.1058    1.3723    0.6865 C.ar      1 <0>        -0.0793
      2 C2          1.3008    2.0686    0.6429 C.ar      1 <0>        -0.1342
      3 C3          2.4867    1.3971    0.4301 C.ar      1 <0>        -0.0501
      4 C4          2.4794    0.0110    0.2588 C.ar      1 <0>        -0.1529
      5 C5          1.2696   -0.6855    0.3044 C.ar      1 <0>        -0.0792
      6 C6          0.0912   -0.0011    0.5175 C.ar      1 <0>        -0.1356
      7 C7          3.7449   -0.7148    0.0300 C.2       1 <0>         0.5971
      8 O1          4.7789   -0.0974   -0.1298 O.2       1 <0>        -0.4750
      9 N1          3.7529   -2.0622   -0.0015 N.am      1 <0>        -0.3676
     10 C8          4.8780   -2.8516   -0.1033 C.ar      1 <0>         0.1194
     11 C9          6.2383   -2.5762   -0.1986 C.ar      1 <0>        -0.1160
     12 C10         7.1406   -3.6128   -0.2899 C.ar      1 <0>        -0.0638
     13 C11         6.7048   -4.9310   -0.2877 C.ar      1 <0>        -0.1348
     14 C12         5.3732   -5.2221   -0.1949 C.ar      1 <0>        -0.0351
     15 C13         4.4417   -4.1872   -0.1015 C.ar      1 <0>        -0.1315
     16 C14         2.9765   -4.1427    0.0086 C.2       1 <0>         0.1032
     17 N2          2.6212   -2.8807    0.0701 N.2       1 <0>        -0.2091
     18 C15         2.0700   -5.3062    0.0489 C.2       1 <0>         0.6000
     19 O2          2.5237   -6.4328   -0.0111 O.2       1 <0>        -0.4865
     20 N3          0.7392   -5.1202    0.1523 N.am      1 <0>        -0.6547
     21 C16        -0.1111   -6.2205    0.3004 C.ar      1 <0>         0.1390
     22 C17        -1.3821   -6.1981   -0.2592 C.ar      1 <0>        -0.1392
     23 C18        -2.2194   -7.2864   -0.1110 C.ar      1 <0>        -0.1000
     24 C19        -1.7937   -8.3973    0.5939 C.ar      1 <0>        -0.1294
     25 C20        -0.5289   -8.4228    1.1523 C.ar      1 <0>        -0.0994
     26 C21         0.3156   -7.3403    1.0026 C.ar      1 <0>        -0.1187
     27 H1         -0.8193    1.9026    0.8576 H         1 <0>         0.1305
     28 H2          1.3049    3.1404    0.7755 H         1 <0>         0.1340
     29 H3          3.4186    1.9419    0.3956 H         1 <0>         0.1370
     30 H4          1.2568   -1.7573    0.1724 H         1 <0>         0.1652
     31 H5         -0.8450   -0.5383    0.5530 H         1 <0>         0.1322
     32 H6          6.5855   -1.5535   -0.2014 H         1 <0>         0.1454
     33 H7          8.1965   -3.3983   -0.3643 H         1 <0>         0.1411
     34 H8          7.4245   -5.7330   -0.3604 H         1 <0>         0.1388
     35 H9          5.0423   -6.2502   -0.1942 H         1 <0>         0.1458
     36 H10         0.3711   -4.2232    0.1239 H         1 <0>         0.4176
     37 H11        -1.7155   -5.3305   -0.8093 H         1 <0>         0.1277
     38 H12        -3.2079   -7.2697   -0.5459 H         1 <0>         0.1287
     39 H13        -2.4507   -9.2468    0.7089 H         1 <0>         0.1256
     40 H14        -0.1995   -9.2919    1.7023 H         1 <0>         0.1283
     41 H15         1.3050   -7.3626    1.4351 H         1 <0>         0.1354
@<TRIPOS>BOND
     1    1    6 ar
     2    1    2 ar
     3    1   27 1
     4    2    3 ar
     5    2   28 1
     6    3    4 ar
     7    3   29 1
     8    4    5 ar
     9    4    7 1
    10    5    6 ar
    11    5   30 1
    12    6   31 1
    13    7    8 2
    14    7    9 am
    15    9   17 1
    16    9   10 1
    17   10   15 ar
    18   10   11 ar
    19   11   12 ar
    20   11   32 1
    21   12   13 ar
    22   12   33 1
    23   13   14 ar
    24   13   34 1
    25   14   15 ar
    26   14   35 1
    27   15   16 1
    28   16   17 2
    29   16   18 1
    30   18   19 2
    31   18   20 am
    32   20   21 1
    33   20   36 1
    34   21   26 ar
    35   21   22 ar
    36   22   23 ar
    37   22   37 1
    38   23   24 ar
    39   23   38 1
    40   24   25 ar
    41   24   39 1
    42   25   26 ar
    43   25   40 1
    44   26   41 1
@<TRIPOS>MOLECULE
ZINC72176343
   44    47     0     0     0
SMALL
USER_CHARGES

@<TRIPOS>ATOM
      1 C1         -0.8360    1.4556    0.1740 C.3       1 <0>        -0.1161
      2 C2         -0.6389   -0.0379    0.1305 C.ar      1 <0>        -0.0998
      3 C3         -0.6717   -0.7035   -1.0824 C.ar      1 <0>        -0.0805
      4 C4         -0.4917   -2.0744   -1.1317 C.ar      1 <0>        -0.1307
      5 C5         -0.2787   -2.7875    0.0299 C.ar      1 <0>        -0.0849
      6 C6         -0.2444   -2.1224    1.2573 C.ar      1 <0>        -0.1480
      7 C7         -0.4208   -0.7373    1.2989 C.ar      1 <0>        -0.0515
      8 C8         -0.0174   -2.8790    2.5049 C.2       1 <0>         0.5974
      9 O1          0.1321   -2.2875    3.5555 O.2       1 <0>        -0.4750
     10 N1          0.0241   -4.2259    2.4782 N.am      1 <0>        -0.3674
     11 C9          0.1255   -5.0434    3.5831 C.ar      1 <0>         0.1194
     12 C10         0.2111   -4.8027    4.9506 C.ar      1 <0>        -0.1159
     13 C11         0.3050   -5.8617    5.8262 C.ar      1 <0>        -0.0639
     14 C12         0.3151   -7.1681    5.3565 C.ar      1 <0>        -0.1348
     15 C13         0.2320   -7.4253    4.0172 C.ar      1 <0>        -0.0352
     16 C14         0.1360   -6.3673    3.1123 C.ar      1 <0>        -0.1313
     17 C15         0.0339   -6.2857    1.6482 C.2       1 <0>         0.1028
     18 N2         -0.0350   -5.0153    1.3253 N.2       1 <0>        -0.2084
     19 C16         0.0069   -7.4255    0.7117 C.2       1 <0>         0.6001
     20 O2          0.0723   -8.5630    1.1364 O.2       1 <0>        -0.4866
     21 N3         -0.0903   -7.2058   -0.6145 N.am      1 <0>        -0.6548
     22 C17        -0.2258   -8.2847   -1.4938 C.ar      1 <0>         0.1391
     23 C18         0.3407   -8.2255   -2.7606 C.ar      1 <0>        -0.1393
     24 C19         0.2050   -9.2928   -3.6265 C.ar      1 <0>        -0.1000
     25 C20        -0.4945  -10.4192   -3.2338 C.ar      1 <0>        -0.1294
     26 C21        -1.0601  -10.4811   -1.9735 C.ar      1 <0>        -0.0994
     27 C22        -0.9224   -9.4200   -1.1002 C.ar      1 <0>        -0.1186
     28 H1          0.1294    1.9524    0.0773 H         1 <0>         0.0743
     29 H2         -1.4854    1.7604   -0.6466 H         1 <0>         0.0705
     30 H3         -1.2945    1.7341    1.1229 H         1 <0>         0.0697
     31 H4         -0.8388   -0.1503   -1.9948 H         1 <0>         0.1300
     32 H5         -0.5184   -2.5876   -2.0816 H         1 <0>         0.1325
     33 H6         -0.1391   -3.8577   -0.0099 H         1 <0>         0.1650
     34 H7         -0.3908   -0.2160    2.2443 H         1 <0>         0.1365
     35 H8          0.2042   -3.7894    5.3241 H         1 <0>         0.1453
     36 H9          0.3718   -5.6742    6.8877 H         1 <0>         0.1410
     37 H10         0.3896   -7.9880    6.0556 H         1 <0>         0.1387
     38 H11         0.2408   -8.4444    3.6599 H         1 <0>         0.1458
     39 H12        -0.0662   -6.2994   -0.9591 H         1 <0>         0.4176
     40 H13         0.8865   -7.3458   -3.0681 H         1 <0>         0.1277
     41 H14         0.6453   -9.2474   -4.6117 H         1 <0>         0.1287
     42 H15        -0.5995  -11.2523   -3.9131 H         1 <0>         0.1256
     43 H16        -1.6061  -11.3621   -1.6700 H         1 <0>         0.1283
     44 H17        -1.3604   -9.4709   -0.1143 H         1 <0>         0.1354
@<TRIPOS>BOND
     1    1    2 1
     2    1   28 1
     3    1   29 1
     4    1   30 1
     5    2    7 ar
     6    2    3 ar
     7    3    4 ar
     8    3   31 1
     9    4    5 ar
    10    4   32 1
    11    5    6 ar
    12    5   33 1
    13    6    7 ar
    14    6    8 1
    15    7   34 1
    16    8    9 2
    17    8   10 am
    18   10   18 1
    19   10   11 1
    20   11   16 ar
    21   11   12 ar
    22   12   13 ar
    23   12   35 1
    24   13   14 ar
    25   13   36 1
    26   14   15 ar
    27   14   37 1
    28   15   16 ar
    29   15   38 1
    30   16   17 1
    31   17   18 2
    32   17   19 1
    33   19   20 2
    34   19   21 am
    35   21   22 1
    36   21   39 1
    37   22   27 ar
    38   22   23 ar
    39   23   24 ar
    40   23   40 1
    41   24   25 ar
    42   24   41 1
    43   25   26 ar
    44   25   42 1
    45   26   27 ar
    46   26   43 1
    47   27   44 1
@<TRIPOS>MOLECULE
ZINC72177305
   41    44     0     0     0
SMALL
USER_CHARGES

@<TRIPOS>ATOM
      1 C1         -0.0227    1.3734    0.3866 C.ar      1 <0>        -0.1293
      2 C2          0.1541    0.1942    1.0869 C.ar      1 <0>        -0.0992
      3 C3          1.3576   -0.4795    1.0153 C.ar      1 <0>        -0.1191
      4 C4          2.3910    0.0286    0.2387 C.ar      1 <0>         0.1388
      5 C5          2.2101    1.2132   -0.4635 C.ar      1 <0>        -0.1394
      6 C6          1.0041    1.8820   -0.3876 C.ar      1 <0>        -0.0997
      7 N1          3.6109   -0.6508    0.1643 N.am      1 <0>        -0.6542
      8 C7          3.6382   -1.9965    0.2337 C.2       1 <0>         0.5993
      9 O1          2.5976   -2.6249    0.2643 O.2       1 <0>        -0.4853
     10 C8          4.9306   -2.7071    0.2727 C.2       1 <0>         0.1076
     11 C9          5.1188   -4.1634    0.3422 C.ar      1 <0>        -0.1313
     12 C10         4.2445   -5.2499    0.3908 C.ar      1 <0>        -0.0346
     13 C11         4.7429   -6.5205    0.4531 C.ar      1 <0>        -0.1339
     14 C12         6.1135   -6.7409    0.4688 C.ar      1 <0>        -0.0628
     15 C13         6.9942   -5.6830    0.4215 C.ar      1 <0>        -0.1157
     16 C14         6.5068   -4.3816    0.3574 C.ar      1 <0>         0.1199
     17 N2          7.1080   -3.1427    0.3009 N.am      1 <0>        -0.3675
     18 N3          6.1205   -2.1539    0.2457 N.2       1 <0>        -0.2129
     19 C15         8.4372   -2.9197    0.2955 C.2       1 <0>         0.5992
     20 O2          9.2101   -3.8561    0.2572 O.2       1 <0>        -0.4698
     21 C16         8.9540   -1.5369    0.3360 C.ar      1 <0>        -0.1385
     22 C17         8.0743   -0.4561    0.2391 C.ar      1 <0>        -0.0752
     23 C18         8.5631    0.8329    0.2781 C.ar      1 <0>        -0.1204
     24 C19         9.9219    1.0577    0.4125 C.ar      1 <0>        -0.0705
     25 C20        10.8001   -0.0085    0.5092 C.ar      1 <0>        -0.0509
     26 C21        10.3235   -1.3040    0.4773 C.ar      1 <0>        -0.0426
     27 Cl1        12.5030    0.2842    0.6769 Cl        1 <0>        -0.0545
     28 H1         -0.9663    1.8959    0.4408 H         1 <0>         0.1257
     29 H2         -0.6497   -0.2002    1.6909 H         1 <0>         0.1284
     30 H3          1.4951   -1.4002    1.5628 H         1 <0>         0.1358
     31 H4          3.0118    1.6112   -1.0680 H         1 <0>         0.1278
     32 H5          0.8628    2.8032   -0.9333 H         1 <0>         0.1288
     33 H6          4.4376   -0.1535    0.0627 H         1 <0>         0.4173
     34 H7          3.1769   -5.0868    0.3797 H         1 <0>         0.1463
     35 H8          4.0649   -7.3603    0.4907 H         1 <0>         0.1393
     36 H9          6.4925   -7.7510    0.5189 H         1 <0>         0.1416
     37 H10         8.0590   -5.8631    0.4345 H         1 <0>         0.1459
     38 H11         7.0136   -0.6296    0.1334 H         1 <0>         0.1717
     39 H12         7.8837    1.6691    0.2031 H         1 <0>         0.1435
     40 H13        10.2992    2.0692    0.4417 H         1 <0>         0.1423
     41 H14        11.0086   -2.1351    0.5569 H         1 <0>         0.1483
@<TRIPOS>BOND
     1    1    6 ar
     2    1    2 ar
     3    1   28 1
     4    2    3 ar
     5    2   29 1
     6    3    4 ar
     7    3   30 1
     8    4    5 ar
     9    4    7 1
    10    5    6 ar
    11    5   31 1
    12    6   32 1
    13    7    8 am
    14    7   33 1
    15    8    9 2
    16    8   10 1
    17   10   18 2
    18   10   11 1
    19   11   16 ar
    20   11   12 ar
    21   12   13 ar
    22   12   34 1
    23   13   14 ar
    24   13   35 1
    25   14   15 ar
    26   14   36 1
    27   15   16 ar
    28   15   37 1
    29   16   17 1
    30   17   18 1
    31   17   19 am
    32   19   20 2
    33   19   21 1
    34   21   26 ar
    35   21   22 ar
    36   22   23 ar
    37   22   38 1
    38   23   24 ar
    39   23   39 1
    40   24   25 ar
    41   24   40 1
    42   25   26 ar
    43   25   27 1
    44   26   41 1
@<TRIPOS>MOLECULE
ZINC72177224
   41    44     0     0     0
SMALL
USER_CHARGES

@<TRIPOS>ATOM
      1 C1         -0.0224    1.3740    0.0598 C.ar      1 <0>        -0.1279
      2 C2          1.0901    1.9410    0.6540 C.ar      1 <0>        -0.1013
      3 C3          2.2983    1.2720    0.6407 C.ar      1 <0>        -0.1376
      4 C4          2.3950    0.0283    0.0299 C.ar      1 <0>         0.1350
      5 C5          1.2756   -0.5385   -0.5656 C.ar      1 <0>        -0.1176
      6 C6          0.0705    0.1359   -0.5491 C.ar      1 <0>        -0.1014
      7 N1          3.6169   -0.6515    0.0143 N.am      1 <0>        -0.6540
      8 C7          3.6415   -1.9957    0.1094 C.2       1 <0>         0.5996
      9 O1          2.6000   -2.6229    0.1292 O.2       1 <0>        -0.4866
     10 C8          4.9322   -2.7060    0.1897 C.2       1 <0>         0.1082
     11 C9          5.1176   -4.1608    0.2906 C.ar      1 <0>        -0.1313
     12 C10         4.2415   -5.2459    0.3395 C.ar      1 <0>        -0.0344
     13 C11         4.7374   -6.5153    0.4362 C.ar      1 <0>        -0.1342
     14 C12         6.1071   -6.7360    0.4866 C.ar      1 <0>        -0.0629
     15 C13         6.9895   -5.6795    0.4397 C.ar      1 <0>        -0.1158
     16 C14         6.5047   -4.3792    0.3409 C.ar      1 <0>         0.1199
     17 N2          7.1081   -3.1419    0.2748 N.am      1 <0>        -0.3679
     18 N3          6.1229   -2.1539    0.1783 N.2       1 <0>        -0.2139
     19 C15         8.4372   -2.9196    0.2945 C.2       1 <0>         0.5985
     20 O2          9.2102   -3.8567    0.2787 O.2       1 <0>        -0.4714
     21 C16         8.9538   -1.5374    0.3353 C.ar      1 <0>        -0.1488
     22 C17         8.0738   -0.4566    0.2385 C.ar      1 <0>        -0.0664
     23 C18         8.5626    0.8319    0.2772 C.ar      1 <0>        -0.1258
     24 C19         9.9231    1.0561    0.4112 C.ar      1 <0>         0.0014
     25 C20        10.8009   -0.0113    0.5072 C.ar      1 <0>        -0.1248
     26 C21        10.3240   -1.3046    0.4765 C.ar      1 <0>        -0.0362
     27 Cl1        10.5307    2.6816    0.4586 Cl        1 <0>        -0.0548
     28 H1         -0.9670    1.8974    0.0752 H         1 <0>         0.1255
     29 H2          1.0143    2.9081    1.1287 H         1 <0>         0.1287
     30 H3          3.1670    1.7156    1.1043 H         1 <0>         0.1277
     31 H4          1.3474   -1.5054   -1.0413 H         1 <0>         0.1399
     32 H5         -0.8004   -0.3042   -1.0119 H         1 <0>         0.1283
     33 H6          4.4468   -0.1556   -0.0651 H         1 <0>         0.4173
     34 H7          3.1746   -5.0826    0.3015 H         1 <0>         0.1463
     35 H8          4.0581   -7.3541    0.4740 H         1 <0>         0.1392
     36 H9          6.4841   -7.7451    0.5637 H         1 <0>         0.1415
     37 H10         8.0536   -5.8597    0.4799 H         1 <0>         0.1457
     38 H11         7.0131   -0.6301    0.1333 H         1 <0>         0.1747
     39 H12         7.8835    1.6684    0.2025 H         1 <0>         0.1438
     40 H13        11.8605    0.1700    0.6111 H         1 <0>         0.1458
     41 H14        11.0088   -2.1359    0.5566 H         1 <0>         0.1479
@<TRIPOS>BOND
     1    1    6 ar
     2    1    2 ar
     3    1   28 1
     4    2    3 ar
     5    2   29 1
     6    3    4 ar
     7    3   30 1
     8    4    5 ar
     9    4    7 1
    10    5    6 ar
    11    5   31 1
    12    6   32 1
    13    7    8 am
    14    7   33 1
    15    8    9 2
    16    8   10 1
    17   10   18 2
    18   10   11 1
    19   11   16 ar
    20   11   12 ar
    21   12   13 ar
    22   12   34 1
    23   13   14 ar
    24   13   35 1
    25   14   15 ar
    26   14   36 1
    27   15   16 ar
    28   15   37 1
    29   16   17 1
    30   17   18 1
    31   17   19 am
    32   19   20 2
    33   19   21 1
    34   21   26 ar
    35   21   22 ar
    36   22   23 ar
    37   22   38 1
    38   23   24 ar
    39   23   39 1
    40   24   25 ar
    41   24   27 1
    42   25   26 ar
    43   25   40 1
    44   26   41 1
@<TRIPOS>MOLECULE
ZINC72178499
   41    44     0     0     0
SMALL
USER_CHARGES

@<TRIPOS>ATOM
      1 C1         -0.0227    1.3734    0.3872 C.ar      1 <0>        -0.1293
      2 C2          0.1541    0.1941    1.0875 C.ar      1 <0>        -0.0992
      3 C3          1.3576   -0.4796    1.0158 C.ar      1 <0>        -0.1191
      4 C4          2.3909    0.0286    0.2391 C.ar      1 <0>         0.1387
      5 C5          2.2100    1.2133   -0.4630 C.ar      1 <0>        -0.1394
      6 C6          1.0041    1.8820   -0.3870 C.ar      1 <0>        -0.0998
      7 N1          3.6109   -0.6508    0.1646 N.am      1 <0>        -0.6542
      8 C7          3.6382   -1.9965    0.2341 C.2       1 <0>         0.5994
      9 O1          2.5976   -2.6249    0.2647 O.2       1 <0>        -0.4854
     10 C8          4.9306   -2.7071    0.2729 C.2       1 <0>         0.1077
     11 C9          5.1188   -4.1634    0.3424 C.ar      1 <0>        -0.1313
     12 C10         4.2445   -5.2499    0.3911 C.ar      1 <0>        -0.0345
     13 C11         4.7429   -6.5205    0.4532 C.ar      1 <0>        -0.1339
     14 C12         6.1135   -6.7410    0.4689 C.ar      1 <0>        -0.0627
     15 C13         6.9942   -5.6830    0.4215 C.ar      1 <0>        -0.1158
     16 C14         6.5068   -4.3816    0.3575 C.ar      1 <0>         0.1198
     17 N2          7.1080   -3.1427    0.3010 N.am      1 <0>        -0.3674
     18 N3          6.1205   -2.1539    0.2459 N.2       1 <0>        -0.2122
     19 C15         8.4372   -2.9197    0.2955 C.2       1 <0>         0.5989
     20 O2          9.2101   -3.8561    0.2572 O.2       1 <0>        -0.4692
     21 C16         8.9540   -1.5369    0.3360 C.ar      1 <0>        -0.1223
     22 C17         8.0743   -0.4562    0.2390 C.ar      1 <0>        -0.0897
     23 C18         8.5624    0.8331    0.2774 C.ar      1 <0>        -0.1039
     24 C19         9.9209    1.0589    0.4113 C.ar      1 <0>        -0.1139
     25 C20        10.8004   -0.0075    0.5077 C.ar      1 <0>         0.0886
     26 C21        10.3234   -1.3041    0.4773 C.ar      1 <0>        -0.0871
     27 F1         12.1256    0.2207    0.6378 F         1 <0>        -0.1315
     28 H1         -0.9663    1.8959    0.4415 H         1 <0>         0.1257
     29 H2         -0.6496   -0.2003    1.6915 H         1 <0>         0.1284
     30 H3          1.4952   -1.4003    1.5632 H         1 <0>         0.1358
     31 H4          3.0117    1.6112   -1.0675 H         1 <0>         0.1278
     32 H5          0.8627    2.8032   -0.9327 H         1 <0>         0.1288
     33 H6          4.4375   -0.1535    0.0630 H         1 <0>         0.4174
     34 H7          3.1769   -5.0868    0.3800 H         1 <0>         0.1464
     35 H8          4.0649   -7.3604    0.4909 H         1 <0>         0.1393
     36 H9          6.4925   -7.7510    0.5190 H         1 <0>         0.1416
     37 H10         8.0590   -5.8631    0.4345 H         1 <0>         0.1458
     38 H11         7.0136   -0.6300    0.1337 H         1 <0>         0.1721
     39 H12         7.8825    1.6689    0.2024 H         1 <0>         0.1443
     40 H13        10.2975    2.0707    0.4404 H         1 <0>         0.1445
     41 H14        11.0085   -2.1352    0.5573 H         1 <0>         0.1504
@<TRIPOS>BOND
     1    1    6 ar
     2    1    2 ar
     3    1   28 1
     4    2    3 ar
     5    2   29 1
     6    3    4 ar
     7    3   30 1
     8    4    5 ar
     9    4    7 1
    10    5    6 ar
    11    5   31 1
    12    6   32 1
    13    7    8 am
    14    7   33 1
    15    8    9 2
    16    8   10 1
    17   10   18 2
    18   10   11 1
    19   11   16 ar
    20   11   12 ar
    21   12   13 ar
    22   12   34 1
    23   13   14 ar
    24   13   35 1
    25   14   15 ar
    26   14   36 1
    27   15   16 ar
    28   15   37 1
    29   16   17 1
    30   17   18 1
    31   17   19 am
    32   19   20 2
    33   19   21 1
    34   21   26 ar
    35   21   22 ar
    36   22   23 ar
    37   22   38 1
    38   23   24 ar
    39   23   39 1
    40   24   25 ar
    41   24   40 1
    42   25   26 ar
    43   25   27 1
    44   26   41 1
@<TRIPOS>MOLECULE
ZINC72178500
   41    44     0     0     0
SMALL
USER_CHARGES

@<TRIPOS>ATOM
      1 C1         -0.0225    1.3740    0.0629 C.ar      1 <0>        -0.1279
      2 C2          1.0901    1.9408    0.6570 C.ar      1 <0>        -0.1014
      3 C3          2.2983    1.2719    0.6433 C.ar      1 <0>        -0.1377
      4 C4          2.3949    0.0283    0.0323 C.ar      1 <0>         0.1350
      5 C5          1.2753   -0.5384   -0.5631 C.ar      1 <0>        -0.1176
      6 C6          0.0703    0.1360   -0.5462 C.ar      1 <0>        -0.1014
      7 N1          3.6168   -0.6515    0.0163 N.am      1 <0>        -0.6540
      8 C7          3.6415   -1.9957    0.1112 C.2       1 <0>         0.5996
      9 O1          2.6000   -2.6230    0.1312 O.2       1 <0>        -0.4866
     10 C8          4.9322   -2.7060    0.1910 C.2       1 <0>         0.1081
     11 C9          5.1177   -4.1608    0.2915 C.ar      1 <0>        -0.1315
     12 C10         4.2416   -5.2459    0.3416 C.ar      1 <0>        -0.0345
     13 C11         4.7375   -6.5153    0.4380 C.ar      1 <0>        -0.1343
     14 C12         6.1072   -6.7360    0.4871 C.ar      1 <0>        -0.0630
     15 C13         6.9896   -5.6795    0.4391 C.ar      1 <0>        -0.1158
     16 C14         6.5048   -4.3793    0.3404 C.ar      1 <0>         0.1202
     17 N2          7.1081   -3.1420    0.2739 N.am      1 <0>        -0.3679
     18 N3          6.1229   -2.1539    0.1792 N.2       1 <0>        -0.2145
     19 C15         8.4373   -2.9197    0.2923 C.2       1 <0>         0.5998
     20 O2          9.2103   -3.8570    0.2757 O.2       1 <0>        -0.4728
     21 C16         8.9537   -1.5382    0.3327 C.ar      1 <0>        -0.1651
     22 C17         8.0733   -0.4572    0.2364 C.ar      1 <0>        -0.0496
     23 C18         8.5614    0.8309    0.2746 C.ar      1 <0>        -0.1693
     24 C19         9.9233    1.0556    0.4079 C.ar      1 <0>         0.1409
     25 C20        10.8017   -0.0132    0.5039 C.ar      1 <0>        -0.1684
     26 C21        10.3245   -1.3057    0.4731 C.ar      1 <0>        -0.0189
     27 F1         10.3963    2.3206    0.4439 F         1 <0>        -0.1295
     28 H1         -0.9671    1.8973    0.0786 H         1 <0>         0.1255
     29 H2          1.0143    2.9078    1.1319 H         1 <0>         0.1287
     30 H3          3.1671    1.7154    1.1069 H         1 <0>         0.1276
     31 H4          1.3472   -1.5053   -1.0390 H         1 <0>         0.1400
     32 H5         -0.8007   -0.3041   -1.0090 H         1 <0>         0.1283
     33 H6          4.4467   -0.1556   -0.0632 H         1 <0>         0.4173
     34 H7          3.1746   -5.0826    0.3046 H         1 <0>         0.1462
     35 H8          4.0582   -7.3540    0.4767 H         1 <0>         0.1391
     36 H9          6.4843   -7.7451    0.5640 H         1 <0>         0.1414
     37 H10         8.0538   -5.8599    0.4774 H         1 <0>         0.1458
     38 H11         7.0125   -0.6310    0.1318 H         1 <0>         0.1753
     39 H12         7.8819    1.6671    0.2003 H         1 <0>         0.1461
     40 H13        11.8615    0.1677    0.6072 H         1 <0>         0.1480
     41 H14        11.0090   -2.1372    0.5528 H         1 <0>         0.1487
@<TRIPOS>BOND
     1    1    6 ar
     2    1    2 ar
     3    1   28 1
     4    2    3 ar
     5    2   29 1
     6    3    4 ar
     7    3   30 1
     8    4    5 ar
     9    4    7 1
    10    5    6 ar
    11    5   31 1
    12    6   32 1
    13    7    8 am
    14    7   33 1
    15    8    9 2
    16    8   10 1
    17   10   18 2
    18   10   11 1
    19   11   16 ar
    20   11   12 ar
    21   12   13 ar
    22   12   34 1
    23   13   14 ar
    24   13   35 1
    25   14   15 ar
    26   14   36 1
    27   15   16 ar
    28   15   37 1
    29   16   17 1
    30   17   18 1
    31   17   19 am
    32   19   20 2
    33   19   21 1
    34   21   26 ar
    35   21   22 ar
    36   22   23 ar
    37   22   38 1
    38   23   24 ar
    39   23   39 1
    40   24   25 ar
    41   24   27 1
    42   25   26 ar
    43   25   40 1
    44   26   41 1
@<TRIPOS>MOLECULE
ZINC72176630
   45    48     0     0     0
SMALL
USER_CHARGES

@<TRIPOS>ATOM
      1 C1          0.0506    1.2539    1.0129 C.3       1 <0>         0.0254
      2 O1          0.0505   -0.1599    0.8049 O.3       1 <0>        -0.3136
      3 C2         -1.1589   -0.7611    0.6529 C.ar      1 <0>         0.1153
      4 C3         -2.3214   -0.0026    0.6977 C.ar      1 <0>        -0.1695
      5 C4         -3.5548   -0.6084    0.5442 C.ar      1 <0>        -0.0936
      6 C5         -3.6391   -1.9711    0.3450 C.ar      1 <0>        -0.1160
      7 C6         -2.4758   -2.7423    0.2980 C.ar      1 <0>        -0.1121
      8 C7         -1.2309   -2.1282    0.4480 C.ar      1 <0>        -0.0839
      9 C8         -2.5617   -4.2012    0.0849 C.2       1 <0>         0.5989
     10 O2         -1.5488   -4.8522   -0.0761 O.2       1 <0>        -0.4699
     11 N1         -3.7639   -4.8103    0.0692 N.am      1 <0>        -0.3669
     12 C9         -3.9684   -6.1705   -0.0170 C.ar      1 <0>         0.1197
     13 C10        -3.1153   -7.2656   -0.1077 C.ar      1 <0>        -0.1156
     14 C11        -3.6405   -8.5367   -0.1818 C.ar      1 <0>        -0.0637
     15 C12        -5.0144   -8.7354   -0.1672 C.ar      1 <0>        -0.1345
     16 C13        -5.8689   -7.6729   -0.0791 C.ar      1 <0>        -0.0352
     17 C14        -5.3583   -6.3765   -0.0021 C.ar      1 <0>        -0.1310
     18 C15        -5.9720   -5.0446    0.0990 C.2       1 <0>         0.1035
     19 N2         -5.0011   -4.1625    0.1437 N.2       1 <0>        -0.2076
     20 C16        -7.4174   -4.7527    0.1476 C.2       1 <0>         0.6001
     21 O3         -8.2232   -5.6623    0.1033 O.2       1 <0>        -0.4864
     22 N3         -7.8447   -3.4778    0.2412 N.am      1 <0>        -0.6548
     23 C17        -9.2076   -3.2069    0.3972 C.ar      1 <0>         0.1393
     24 C18        -9.7597   -2.0655   -0.1699 C.ar      1 <0>        -0.1393
     25 C19       -11.1062   -1.8008   -0.0139 C.ar      1 <0>        -0.1001
     26 C20       -11.9044   -2.6704    0.7065 C.ar      1 <0>        -0.1295
     27 C21       -11.3578   -3.8074    1.2728 C.ar      1 <0>        -0.0994
     28 C22       -10.0134   -4.0814    1.1149 C.ar      1 <0>        -0.1187
     29 H1          1.0769    1.6055    1.1186 H         1 <0>         0.1043
     30 H2         -0.4163    1.7467    0.1602 H         1 <0>         0.0577
     31 H3         -0.5087    1.4879    1.9188 H         1 <0>         0.0577
     32 H4         -2.2618    1.0644    0.8533 H         1 <0>         0.1358
     33 H5         -4.4551   -0.0130    0.5808 H         1 <0>         0.1358
     34 H6         -4.6042   -2.4411    0.2258 H         1 <0>         0.1677
     35 H7         -0.3273   -2.7184    0.4082 H         1 <0>         0.1457
     36 H8         -2.0452   -7.1195   -0.1204 H         1 <0>         0.1458
     37 H9         -2.9776   -9.3864   -0.2522 H         1 <0>         0.1412
     38 H10        -5.4111   -9.7381   -0.2263 H         1 <0>         0.1387
     39 H11        -6.9365   -7.8360   -0.0691 H         1 <0>         0.1458
     40 H12        -7.2067   -2.7483    0.2002 H         1 <0>         0.4177
     41 H13        -9.1367   -1.3856   -0.7321 H         1 <0>         0.1277
     42 H14       -11.5361   -0.9135   -0.4547 H         1 <0>         0.1286
     43 H15       -12.9570   -2.4610    0.8273 H         1 <0>         0.1255
     44 H16       -11.9838   -4.4844    1.8351 H         1 <0>         0.1283
     45 H17        -9.5880   -4.9720    1.5534 H         1 <0>         0.1355
@<TRIPOS>BOND
     1    1    2 1
     2    1   29 1
     3    1   30 1
     4    1   31 1
     5    2    3 1
     6    3    8 ar
     7    3    4 ar
     8    4    5 ar
     9    4   32 1
    10    5    6 ar
    11    5   33 1
    12    6    7 ar
    13    6   34 1
    14    7    8 ar
    15    7    9 1
    16    8   35 1
    17    9   10 2
    18    9   11 am
    19   11   19 1
    20   11   12 1
    21   12   17 ar
    22   12   13 ar
    23   13   14 ar
    24   13   36 1
    25   14   15 ar
    26   14   37 1
    27   15   16 ar
    28   15   38 1
    29   16   17 ar
    30   16   39 1
    31   17   18 1
    32   18   19 2
    33   18   20 1
    34   20   21 2
    35   20   22 am
    36   22   23 1
    37   22   40 1
    38   23   28 ar
    39   23   24 ar
    40   24   25 ar
    41   24   41 1
    42   25   26 ar
    43   25   42 1
    44   26   27 ar
    45   26   43 1
    46   27   28 ar
    47   27   44 1
    48   28   45 1
@<TRIPOS>MOLECULE
ZINC00004382
   32    33     0     0     0
SMALL
USER_CHARGES
N-(2-oxotetrahydrothiophen-3-yl)-2-(2-thienylcarbonylsulfanyl)propanamide
@<TRIPOS>ATOM
      1 C1         -0.7527    1.5927   -1.2315 C.3       1 <0>        -0.1493
      2 C2         -0.0127    1.0858    0.0080 C.3       1 <0>        -0.1003
      3 H1          0.0021   -0.0041    0.0020 H         1 <0>         0.1257
      4 C3          1.4011    1.6074   -0.0027 C.2       1 <0>         0.5393
      5 O1          1.6980    2.5686    0.6748 O.2       1 <0>        -0.4996
      6 N1          2.3356    1.0059   -0.7651 N.am      1 <0>        -0.7131
      7 C4          3.7100    1.5130   -0.7755 C.3       1 <0>         0.0976
      8 H2          3.9549    1.8310    0.1404 H         1 <0>         0.1160
      9 C5          4.6543    0.3764   -1.1648 C.3       1 <0>        -0.1338
     10 C6          5.9564    0.9863   -1.7342 C.3       1 <0>        -0.0751
     11 S1          5.3396    2.5339   -2.4951 S.3       1 <0>        -0.1984
     12 C7          3.7935    2.6829   -1.7298 C.2       1 <0>         0.3617
     13 O2          2.9573    3.5416   -1.9184 O.2       1 <0>        -0.3760
     14 S2         -0.8599    1.6695    1.4972 S.3       1 <0>        -0.0702
     15 C8         -2.3911    0.8132    1.3336 C.2       1 <0>         0.4238
     16 O3         -2.5805    0.0817    0.3790 O.2       1 <0>        -0.4392
     17 C9         -3.4369    0.9815    2.3470 C.2       1 <0>        -0.2622
     18 C10        -4.6987    0.4111    2.4032 C.2       1 <0>        -0.0560
     19 C11        -5.4860    0.7395    3.4790 C.2       1 <0>        -0.1848
     20 C12        -5.0058    1.6004    4.4141 C.2       1 <0>        -0.1743
     21 S3         -3.4201    1.9801    3.8253 S.3       1 <0>         0.1819
     22 H3         -1.7753    1.2154   -1.2238 H         1 <0>         0.0882
     23 H4         -0.7675    2.6825   -1.2255 H         1 <0>         0.0771
     24 H5         -0.2425    1.2411   -2.1283 H         1 <0>         0.0758
     25 H6          2.0981    0.2372   -1.3070 H         1 <0>         0.4101
     26 H7          4.8852   -0.2254   -0.2859 H         1 <0>         0.1108
     27 H8          4.1816   -0.2499   -1.9214 H         1 <0>         0.0966
     28 H9          6.6684    1.2001   -0.9371 H         1 <0>         0.1142
     29 H10         6.3984    0.3314   -2.4850 H         1 <0>         0.1264
     30 H11        -5.0464   -0.2648    1.6359 H         1 <0>         0.1482
     31 H12        -6.4773    0.3224    3.5782 H         1 <0>         0.1440
     32 H13        -5.4938    1.9608    5.3076 H         1 <0>         0.1949
@<TRIPOS>BOND
     1    1    2 1
     2    1   22 1
     3    1   23 1
     4    1   24 1
     5    2    3 1
     6    2    4 1
     7    2   14 1
     8    4    5 2
     9    4    6 am
    10    6    7 1
    11    6   25 1
    12    7    8 1
    13    7   12 1
    14    7    9 1
    15    9   10 1
    16    9   26 1
    17    9   27 1
    18   10   11 1
    19   10   28 1
    20   10   29 1
    21   11   12 1
    22   12   13 2
    23   14   15 1
    24   15   16 2
    25   15   17 1
    26   17   21 1
    27   17   18 2
    28   18   19 1
    29   18   30 1
    30   19   20 2
    31   19   31 1
    32   20   21 1
    33   20   32 1
@<TRIPOS>MOLECULE
ZINC02016053
   32    33     0     0     0
SMALL
USER_CHARGES
N-(2-oxotetrahydrothiophen-3-yl)-2-(2-thienylcarbonylsulfanyl)propanamide
@<TRIPOS>ATOM
      1 C1         -1.1025    4.1450   -1.4072 C.3       1 <0>        -0.1485
      2 C2         -1.2145    3.6256    0.0275 C.3       1 <0>        -0.1009
      3 H1         -0.3749    3.9971    0.6150 H         1 <0>         0.1242
      4 C3         -1.1940    2.1187    0.0192 C.2       1 <0>         0.5397
      5 O1         -2.2360    1.4981    0.0208 O.2       1 <0>        -0.4998
      6 N1         -0.0178    1.4608    0.0101 N.am      1 <0>        -0.7132
      7 C4          0.0021   -0.0041    0.0020 C.3       1 <0>         0.0974
      8 H2         -0.7572   -0.3447   -0.5525 H         1 <0>         0.1159
      9 C5          1.3129   -0.4782   -0.6240 C.3       1 <0>        -0.1338
     10 C6          1.6078   -1.9138   -0.1303 C.3       1 <0>        -0.0751
     11 S1          0.8505   -1.8956    1.5373 S.3       1 <0>        -0.1983
     12 C7         -0.1734   -0.5044    1.4181 C.2       1 <0>         0.3613
     13 O2         -0.8800   -0.0327    2.2843 O.2       1 <0>        -0.3750
     14 S2         -2.7657    4.2039    0.7592 S.3       1 <0>        -0.0690
     15 C8         -2.4644    5.9398    0.7827 C.2       1 <0>         0.4240
     16 O3         -1.4110    6.3806    0.3605 O.2       1 <0>        -0.4399
     17 C9         -3.4822    6.8533    1.3106 C.2       1 <0>        -0.2624
     18 C10        -3.4450    8.2345    1.4181 C.2       1 <0>        -0.0560
     19 C11        -4.5479    8.8497    1.9566 C.2       1 <0>        -0.1849
     20 C12        -5.6038    8.0912    2.3515 C.2       1 <0>        -0.1744
     21 S3         -5.0947    6.4774    1.9751 S.3       1 <0>         0.1827
     22 H3         -1.1173    5.2349   -1.4012 H         1 <0>         0.0885
     23 H4         -0.1683    3.7967   -1.8479 H         1 <0>         0.0765
     24 H5         -1.9421    3.7735   -1.9947 H         1 <0>         0.0763
     25 H6          0.8156    1.9572    0.0048 H         1 <0>         0.4101
     26 H7          1.2223   -0.4756   -1.7102 H         1 <0>         0.1106
     27 H8          2.1235    0.1861   -0.3243 H         1 <0>         0.0966
     28 H9          1.1258   -2.6532   -0.7698 H         1 <0>         0.1141
     29 H10         2.6813   -2.0929   -0.0696 H         1 <0>         0.1263
     30 H11        -2.5858    8.8021    1.0927 H         1 <0>         0.1482
     31 H12        -4.5758    9.9238    2.0654 H         1 <0>         0.1440
     32 H13        -6.5365    8.4156    2.7888 H         1 <0>         0.1949
@<TRIPOS>BOND
     1    1    2 1
     2    1   22 1
     3    1   23 1
     4    1   24 1
     5    2    3 1
     6    2    4 1
     7    2   14 1
     8    4    5 2
     9    4    6 am
    10    6    7 1
    11    6   25 1
    12    7    8 1
    13    7   12 1
    14    7    9 1
    15    9   10 1
    16    9   26 1
    17    9   27 1
    18   10   11 1
    19   10   28 1
    20   10   29 1
    21   11   12 1
    22   12   13 2
    23   14   15 1
    24   15   16 2
    25   15   17 1
    26   17   21 1
    27   17   18 2
    28   18   19 1
    29   18   30 1
    30   19   20 2
    31   19   31 1
    32   20   21 1
    33   20   32 1
@<TRIPOS>MOLECULE
ZINC02016054
   32    33     0     0     0
SMALL
USER_CHARGES
N-(2-oxotetrahydrothiophen-3-yl)-2-(2-thienylcarbonylsulfanyl)propanamide
@<TRIPOS>ATOM
      1 C1          6.5999    0.0848   -1.2173 C.3       1 <0>        -0.1488
      2 C2          5.9255    1.4581   -1.2000 C.3       1 <0>        -0.1020
      3 H1          5.6394    1.7352   -2.2147 H         1 <0>         0.1254
      4 C3          4.6970    1.4035   -0.3289 C.2       1 <0>         0.5397
      5 O1          4.7397    1.8269    0.8068 O.2       1 <0>        -0.4997
      6 N1          3.5510    0.8841   -0.8119 N.am      1 <0>        -0.7133
      7 C4          2.3567    0.8310    0.0349 C.3       1 <0>         0.0977
      8 H2          2.6252    0.6345    0.9779 H         1 <0>         0.1160
      9 C5          1.4495   -0.2953   -0.4583 C.3       1 <0>        -0.1337
     10 C6          0.0021   -0.0041    0.0020 C.3       1 <0>        -0.0751
     11 S1         -0.0228    1.8273    0.0121 S.3       1 <0>        -0.1985
     12 C7          1.6726    2.1790   -0.0022 C.2       1 <0>         0.3613
     13 O2          2.1985    3.2719   -0.0350 O.2       1 <0>        -0.3751
     14 S2          7.0783    2.6881   -0.5410 S.3       1 <0>        -0.0670
     15 C8          8.3134    2.6538   -1.7972 C.2       1 <0>         0.4230
     16 O3          8.1886    1.9107   -2.7535 O.2       1 <0>        -0.4403
     17 C9          9.4914    3.5199   -1.6907 C.2       1 <0>        -0.2622
     18 C10        10.5650    3.6448   -2.5581 C.2       1 <0>        -0.0562
     19 C11        11.5457    4.5420   -2.2140 C.2       1 <0>        -0.1848
     20 C12        11.4209    5.2517   -1.0622 C.2       1 <0>        -0.1745
     21 S3          9.9126    4.6936   -0.4148 S.3       1 <0>         0.1824
     22 H3          5.9057   -0.6559   -1.6142 H         1 <0>         0.0765
     23 H4          7.4885    0.1243   -1.8474 H         1 <0>         0.0885
     24 H5          6.8860   -0.1923   -0.2027 H         1 <0>         0.0759
     25 H6          3.5169    0.5455   -1.7202 H         1 <0>         0.4101
     26 H7          1.7832   -1.2447   -0.0394 H         1 <0>         0.1106
     27 H8          1.4850   -0.3445   -1.5466 H         1 <0>         0.0966
     28 H9         -0.1776   -0.4024    1.0006 H         1 <0>         0.1141
     29 H10        -0.7218   -0.4003   -0.7101 H         1 <0>         0.1263
     30 H11        10.6274    3.0622   -3.4653 H         1 <0>         0.1481
     31 H12        12.4064    4.6816   -2.8513 H         1 <0>         0.1439
     32 H13        12.0957    5.9882   -0.6516 H         1 <0>         0.1949
@<TRIPOS>BOND
     1    1    2 1
     2    1   22 1
     3    1   23 1
     4    1   24 1
     5    2    3 1
     6    2    4 1
     7    2   14 1
     8    4    5 2
     9    4    6 am
    10    6    7 1
    11    6   25 1
    12    7    8 1
    13    7   12 1
    14    7    9 1
    15    9   10 1
    16    9   26 1
    17    9   27 1
    18   10   11 1
    19   10   28 1
    20   10   29 1
    21   11   12 1
    22   12   13 2
    23   14   15 1
    24   15   16 2
    25   15   17 1
    26   17   21 1
    27   17   18 2
    28   18   19 1
    29   18   30 1
    30   19   20 2
    31   19   31 1
    32   20   21 1
    33   20   32 1
@<TRIPOS>MOLECULE
ZINC02016055
   32    33     0     0     0
SMALL
USER_CHARGES
N-(2-oxotetrahydrothiophen-3-yl)-2-(2-thienylcarbonylsulfanyl)propanamide
@<TRIPOS>ATOM
      1 C1          3.7499    5.8456    1.3051 C.3       1 <0>        -0.1489
      2 C2          2.9536    5.9874    0.0064 C.3       1 <0>        -0.0993
      3 H1          3.6037    5.7780   -0.8431 H         1 <0>         0.1246
      4 C3          2.4191    7.3921   -0.1043 C.2       1 <0>         0.5398
      5 O1          1.2945    7.6444    0.2730 O.2       1 <0>        -0.5004
      6 N1          3.1909    8.3679   -0.6226 N.am      1 <0>        -0.7128
      7 C4          2.6713    9.7334   -0.7302 C.3       1 <0>         0.0972
      8 H2          1.6913    9.7026   -0.9269 H         1 <0>         0.1171
      9 C5          3.3786   10.4429   -1.8840 C.3       1 <0>        -0.1341
     10 C6          3.2915   11.9691   -1.6576 C.3       1 <0>        -0.0750
     11 S1          3.2865   12.0710    0.1711 S.3       1 <0>        -0.1981
     12 C7          2.8770   10.4415    0.5900 C.2       1 <0>         0.3616
     13 O2          2.7766    9.9694    1.7031 O.2       1 <0>        -0.3770
     14 S2          1.5740    4.8157    0.0135 S.3       1 <0>        -0.0731
     15 C8          2.4640    3.2951   -0.0038 C.2       1 <0>         0.4250
     16 O3          3.6814    3.3024   -0.0158 O.2       1 <0>        -0.4385
     17 C9          1.7385    2.0212   -0.0037 C.2       1 <0>        -0.2623
     18 C10         2.2411    0.7297   -0.0154 C.2       1 <0>        -0.0558
     19 C11         1.3289   -0.2963   -0.0122 C.2       1 <0>        -0.1847
     20 C12         0.0021   -0.0041    0.0020 C.2       1 <0>        -0.1740
     21 S3         -0.0214    1.7294    0.0116 S.3       1 <0>         0.1817
     22 H3          4.1365    4.8296    1.3852 H         1 <0>         0.0882
     23 H4          4.5807    6.5512    1.3008 H         1 <0>         0.0761
     24 H5          3.0998    6.0550    2.1546 H         1 <0>         0.0774
     25 H6          4.0904    8.1660   -0.9243 H         1 <0>         0.4101
     26 H7          4.4237   10.1354   -1.9178 H         1 <0>         0.0967
     27 H8          2.8925   10.1861   -2.8252 H         1 <0>         0.1106
     28 H9          2.3696   12.3755   -2.0737 H         1 <0>         0.1143
     29 H10         4.1620   12.4756   -2.0744 H         1 <0>         0.1264
     30 H11         3.3040    0.5387   -0.0269 H         1 <0>         0.1483
     31 H12         1.6620   -1.3236   -0.0206 H         1 <0>         0.1441
     32 H13        -0.8351   -0.6864    0.0067 H         1 <0>         0.1949
@<TRIPOS>BOND
     1    1    2 1
     2    1   22 1
     3    1   23 1
     4    1   24 1
     5    2    3 1
     6    2    4 1
     7    2   14 1
     8    4    5 2
     9    4    6 am
    10    6    7 1
    11    6   25 1
    12    7    8 1
    13    7   12 1
    14    7    9 1
    15    9   10 1
    16    9   26 1
    17    9   27 1
    18   10   11 1
    19   10   28 1
    20   10   29 1
    21   11   12 1
    22   12   13 2
    23   14   15 1
    24   15   16 2
    25   15   17 1
    26   17   21 1
    27   17   18 2
    28   18   19 1
    29   18   30 1
    30   19   20 2
    31   19   31 1
    32   20   21 1
    33   20   32 1
@<TRIPOS>MOLECULE
ZINC03992480
  102   106     0     0     0
SMALL
USER_CHARGES
(3S,3aS,6aR)-2-[(2S)-2-[[(2S)-2-cyclohexyl-2-(pyrazine-2-carbonylamino)acetyl]amino]-3,3-dimethyl-butanoyl]-N-[(1S)-1-[2-(cyclopropylamino)-2-oxo-acetyl]butyl]-3,3a,4,5,6,6a-hexahydro-1H-cyclopenta[c]pyrrole-3-carboxamide
@<TRIPOS>ATOM
      1 C1          1.7934    1.7727    0.8817 C.3       1 <0>        -0.1487
      2 C2          1.7248    0.5575    1.8089 C.3       1 <0>        -0.1167
      3 C3          0.8624    0.8935    3.0272 C.3       1 <0>        -0.1199
      4 C4          0.7939   -0.3217    3.9543 C.3       1 <0>         0.1239
      5 H1          1.8017   -0.6804    4.2107 H         1 <0>         0.1267
      6 C5          0.0481    0.0467    5.2109 C.2       1 <0>         0.3566
      7 O1         -1.0847   -0.3385    5.3758 O.2       1 <0>        -0.4149
      8 C6          0.7087    0.8865    6.2507 C.2       1 <0>         0.4805
      9 O2          1.8470    1.2735    6.0850 O.2       1 <0>        -0.5039
     10 N1          0.0417    1.2160    7.3746 N.am      1 <0>        -0.7073
     11 C7          0.6908    2.0412    8.3963 C.3       1 <0>        -0.0276
     12 C8          0.5147    1.6244    9.8578 C.3       1 <0>        -0.1399
     13 C9         -0.2119    2.8596    9.3217 C.3       1 <0>        -0.1337
     14 N2          0.0953   -1.4155    3.2748 N.am      1 <0>        -0.7346
     15 C10         0.7740   -2.2418    2.4544 C.2       1 <0>         0.5149
     16 O3          1.9631   -2.0798    2.2786 O.2       1 <0>        -0.5121
     17 C11         0.0555   -3.3671    1.7554 C.3       1 <0>         0.1287
     18 H2         -0.9062   -2.9933    1.3742 H         1 <0>         0.1002
     19 C12        -0.1293   -4.5437    2.7221 C.3       1 <0>        -0.0857
     20 H3         -0.0541   -4.1984    3.7638 H         1 <0>         0.1022
     21 C13        -1.4874   -5.2301    2.4491 C.3       1 <0>        -0.1224
     22 C14        -1.2136   -6.7010    2.8498 C.3       1 <0>        -0.1218
     23 C15         0.2399   -6.9708    2.3654 C.3       1 <0>        -0.1188
     24 C16         0.9220   -5.5938    2.2729 C.3       1 <0>        -0.0914
     25 H4          1.8529   -5.5988    2.8589 H         1 <0>         0.0975
     26 C17         1.1556   -5.2588    0.7871 C.3       1 <0>         0.0946
     27 N3          0.8539   -3.8336    0.6177 N.am      1 <0>        -0.5900
     28 C18         1.2489   -3.0718   -0.4216 C.2       1 <0>         0.5443
     29 O4          0.8644   -1.9252   -0.5136 O.2       1 <0>        -0.5196
     30 C19         2.1684   -3.6446   -1.4692 C.3       1 <0>         0.1503
     31 H5          2.0590   -4.7386   -1.5031 H         1 <0>         0.1031
     32 C20         3.6116   -3.2463   -1.1540 C.3       1 <0>        -0.0620
     33 C21         4.0068   -3.8028    0.2153 C.3       1 <0>        -0.1579
     34 C22         4.5436   -3.8169   -2.2248 C.3       1 <0>        -0.1311
     35 C23         3.7275   -1.7208   -1.1372 C.3       1 <0>        -0.1439
     36 N4          1.7941   -3.1223   -2.7857 N.am      1 <0>        -0.7211
     37 C24         2.0936   -3.8217   -3.8982 C.2       1 <0>         0.5232
     38 O5          2.6731   -4.8834   -3.8094 O.2       1 <0>        -0.5292
     39 C25         1.7086   -3.2844   -5.2525 C.3       1 <0>         0.1352
     40 H6          2.2217   -2.3284   -5.4337 H         1 <0>         0.1161
     41 C26         0.1896   -3.1143   -5.3207 C.3       1 <0>        -0.0896
     42 C27        -0.4858   -4.4691   -5.0987 C.3       1 <0>        -0.1126
     43 C28        -2.0048   -4.2990   -5.1668 C.3       1 <0>        -0.1165
     44 C29        -2.3957   -3.7535   -6.5418 C.3       1 <0>        -0.1204
     45 C30        -1.7203   -2.3987   -6.7638 C.3       1 <0>        -0.1211
     46 C31        -0.2013   -2.5688   -6.6957 C.3       1 <0>        -0.1056
     47 N5          2.1421   -4.2222   -6.2912 N.am      1 <0>        -0.7017
     48 C32         2.3774   -3.7803   -7.5425 C.2       1 <0>         0.5813
     49 O6          2.2300   -2.6039   -7.8092 O.2       1 <0>        -0.5254
     50 C33         2.8157   -4.7287   -8.5929 C.ar      1 <0>         0.0295
     51 C34         3.0542   -4.2746   -9.8896 C.ar      1 <0>         0.1103
     52 N6          3.4495   -5.1232  -10.8214 N.ar      1 <0>        -0.4385
     53 C35         3.6088   -6.4017  -10.5281 C.ar      1 <0>         0.0749
     54 C36         3.3673   -6.8575   -9.2403 C.ar      1 <0>         0.0513
     55 N7          2.9777   -6.0166   -8.3031 N.ar      1 <0>        -0.4104
     56 H7          2.4134    1.5311    0.0058 H         1 <0>         0.0548
     57 H8          2.2373    2.6217    1.4222 H         1 <0>         0.0486
     58 H9          0.7788    2.0389    0.5505 H         1 <0>         0.0488
     59 H10         1.2809   -0.2915    1.2684 H         1 <0>         0.0837
     60 H11         2.7394    0.2912    2.1401 H         1 <0>         0.0656
     61 H12         1.3063    1.7425    3.5677 H         1 <0>         0.0806
     62 H13        -0.1522    1.1597    2.6961 H         1 <0>         0.0676
     63 H14        -0.9900    0.8653    7.5247 H         1 <0>         0.4187
     64 H15         1.5384    2.2490    7.7266 H         1 <0>         0.1597
     65 H16         0.0905    0.6104    9.9013 H         1 <0>         0.1051
     66 H17         1.4921    1.6349   10.3624 H         1 <0>         0.1123
     67 H18         0.1649    3.8912    9.3831 H         1 <0>         0.1132
     68 H19        -1.2367    2.8667    8.9220 H         1 <0>         0.1057
     69 H20        -0.9831   -1.5624    3.4342 H         1 <0>         0.4268
     70 H21        -2.2667   -4.7596    3.0666 H         1 <0>         0.0738
     71 H22        -1.7464   -5.1206    1.3856 H         1 <0>         0.0724
     72 H23        -1.3096   -6.8079    3.9404 H         1 <0>         0.0694
     73 H24        -1.9413   -7.3583    2.3515 H         1 <0>         0.0697
     74 H25         0.7534   -7.6197    3.0902 H         1 <0>         0.0720
     75 H26         0.2132   -7.4667    1.3839 H         1 <0>         0.0731
     76 H27         2.2029   -5.4688    0.5242 H         1 <0>         0.0848
     77 H28         0.4905   -5.8742    0.1635 H         1 <0>         0.0758
     78 H29         5.0444   -3.5164    0.4419 H         1 <0>         0.0604
     79 H30         3.9234   -4.8996    0.2033 H         1 <0>         0.0526
     80 H31         3.3367   -3.3925    0.9851 H         1 <0>         0.0827
     81 H32         5.5812   -3.5305   -1.9982 H         1 <0>         0.0513
     82 H33         4.2594   -3.4167   -3.2092 H         1 <0>         0.0526
     83 H34         4.4602   -4.9137   -2.2368 H         1 <0>         0.0640
     84 H35         4.7651   -1.4344   -0.9106 H         1 <0>         0.0536
     85 H36         3.0574   -1.3106   -0.3673 H         1 <0>         0.0720
     86 H37         3.4433   -1.3206   -2.1216 H         1 <0>         0.0527
     87 H38         1.2686   -2.1593   -2.8663 H         1 <0>         0.4321
     88 H39        -0.1359   -2.4102   -4.5408 H         1 <0>         0.0837
     89 H40        -0.1604   -5.1732   -5.8786 H         1 <0>         0.0660
     90 H41        -0.2047   -4.8614   -4.1102 H         1 <0>         0.0589
     91 H42        -2.4903   -5.2730   -5.0071 H         1 <0>         0.0610
     92 H43        -2.3303   -3.5949   -4.3869 H         1 <0>         0.0615
     93 H44        -2.0702   -4.4577   -7.3217 H         1 <0>         0.0587
     94 H45        -3.4878   -3.6312   -6.5909 H         1 <0>         0.0604
     95 H46        -2.0014   -2.0065   -7.7523 H         1 <0>         0.0622
     96 H47        -2.0457   -1.6946   -5.9839 H         1 <0>         0.0614
     97 H48         0.2843   -1.5948   -6.8553 H         1 <0>         0.0741
     98 H49         0.1242   -3.2729   -7.4756 H         1 <0>         0.0623
     99 H50         2.2756   -5.2871   -6.0498 H         1 <0>         0.4443
    100 H51         2.9200   -3.2304  -10.1304 H         1 <0>         0.1828
    101 H52         3.9283   -7.0938  -11.2931 H         1 <0>         0.1779
    102 H53         3.4985   -7.9034   -9.0053 H         1 <0>         0.1793
@<TRIPOS>BOND
     1    1    2 1
     2    1   56 1
     3    1   57 1
     4    1   58 1
     5    2    3 1
     6    2   59 1
     7    2   60 1
     8    3    4 1
     9    3   61 1
    10    3   62 1
    11    4    5 1
    12    4    6 1
    13    4   14 1
    14    6    7 2
    15    6    8 1
    16    8    9 2
    17    8   10 am
    18   10   11 1
    19   10   63 1
    20   11   13 1
    21   11   12 1
    22   11   64 1
    23   12   13 1
    24   12   65 1
    25   12   66 1
    26   13   67 1
    27   13   68 1
    28   14   15 am
    29   14   69 1
    30   15   16 2
    31   15   17 1
    32   17   18 1
    33   17   27 1
    34   17   19 1
    35   19   20 1
    36   19   24 1
    37   19   21 1
    38   21   22 1
    39   21   70 1
    40   21   71 1
    41   22   23 1
    42   22   72 1
    43   22   73 1
    44   23   24 1
    45   23   74 1
    46   23   75 1
    47   24   25 1
    48   24   26 1
    49   26   27 1
    50   26   76 1
    51   26   77 1
    52   27   28 am
    53   28   29 2
    54   28   30 1
    55   30   31 1
    56   30   32 1
    57   30   36 1
    58   32   33 1
    59   32   34 1
    60   32   35 1
    61   33   78 1
    62   33   79 1
    63   33   80 1
    64   34   81 1
    65   34   82 1
    66   34   83 1
    67   35   84 1
    68   35   85 1
    69   35   86 1
    70   36   37 am
    71   36   87 1
    72   37   38 2
    73   37   39 1
    74   39   40 1
    75   39   41 1
    76   39   47 1
    77   41   46 1
    78   41   42 1
    79   41   88 1
    80   42   43 1
    81   42   89 1
    82   42   90 1
    83   43   44 1
    84   43   91 1
    85   43   92 1
    86   44   45 1
    87   44   93 1
    88   44   94 1
    89   45   46 1
    90   45   95 1
    91   45   96 1
    92   46   97 1
    93   46   98 1
    94   47   48 am
    95   47   99 1
    96   48   49 2
    97   48   50 1
    98   50   55 ar
    99   50   51 ar
   100   51   52 ar
   101   51  100 1
   102   52   53 ar
   103   53   54 ar
   104   53  101 1
   105   54   55 ar
   106   54  102 1
@<TRIPOS>MOLECULE
ZINC00945066
   44    46     0     0     0
SMALL
USER_CHARGES
methyl 5-[2-(1,3-dioxoisoindolin-2-yl)-3-methyl-butanoyl]amino-2H-1,2,4-triazole-3-carboxylate
@<TRIPOS>ATOM
      1 C1         -2.4218   -4.9193    1.6477 C.3       1 <0>        -0.1571
      2 C2         -1.8305   -3.5382    1.3583 C.3       1 <0>        -0.1059
      3 C3         -0.7937   -3.1927    2.4292 C.3       1 <0>        -0.1450
      4 C4         -1.1595   -3.5486   -0.0166 C.3       1 <0>         0.1405
      5 H1         -0.4114   -4.3407   -0.0499 H         1 <0>         0.1355
      6 C5         -2.1981   -3.7937   -1.0807 C.2       1 <0>         0.5047
      7 O1         -2.7181   -2.8562   -1.6479 O.2       1 <0>        -0.4520
      8 N1         -2.5493   -5.0546   -1.4019 N.am      1 <0>        -0.6201
      9 C6         -3.4308   -5.2862   -2.4623 C.2       1 <0>         0.4436
     10 N2         -3.8484   -6.4801   -2.8708 N.2       1 <0>        -0.4878
     11 C7         -4.6715   -6.3405   -3.8917 C.2       1 <0>         0.2752
     12 N3         -4.7908   -5.0178   -4.1525 N.pl3     1 <0>        -0.4253
     13 H2         -5.3291   -4.6081   -4.8477 H         1 <0>         0.4574
     14 N4         -3.9841   -4.3567   -3.2119 N.2       1 <0>        -0.2489
     15 C8         -5.3434   -7.4336   -4.6214 C.2       1 <0>         0.5605
     16 O2         -6.0831   -7.1787   -5.5507 O.2       1 <0>        -0.4819
     17 O3         -5.1363   -8.7142   -4.2566 O.3       1 <0>        -0.3233
     18 C9         -5.8299   -9.7371   -5.0189 C.3       1 <0>         0.0342
     19 N5         -0.5126   -2.2557   -0.2542 N.am      1 <0>        -0.5660
     20 C10        -1.1571   -1.0752   -0.2782 C.2       1 <0>         0.5746
     21 O4         -2.3490   -0.9146   -0.1089 O.2       1 <0>        -0.4286
     22 C11        -0.1718   -0.0061   -0.5450 C.ar      1 <0>        -0.1335
     23 C12        -0.2503    1.3710   -0.6777 C.ar      1 <0>        -0.0454
     24 C13         0.8984    2.1032   -0.9340 C.ar      1 <0>        -0.0920
     25 C14         2.1203    1.4690   -1.0587 C.ar      1 <0>        -0.0967
     26 C15         2.2140    0.0922   -0.9280 C.ar      1 <0>        -0.0422
     27 C16         1.0742   -0.6527   -0.6713 C.ar      1 <0>        -0.1426
     28 C17         0.8040   -2.0929   -0.4771 C.2       1 <0>         0.5790
     29 O5          1.6321   -2.9805   -0.5121 O.2       1 <0>        -0.4614
     30 H3         -1.6455   -5.6768    1.5397 H         1 <0>         0.0672
     31 H4         -2.8121   -4.9415    2.6652 H         1 <0>         0.0769
     32 H5         -3.2291   -5.1235    0.9444 H         1 <0>         0.0606
     33 H6         -2.6258   -2.7929    1.3688 H         1 <0>         0.0977
     34 H7         -0.3724   -2.2088    2.2230 H         1 <0>         0.0519
     35 H8         -1.2718   -3.1853    3.4087 H         1 <0>         0.0708
     36 H9          0.0016   -3.9379    2.4187 H         1 <0>         0.0645
     37 H10        -2.1905   -5.8014   -0.8975 H         1 <0>         0.4296
     38 H11        -6.9059   -9.5809   -4.9416 H         1 <0>         0.0712
     39 H12        -5.5283   -9.6780   -6.0647 H         1 <0>         0.0711
     40 H13        -5.5761  -10.7203   -4.6225 H         1 <0>         0.1138
     41 H14        -1.2031    1.8712   -0.5862 H         1 <0>         0.1434
     42 H15         0.8382    3.1764   -1.0380 H         1 <0>         0.1439
     43 H16         3.0082    2.0503   -1.2588 H         1 <0>         0.1440
     44 H17         3.1714   -0.3979   -1.0262 H         1 <0>         0.1434
@<TRIPOS>BOND
     1    1    2 1
     2    1   30 1
     3    1   31 1
     4    1   32 1
     5    2    3 1
     6    2    4 1
     7    2   33 1
     8    3   34 1
     9    3   35 1
    10    3   36 1
    11    4    5 1
    12    4    6 1
    13    4   19 1
    14    6    7 2
    15    6    8 am
    16    8    9 1
    17    8   37 1
    18    9   14 2
    19    9   10 1
    20   10   11 2
    21   11   12 1
    22   11   15 1
    23   12   13 1
    24   12   14 1
    25   15   16 2
    26   15   17 1
    27   17   18 1
    28   18   38 1
    29   18   39 1
    30   18   40 1
    31   19   28 am
    32   19   20 am
    33   20   21 2
    34   20   22 1
    35   22   27 ar
    36   22   23 ar
    37   23   24 ar
    38   23   41 1
    39   24   25 ar
    40   24   42 1
    41   25   26 ar
    42   25   43 1
    43   26   27 ar
    44   26   44 1
    45   27   28 1
    46   28   29 2
@<TRIPOS>MOLECULE
ZINC00945067
   43    45     0     0     0
SMALL
USER_CHARGES

@<TRIPOS>ATOM
      1 C1          0.6186    0.2072    1.1797 C.3       1 <0>        -0.1413
      2 C2         -0.1007    0.1764   -0.1703 C.3       1 <0>        -0.0984
      3 C3          0.8086   -0.4688   -1.2181 C.3       1 <0>        -0.1374
      4 C4         -1.3898   -0.6377   -0.0429 C.3       1 <0>         0.1863
      5 C5         -2.1513   -0.5793   -1.3420 C.2       1 <0>         0.3992
      6 O1         -3.1269    0.3361   -1.5111 O.3       1 <0>        -0.6753
      7 N1         -1.8679   -1.4110   -2.2991 N.2       1 <0>        -0.6167
      8 C6         -2.5616   -1.3578   -3.4824 C.2       1 <0>         0.4462
      9 N2         -2.3667   -2.1578   -4.5315 N.2       1 <0>        -0.4778
     10 C7         -3.2007   -1.8353   -5.4993 C.2       1 <0>         0.2154
     11 N3         -3.9592   -0.7987   -5.0714 N.pl3     1 <0>        -0.4634
     12 H1         -4.6603   -0.3479   -5.5674 H         1 <0>         0.4330
     13 N4         -3.5339   -0.5099   -3.7645 N.2       1 <0>        -0.2854
     14 C8         -3.2917   -2.4897   -6.8196 C.2       1 <0>         0.5685
     15 O2         -4.1046   -2.1020   -7.6349 O.2       1 <0>        -0.5080
     16 O3         -2.4731   -3.5169   -7.1204 O.3       1 <0>        -0.3210
     17 C9         -2.6162   -4.1027   -8.4159 C.3       1 <0>         0.0333
     18 N5         -2.2147   -0.0810    1.0322 N.am      1 <0>        -0.5514
     19 C10        -2.6013    1.2053    1.1067 C.2       1 <0>         0.5757
     20 O4         -2.3256    2.0759    0.3060 O.2       1 <0>        -0.4269
     21 C11        -3.4180    1.3818    2.3260 C.ar      1 <0>        -0.1241
     22 C12        -4.0691    2.4581    2.9072 C.ar      1 <0>        -0.0540
     23 C13        -4.7693    2.2803    4.0902 C.ar      1 <0>        -0.1001
     24 C14        -4.8220    1.0376    4.6933 C.ar      1 <0>        -0.1070
     25 C15        -4.1756   -0.0480    4.1234 C.ar      1 <0>        -0.0501
     26 C16        -3.4718    0.1147    2.9409 C.ar      1 <0>        -0.1375
     27 C17        -2.6902   -0.7901    2.0718 C.2       1 <0>         0.5729
     28 O5         -2.5064   -1.9749    2.2650 O.2       1 <0>        -0.4761
     29 H2          1.5823    0.7038    1.0666 H         1 <0>         0.0581
     30 H3          0.0116    0.7524    1.9025 H         1 <0>         0.0428
     31 H4          0.7744   -0.8125    1.5317 H         1 <0>         0.0560
     32 H5         -0.3426    1.1942   -0.4765 H         1 <0>         0.0868
     33 H6          1.0504   -1.4866   -0.9119 H         1 <0>         0.0564
     34 H7          0.2961   -0.4908   -2.1799 H         1 <0>         0.0779
     35 H8          1.7269    0.1112   -1.3089 H         1 <0>         0.0477
     36 H9         -1.1436   -1.6742    0.1877 H         1 <0>         0.1142
     37 H10        -1.8995   -4.9163   -8.5280 H         1 <0>         0.1062
     38 H11        -3.6281   -4.4918   -8.5290 H         1 <0>         0.0614
     39 H12        -2.4301   -3.3469   -9.1790 H         1 <0>         0.0615
     40 H13        -4.0309    3.4313    2.4407 H         1 <0>         0.1393
     41 H14        -5.2768    3.1187    4.5442 H         1 <0>         0.1372
     42 H15        -5.3705    0.9118    5.6151 H         1 <0>         0.1371
     43 H16        -4.2199   -1.0165    4.5992 H         1 <0>         0.1388
@<TRIPOS>BOND
     1    1    2 1
     2    1   29 1
     3    1   30 1
     4    1   31 1
     5    2    3 1
     6    2    4 1
     7    2   32 1
     8    3   33 1
     9    3   34 1
    10    3   35 1
    11    4    5 1
    12    4   18 1
    13    4   36 1
    14    5    6 1
    15    5    7 2
    16    7    8 1
    17    8   13 2
    18    8    9 1
    19    9   10 2
    20   10   11 1
    21   10   14 1
    22   11   12 1
    23   11   13 1
    24   14   15 2
    25   14   16 1
    26   16   17 1
    27   17   37 1
    28   17   38 1
    29   17   39 1
    30   18   27 am
    31   18   19 am
    32   19   20 2
    33   19   21 1
    34   21   26 ar
    35   21   22 ar
    36   22   23 ar
    37   22   40 1
    38   23   24 ar
    39   23   41 1
    40   24   25 ar
    41   24   42 1
    42   25   26 ar
    43   25   43 1
    44   26   27 1
    45   27   28 2
@<TRIPOS>MOLECULE
ZINC00037161
   21    22     0     0     0
SMALL
USER_CHARGES
(2-chlorophenyl)-(4-chloropyrazol-1-yl)-methanone
@<TRIPOS>ATOM
      1 C1         -4.8717    2.6148   -0.1545 C.ar      1 <0>        -0.1333
      2 C2         -5.6990    3.7212   -0.2452 C.ar      1 <0>        -0.0655
      3 C3         -5.1631    4.9959   -0.2447 C.ar      1 <0>        -0.1291
      4 C4         -3.7966    5.1738   -0.1484 C.ar      1 <0>         0.0219
      5 C5         -2.9555    4.0606   -0.0615 C.ar      1 <0>        -0.1509
      6 C6         -3.5056    2.7762   -0.0626 C.ar      1 <0>        -0.0618
      7 C7         -1.4941    4.2413    0.0371 C.2       1 <0>         0.5960
      8 O1         -1.0261    5.3569    0.1473 O.2       1 <0>        -0.4486
      9 N1         -0.6788    3.1686    0.0049 N.am      1 <0>        -0.3647
     10 C8          0.6838    3.1954   -0.0125 C.2       1 <0>         0.1013
     11 C9          1.1164    1.9154   -0.0446 C.2       1 <0>        -0.1684
     12 C10        -0.0091    1.0784   -0.0471 C.2       1 <0>         0.1096
     13 N2         -1.0803    1.8267   -0.0228 N.2       1 <0>        -0.2714
     14 Cl1         2.7733    1.3982   -0.0762 Cl        1 <0>        -0.0172
     15 Cl2        -3.1255    6.7748   -0.1407 Cl        1 <0>        -0.0313
     16 H1         -5.2978    1.6224   -0.1555 H         1 <0>         0.1395
     17 H2         -6.7684    3.5880   -0.3162 H         1 <0>         0.1404
     18 H3         -5.8145    5.8544   -0.3161 H         1 <0>         0.1441
     19 H4         -2.8621    1.9118    0.0080 H         1 <0>         0.1821
     20 H5          1.3049    4.0789   -0.0027 H         1 <0>         0.1987
     21 H6          0.0068   -0.0012   -0.0699 H         1 <0>         0.2089
@<TRIPOS>BOND
     1    1    6 ar
     2    1    2 ar
     3    1   16 1
     4    2    3 ar
     5    2   17 1
     6    3    4 ar
     7    3   18 1
     8    4    5 ar
     9    4   15 1
    10    5    6 ar
    11    5    7 1
    12    6   19 1
    13    7    8 2
    14    7    9 am
    15    9   13 1
    16    9   10 1
    17   10   11 2
    18   10   20 1
    19   11   12 1
    20   11   14 1
    21   12   13 2
    22   12   21 1
@<TRIPOS>MOLECULE
ZINC00052093
   24    25     0     0     0
SMALL
USER_CHARGES
o-tolyl-pyrazol-1-yl-methanone
@<TRIPOS>ATOM
      1 C1          2.7238   -4.4277    0.1568 C.3       1 <0>        -0.1332
      2 C2          1.2469   -4.1290    0.1796 C.ar      1 <0>        -0.0132
      3 C3          0.3323   -5.1520    0.0381 C.ar      1 <0>        -0.1428
      4 C4         -1.0240   -4.8786    0.0530 C.ar      1 <0>        -0.0742
      5 C5         -1.4730   -3.5795    0.2146 C.ar      1 <0>        -0.1467
      6 C6         -0.5699   -2.5478    0.3625 C.ar      1 <0>        -0.0697
      7 C7          0.8009   -2.8165    0.3489 C.ar      1 <0>        -0.1631
      8 C8          1.7738   -1.7170    0.5067 C.2       1 <0>         0.5992
      9 O1          2.9640   -1.9415    0.4151 O.2       1 <0>        -0.4754
     10 N1          1.3412   -0.4644    0.7522 N.am      1 <0>        -0.3726
     11 C9          2.1244    0.6183    1.0160 C.2       1 <0>         0.0767
     12 C10         1.3068    1.6772    1.2035 C.2       1 <0>        -0.2459
     13 C11        -0.0149    1.2356    1.0513 C.2       1 <0>         0.0886
     14 N2          0.0054   -0.0430    0.7819 N.2       1 <0>        -0.2848
     15 H1          3.0940   -4.5083    1.1788 H         1 <0>         0.0761
     16 H2          2.8963   -5.3678   -0.3672 H         1 <0>         0.0654
     17 H3          3.2494   -3.6233   -0.3577 H         1 <0>         0.0975
     18 H4          0.6757   -6.1680   -0.0888 H         1 <0>         0.1318
     19 H5         -1.7356   -5.6828   -0.0624 H         1 <0>         0.1291
     20 H6         -2.5330   -3.3732    0.2246 H         1 <0>         0.1305
     21 H7         -0.9216   -1.5345    0.4889 H         1 <0>         0.1758
     22 H8          3.2032    0.6284    1.0662 H         1 <0>         0.1879
     23 H9          1.6169    2.6866    1.4304 H         1 <0>         0.1636
     24 H10        -0.8997    1.8490    1.1374 H         1 <0>         0.1993
@<TRIPOS>BOND
     1    1    2 1
     2    1   15 1
     3    1   16 1
     4    1   17 1
     5    2    7 ar
     6    2    3 ar
     7    3    4 ar
     8    3   18 1
     9    4    5 ar
    10    4   19 1
    11    5    6 ar
    12    5   20 1
    13    6    7 ar
    14    6   21 1
    15    7    8 1
    16    8    9 2
    17    8   10 am
    18   10   14 1
    19   10   11 1
    20   11   12 2
    21   11   22 1
    22   12   13 1
    23   12   23 1
    24   13   14 2
    25   13   24 1
@<TRIPOS>MOLECULE
ZINC00037163
   21    22     0     0     0
SMALL
USER_CHARGES
(4-bromopyrazol-1-yl)-(2-chloro-4,5-difluoro-phenyl)-methanone
@<TRIPOS>ATOM
      1 C1          1.2253   -0.6804   -0.0006 C.ar      1 <0>        -0.0686
      2 C2          0.0019   -0.0038   -0.0019 C.ar      1 <0>        -0.1327
      3 C3         -0.0176    1.3945   -0.0145 C.ar      1 <0>         0.0379
      4 C4          1.1695    2.0987   -0.0256 C.ar      1 <0>        -0.1363
      5 C5          2.3789    1.4232   -0.0243 C.ar      1 <0>         0.1254
      6 C6          2.4051    0.0341   -0.0118 C.ar      1 <0>         0.0603
      7 F1          3.5884   -0.6180   -0.0111 F         1 <0>        -0.1143
      8 F2          3.5376    2.1179   -0.0352 F         1 <0>        -0.1096
      9 Cl1        -1.5321    2.2431   -0.0233 Cl        1 <0>        -0.0040
     10 C7         -1.2630   -0.7615    0.0105 C.2       1 <0>         0.6011
     11 O1         -2.3214   -0.1750    0.1187 O.2       1 <0>        -0.4402
     12 N1         -1.2449   -2.1047   -0.0982 N.am      1 <0>        -0.3672
     13 C8         -2.3344   -2.9174   -0.1946 C.2       1 <0>         0.1296
     14 C9         -1.8872   -4.1893   -0.2892 C.2       1 <0>        -0.2241
     15 C10        -0.4861   -4.1599   -0.2401 C.2       1 <0>         0.1289
     16 N2         -0.1029   -2.9157   -0.1261 N.2       1 <0>        -0.2806
     17 Br1        -2.9620   -5.7367   -0.4508 Br        1 <0>         0.0093
     18 H1          1.2466   -1.7601    0.0087 H         1 <0>         0.2040
     19 H2          1.1554    3.1785   -0.0357 H         1 <0>         0.1693
     20 H3         -3.3674   -2.6023   -0.1975 H         1 <0>         0.2015
     21 H4          0.1658   -5.0197   -0.2880 H         1 <0>         0.2105
@<TRIPOS>BOND
     1    1    6 ar
     2    1    2 ar
     3    1   18 1
     4    2    3 ar
     5    2   10 1
     6    3    4 ar
     7    3    9 1
     8    4    5 ar
     9    4   19 1
    10    5    6 ar
    11    5    8 1
    12    6    7 1
    13   10   11 2
    14   10   12 am
    15   12   16 1
    16   12   13 1
    17   13   14 2
    18   13   20 1
    19   14   15 1
    20   14   17 1
    21   15   16 2
    22   15   21 1
@<TRIPOS>MOLECULE
ZINC00037168
   33    34     0     0     0
SMALL
USER_CHARGES
(4-chloropyrazol-1-yl)-(4-tert-butylphenyl)-methanone
@<TRIPOS>ATOM
      1 C1          7.5842    4.3447    1.6983 C.3       1 <0>        -0.1403
      2 C2          7.0967    3.7274    0.3860 C.3       1 <0>        -0.0368
      3 C3          7.4689    2.2437    0.3511 C.3       1 <0>        -0.1470
      4 C4          7.7567    4.4466   -0.7921 C.3       1 <0>        -0.1404
      5 C5          5.5999    3.8722    0.2883 C.ar      1 <0>        -0.0264
      6 C6          5.0277    5.1321    0.3002 C.ar      1 <0>        -0.1341
      7 C7          3.6585    5.2721    0.2102 C.ar      1 <0>        -0.0459
      8 C8          2.8491    4.1385    0.1073 C.ar      1 <0>        -0.1635
      9 C9          3.4330    2.8697    0.1021 C.ar      1 <0>        -0.0685
     10 C10         4.8041    2.7447    0.1866 C.ar      1 <0>        -0.1396
     11 C11         1.3826    4.2805    0.0105 C.2       1 <0>         0.6026
     12 O1          0.8847    5.3836   -0.0925 O.2       1 <0>        -0.4727
     13 N1          0.5964    3.1860    0.0365 N.am      1 <0>        -0.3654
     14 C12        -0.7664    3.1761    0.0586 C.2       1 <0>         0.0983
     15 C13        -1.1644    1.8846    0.0742 C.2       1 <0>        -0.1679
     16 C14        -0.0168    1.0782    0.0706 C.2       1 <0>         0.1068
     17 N2          1.0338    1.8551    0.0447 N.2       1 <0>        -0.2663
     18 Cl1        -2.8068    1.3228    0.0986 Cl        1 <0>        -0.0181
     19 H1          7.1140    3.8323    2.5376 H         1 <0>         0.0579
     20 H2          8.6669    4.2400    1.7690 H         1 <0>         0.0625
     21 H3          7.3191    5.4017    1.7232 H         1 <0>         0.0587
     22 H4          7.1216    1.8039   -0.5838 H         1 <0>         0.0607
     23 H5          8.5515    2.1390    0.4218 H         1 <0>         0.0616
     24 H6          6.9987    1.7314    1.1904 H         1 <0>         0.0607
     25 H7          7.4915    5.5036   -0.7673 H         1 <0>         0.0588
     26 H8          8.8393    4.3418   -0.7215 H         1 <0>         0.0625
     27 H9          7.4094    4.0068   -1.7270 H         1 <0>         0.0580
     28 H10         5.6547    6.0078    0.3798 H         1 <0>         0.1318
     29 H11         3.2133    6.2561    0.2189 H         1 <0>         0.1358
     30 H12         2.8128    1.9887    0.0273 H         1 <0>         0.1738
     31 H13         5.2573    1.7645    0.1775 H         1 <0>         0.1360
     32 H14        -1.4110    4.0426    0.0587 H         1 <0>         0.1979
     33 H15        -0.0037   -0.0016    0.0825 H         1 <0>         0.2083
@<TRIPOS>BOND
     1    1    2 1
     2    1   19 1
     3    1   20 1
     4    1   21 1
     5    2    3 1
     6    2    4 1
     7    2    5 1
     8    3   22 1
     9    3   23 1
    10    3   24 1
    11    4   25 1
    12    4   26 1
    13    4   27 1
    14    5   10 ar
    15    5    6 ar
    16    6    7 ar
    17    6   28 1
    18    7    8 ar
    19    7   29 1
    20    8    9 ar
    21    8   11 1
    22    9   10 ar
    23    9   30 1
    24   10   31 1
    25   11   12 2
    26   11   13 am
    27   13   17 1
    28   13   14 1
    29   14   15 2
    30   14   32 1
    31   15   16 1
    32   15   18 1
    33   16   17 2
    34   16   33 1
@<TRIPOS>MOLECULE
ZINC00037169
   27    28     0     0     0
SMALL
USER_CHARGES
(4-chloro-3,5-dimethyl-pyrazol-1-yl)-(2-fluorophenyl)-methanone
@<TRIPOS>ATOM
      1 C1         -1.2452    2.1699    0.0749 C.3       1 <0>        -0.0864
      2 C2         -0.0120    1.3041    0.0494 C.2       1 <0>         0.1390
      3 C3          1.3129    1.7640    0.0385 C.2       1 <0>        -0.1751
      4 C4          2.1280    0.6863    0.0097 C.2       1 <0>         0.1349
      5 N1          1.3395   -0.4254    0.0027 N.am      1 <0>        -0.3624
      6 N2          0.0042   -0.0025    0.0280 N.2       1 <0>        -0.2784
      7 C5          1.7679   -1.7030   -0.0246 C.2       1 <0>         0.6005
      8 O1          2.9526   -1.9440   -0.1435 O.2       1 <0>        -0.4587
      9 C6          0.7982   -2.8085    0.0897 C.ar      1 <0>        -0.1936
     10 C7         -0.5735   -2.5411    0.1053 C.ar      1 <0>        -0.0461
     11 C8         -1.4739   -3.5789    0.2124 C.ar      1 <0>        -0.1479
     12 C9         -1.0242   -4.8855    0.3043 C.ar      1 <0>        -0.0482
     13 C10         0.3301   -5.1608    0.2898 C.ar      1 <0>        -0.1729
     14 C11         1.2466   -4.1311    0.1775 C.ar      1 <0>         0.1679
     15 F1          2.5702   -4.4008    0.1573 F         1 <0>        -0.1154
     16 C12         3.6347    0.7096   -0.0115 C.3       1 <0>        -0.1048
     17 Cl1         1.8172    3.4251    0.0584 Cl        1 <0>        -0.0171
     18 H1         -1.5328    2.3623    1.1085 H         1 <0>         0.0933
     19 H2         -1.0360    3.1151   -0.4260 H         1 <0>         0.0900
     20 H3         -2.0589    1.6585   -0.4395 H         1 <0>         0.0872
     21 H4         -0.9271   -1.5231    0.0338 H         1 <0>         0.1828
     22 H5         -2.5340   -3.3726    0.2244 H         1 <0>         0.1400
     23 H6         -1.7357   -5.6938    0.3873 H         1 <0>         0.1415
     24 H7          0.6733   -6.1822    0.3622 H         1 <0>         0.1467
     25 H8          3.9832    0.7322   -1.0440 H         1 <0>         0.0951
     26 H9          3.9917    1.5965    0.5120 H         1 <0>         0.0923
     27 H10         4.0188   -0.1830    0.4822 H         1 <0>         0.0958
@<TRIPOS>BOND
     1    1    2 1
     2    1   18 1
     3    1   19 1
     4    1   20 1
     5    2    6 2
     6    2    3 1
     7    3    4 2
     8    3   17 1
     9    4    5 1
    10    4   16 1
    11    5    6 1
    12    5    7 am
    13    7    8 2
    14    7    9 1
    15    9   14 ar
    16    9   10 ar
    17   10   11 ar
    18   10   21 1
    19   11   12 ar
    20   11   22 1
    21   12   13 ar
    22   12   23 1
    23   13   14 ar
    24   13   24 1
    25   14   15 1
    26   16   25 1
    27   16   26 1
    28   16   27 1
@<TRIPOS>MOLECULE
ZINC00037184
   21    22     0     0     0
SMALL
USER_CHARGES
(4-chloropyrazol-1-yl)-(4-fluorophenyl)methanone
@<TRIPOS>ATOM
      1 C1          3.4315    2.8689    0.1020 C.ar      1 <0>        -0.0430
      2 C2          4.8012    2.7428    0.1858 C.ar      1 <0>        -0.1708
      3 C3          5.5992    3.8724    0.2882 C.ar      1 <0>         0.1427
      4 C4          5.0252    5.1347    0.3001 C.ar      1 <0>        -0.1712
      5 C5          3.6571    5.2733    0.2101 C.ar      1 <0>        -0.0189
      6 C6          2.8478    4.1386    0.1072 C.ar      1 <0>        -0.1703
      7 C7          1.3825    4.2805    0.0105 C.2       1 <0>         0.6053
      8 O1          0.8846    5.3837   -0.0927 O.2       1 <0>        -0.4688
      9 N1          0.5964    3.1861    0.0367 N.am      1 <0>        -0.3666
     10 C8         -0.7663    3.1761    0.0589 C.2       1 <0>         0.1003
     11 C9         -1.1644    1.8846    0.0748 C.2       1 <0>        -0.1675
     12 C10        -0.0169    1.0783    0.0712 C.2       1 <0>         0.1112
     13 N2          1.0338    1.8552    0.0451 N.2       1 <0>        -0.2710
     14 Cl1        -2.8068    1.3228    0.0993 Cl        1 <0>        -0.0162
     15 F1          6.9410    3.7425    0.3763 F         1 <0>        -0.1296
     16 H1          2.8106    1.9883    0.0275 H         1 <0>         0.1838
     17 H2          5.2537    1.7622    0.1767 H         1 <0>         0.1463
     18 H3          5.6516    6.0109    0.3797 H         1 <0>         0.1477
     19 H4          3.2112    6.2570    0.2188 H         1 <0>         0.1481
     20 H5         -1.4109    4.0427    0.0593 H         1 <0>         0.1991
     21 H6         -0.0037   -0.0016    0.0833 H         1 <0>         0.2095
@<TRIPOS>BOND
     1    1    6 ar
     2    1    2 ar
     3    1   16 1
     4    2    3 ar
     5    2   17 1
     6    3    4 ar
     7    3   15 1
     8    4    5 ar
     9    4   18 1
    10    5    6 ar
    11    5   19 1
    12    6    7 1
    13    7    8 2
    14    7    9 am
    15    9   13 1
    16    9   10 1
    17   10   11 2
    18   10   20 1
    19   11   12 1
    20   11   14 1
    21   12   13 2
    22   12   21 1
@<TRIPOS>MOLECULE
ZINC00037170
   26    27     0     0     0
SMALL
USER_CHARGES
(4-nitropyrazol-1-yl)-(o-tolyl)methanone
@<TRIPOS>ATOM
      1 C1         -3.2106    6.5633   -0.1411 C.3       1 <0>        -0.1363
      2 C2         -3.7947    5.1741   -0.1478 C.ar      1 <0>        -0.0068
      3 C3         -5.1533    4.9945    0.0105 C.ar      1 <0>        -0.1401
      4 C4         -5.6905    3.7195    0.0095 C.ar      1 <0>        -0.0668
      5 C5         -4.8710    2.6163   -0.1544 C.ar      1 <0>        -0.1433
      6 C6         -3.5116    2.7814   -0.3180 C.ar      1 <0>        -0.0677
      7 C7         -2.9624    4.0658   -0.3185 C.ar      1 <0>        -0.1667
      8 C8         -1.5078    4.2504   -0.4927 C.2       1 <0>         0.6006
      9 O1         -1.0224    5.3608   -0.4105 O.2       1 <0>        -0.4511
     10 N1         -0.7187    3.1868   -0.7428 N.am      1 <0>        -0.3567
     11 C9          0.6145    3.2235   -1.0196 C.2       1 <0>         0.1880
     12 C10         1.0272    1.9510   -1.2078 C.2       1 <0>        -0.1722
     13 C11        -0.0806    1.1080   -1.0428 C.2       1 <0>         0.1448
     14 N2         -1.1241    1.8460   -0.7702 N.2       1 <0>        -0.2530
     15 N3          2.4065    1.5224   -1.5315 N.pl3     1 <0>         0.0600
     16 O2          2.6580    0.3397   -1.6783 O.2       1 <0>        -0.1415
     17 O3          3.2899    2.3523   -1.6510 O.3       1 <0>        -0.1559
     18 H1         -3.0805    6.9077   -1.1670 H         1 <0>         0.0792
     19 H2         -3.8849    7.2384    0.3859 H         1 <0>         0.0698
     20 H3         -2.2441    6.5487    0.3627 H         1 <0>         0.0970
     21 H4         -5.7985    5.8509    0.1393 H         1 <0>         0.1354
     22 H5         -6.7544    3.5845    0.1376 H         1 <0>         0.1327
     23 H6         -5.2970    1.6239   -0.1538 H         1 <0>         0.1341
     24 H7         -2.8733    1.9197   -0.4459 H         1 <0>         0.1723
     25 H8          1.2298    4.1091   -1.0783 H         1 <0>         0.2187
     26 H9         -0.0738    0.0315   -1.1305 H         1 <0>         0.2252
@<TRIPOS>BOND
     1    1    2 1
     2    1   18 1
     3    1   19 1
     4    1   20 1
     5    2    7 ar
     6    2    3 ar
     7    3    4 ar
     8    3   21 1
     9    4    5 ar
    10    4   22 1
    11    5    6 ar
    12    5   23 1
    13    6    7 ar
    14    6   24 1
    15    7    8 1
    16    8    9 2
    17    8   10 am
    18   10   14 1
    19   10   11 1
    20   11   12 2
    21   11   25 1
    22   12   13 1
    23   12   15 1
    24   13   14 2
    25   13   26 1
    26   15   16 2
    27   15   17 1
@<TRIPOS>MOLECULE
ZINC00150214
   23    25     0     0     0
SMALL
USER_CHARGES

@<TRIPOS>ATOM
      1 C1         -0.0166    1.3751    0.0096 C.ar      1 <0>        -0.1291
      2 C2          1.1693    2.0982    0.0022 C.ar      1 <0>        -0.0665
      3 C3          2.3889    1.4586   -0.0180 C.ar      1 <0>        -0.0972
      4 C4          2.4350    0.0636   -0.0358 C.ar      1 <0>         0.1463
      5 C5          1.2225   -0.6686   -0.0156 C.ar      1 <0>        -0.2284
      6 C6          0.0021   -0.0041    0.0020 C.ar      1 <0>        -0.0322
      7 C7          1.3292   -2.1382   -0.0067 C.2       1 <0>         0.5341
      8 O1          0.4329   -2.8530    0.3996 O.2       1 <0>        -0.4166
      9 O2          2.4995   -2.6397   -0.4848 O.3       1 <0>        -0.3052
     10 C8          3.6178   -1.9206   -0.2455 C.2       1 <0>         0.4403
     11 N1          3.5964   -0.6208   -0.0593 N.2       1 <0>        -0.4944
     12 C9          4.9059   -2.6187   -0.1917 C.2       1 <0>        -0.0039
     13 C10         5.1004   -3.9588   -0.3685 C.2       1 <0>        -0.1164
     14 C11         6.4796   -4.1880   -0.2332 C.2       1 <0>        -0.2228
     15 C12         7.0583   -2.9937    0.0169 C.2       1 <0>         0.0113
     16 O3          6.1072   -2.0490    0.0354 O.3       1 <0>        -0.1395
     17 H1         -0.9618    1.8974    0.0260 H         1 <0>         0.1408
     18 H2          1.1346    3.1776    0.0120 H         1 <0>         0.1416
     19 H3          3.3036    2.0327   -0.0204 H         1 <0>         0.1467
     20 H4         -0.9226   -0.5620    0.0101 H         1 <0>         0.1432
     21 H5          4.3408   -4.6990   -0.5723 H         1 <0>         0.1657
     22 H6          6.9825   -5.1404   -0.3134 H         1 <0>         0.1634
     23 H7          8.1139   -2.8265    0.1723 H         1 <0>         0.2187
@<TRIPOS>BOND
     1    1    6 ar
     2    1    2 ar
     3    1   17 1
     4    2    3 ar
     5    2   18 1
     6    3    4 ar
     7    3   19 1
     8    4   11 1
     9    4    5 ar
    10    5    6 ar
    11    5    7 1
    12    6   20 1
    13    7    8 2
    14    7    9 1
    15    9   10 1
    16   10   11 2
    17   10   12 1
    18   12   16 1
    19   12   13 2
    20   13   14 1
    21   13   21 1
    22   14   15 2
    23   14   22 1
    24   15   16 1
    25   15   23 1
@<TRIPOS>MOLECULE
ZINC00037160
   23    24     0     0     0
SMALL
USER_CHARGES
(4-chloropyrazol-1-yl)-(3-nitrophenyl)-methanone
@<TRIPOS>ATOM
      1 C1          1.1773    1.7808   -0.0325 C.ar      1 <0>        -0.1281
      2 C2          1.1660    3.1602   -0.0251 C.ar      1 <0>        -0.0253
      3 C3         -0.0501    3.8450    0.0230 C.ar      1 <0>        -0.1511
      4 C4         -1.2476    3.1268    0.0633 C.ar      1 <0>         0.0108
      5 C5         -1.2216    1.7480    0.0495 C.ar      1 <0>        -0.0585
      6 C6         -0.0126    1.0758    0.0075 C.ar      1 <0>        -0.0179
      7 N1         -2.4896    0.9852    0.0860 N.pl3     1 <0>         0.0265
      8 O1         -2.4682   -0.2326    0.0790 O.2       1 <0>        -0.1491
      9 O2         -3.5545    1.5753    0.1230 O.3       1 <0>        -0.1509
     10 C7         -0.0702    5.3215    0.0308 C.2       1 <0>         0.6070
     11 O3         -1.1271    5.9149   -0.0475 O.2       1 <0>        -0.4568
     12 N2          1.0843    6.0106    0.1248 N.am      1 <0>        -0.3680
     13 C8          1.2054    7.3634    0.2389 C.2       1 <0>         0.1034
     14 C9          2.5244    7.6504    0.3060 C.2       1 <0>        -0.1659
     15 C10         3.2341    6.4430    0.2313 C.2       1 <0>         0.1184
     16 N3          2.3742    5.4641    0.1288 N.2       1 <0>        -0.2782
     17 Cl1         3.2180    9.2346    0.4570 Cl        1 <0>        -0.0116
     18 H1          2.1170    1.2499   -0.0693 H         1 <0>         0.1598
     19 H2          2.0955    3.7093   -0.0567 H         1 <0>         0.1919
     20 H3         -2.1916    3.6501    0.1006 H         1 <0>         0.1676
     21 H4          0.0021   -0.0041    0.0015 H         1 <0>         0.1626
     22 H5          0.3947    8.0763    0.2705 H         1 <0>         0.2014
     23 H6          4.3087    6.3393    0.2591 H         1 <0>         0.2119
@<TRIPOS>BOND
     1    1    6 ar
     2    1    2 ar
     3    1   18 1
     4    2    3 ar
     5    2   19 1
     6    3    4 ar
     7    3   10 1
     8    4    5 ar
     9    4   20 1
    10    5    6 ar
    11    5    7 1
    12    6   21 1
    13    7    8 2
    14    7    9 1
    15   10   11 2
    16   10   12 am
    17   12   16 1
    18   12   13 1
    19   13   14 2
    20   13   22 1
    21   14   15 1
    22   14   17 1
    23   15   16 2
    24   15   23 1
@<TRIPOS>MOLECULE
ZINC00037183
   23    24     0     0     0
SMALL
USER_CHARGES
(4-nitropyrazol-1-yl)-phenyl-methanone
@<TRIPOS>ATOM
      1 C1         -1.2212    1.7498    0.0178 C.ar      1 <0>        -0.0723
      2 C2         -0.0131    1.0764   -0.0242 C.ar      1 <0>        -0.1353
      3 C3          1.1728    1.7806   -0.0321 C.ar      1 <0>        -0.0462
      4 C4          1.1525    3.1766    0.0078 C.ar      1 <0>        -0.1614
      5 C5         -0.0704    3.8497    0.0554 C.ar      1 <0>        -0.0716
      6 C6         -1.2487    3.1326    0.0628 C.ar      1 <0>        -0.1354
      7 C7          2.4180    3.9374    0.0001 C.2       1 <0>         0.6018
      8 O1          3.4792    3.3517    0.0792 O.2       1 <0>        -0.4544
      9 N1          2.3956    5.2816   -0.0946 N.am      1 <0>        -0.3575
     10 C8          3.4810    6.0967   -0.2086 C.2       1 <0>         0.1884
     11 C9          3.0306    7.3685   -0.2762 C.2       1 <0>        -0.1718
     12 C10         1.6311    7.3365   -0.2019 C.2       1 <0>         0.1456
     13 N2          1.2515    6.0902   -0.0996 N.2       1 <0>        -0.2525
     14 N3          3.8678    8.5824   -0.4051 N.pl3     1 <0>         0.0597
     15 O2          5.0805    8.4829   -0.4597 O.2       1 <0>        -0.1555
     16 O3          3.3439    9.6808   -0.4566 O.3       1 <0>        -0.1409
     17 H1         -2.1469    1.1935    0.0193 H         1 <0>         0.1329
     18 H2          0.0011   -0.0031   -0.0554 H         1 <0>         0.1364
     19 H3          2.1149    1.2539   -0.0694 H         1 <0>         0.1384
     20 H4         -0.0934    4.9290    0.0861 H         1 <0>         0.1718
     21 H5         -2.1951    3.6518    0.0992 H         1 <0>         0.1349
     22 H6          4.5140    5.7831   -0.2394 H         1 <0>         0.2190
     23 H7          0.9773    8.1957   -0.2295 H         1 <0>         0.2257
@<TRIPOS>BOND
     1    1    6 ar
     2    1    2 ar
     3    1   17 1
     4    2    3 ar
     5    2   18 1
     6    3    4 ar
     7    3   19 1
     8    4    5 ar
     9    4    7 1
    10    5    6 ar
    11    5   20 1
    12    6   21 1
    13    7    8 2
    14    7    9 am
    15    9   13 1
    16    9   10 1
    17   10   11 2
    18   10   22 1
    19   11   12 1
    20   11   14 1
    21   12   13 2
    22   12   23 1
    23   14   15 2
    24   14   16 1
@<TRIPOS>MOLECULE
ZINC00037188
   24    25     0     0     0
SMALL
USER_CHARGES
(4-bromopyrazol-1-yl)-(p-tolyl)methanone
@<TRIPOS>ATOM
      1 C1          7.0963    3.7277    0.3894 C.3       1 <0>        -0.1242
      2 C2          5.5995    3.8725    0.2902 C.ar      1 <0>        -0.0421
      3 C3          5.0273    5.1323    0.3020 C.ar      1 <0>        -0.1395
      4 C4          3.6581    5.2723    0.2116 C.ar      1 <0>        -0.0445
      5 C5          2.8489    4.1386    0.1082 C.ar      1 <0>        -0.1654
      6 C6          3.4329    2.8699    0.1026 C.ar      1 <0>        -0.0675
      7 C7          4.8039    2.7450    0.1880 C.ar      1 <0>        -0.1395
      8 C8          1.3823    4.2805    0.0115 C.2       1 <0>         0.6018
      9 O1          0.8843    5.3836   -0.0912 O.2       1 <0>        -0.4718
     10 N1          0.5962    3.1860    0.0371 N.am      1 <0>        -0.3660
     11 C9         -0.7663    3.1759    0.0595 C.2       1 <0>         0.1236
     12 C10        -1.1643    1.8845    0.0744 C.2       1 <0>        -0.2249
     13 C11        -0.0168    1.0782    0.0709 C.2       1 <0>         0.1185
     14 N2          1.0337    1.8551    0.0449 N.2       1 <0>        -0.2687
     15 Br1        -2.9533    1.2725    0.1009 Br        1 <0>         0.0050
     16 H1          7.3851    3.6504    1.4376 H         1 <0>         0.0783
     17 H2          7.4103    2.8289   -0.1412 H         1 <0>         0.0723
     18 H3          7.5760    4.5991   -0.0563 H         1 <0>         0.0718
     19 H4          5.6542    6.0081    0.3820 H         1 <0>         0.1333
     20 H5          3.2128    6.2562    0.2202 H         1 <0>         0.1366
     21 H6          2.8127    1.9889    0.0271 H         1 <0>         0.1744
     22 H7          5.2571    1.7647    0.1793 H         1 <0>         0.1319
     23 H8         -1.4109    4.0424    0.0603 H         1 <0>         0.1984
     24 H9         -0.0037   -0.0016    0.0829 H         1 <0>         0.2080
@<TRIPOS>BOND
     1    1    2 1
     2    1   16 1
     3    1   17 1
     4    1   18 1
     5    2    7 ar
     6    2    3 ar
     7    3    4 ar
     8    3   19 1
     9    4    5 ar
    10    4   20 1
    11    5    6 ar
    12    5    8 1
    13    6    7 ar
    14    6   21 1
    15    7   22 1
    16    8    9 2
    17    8   10 am
    18   10   14 1
    19   10   11 1
    20   11   12 2
    21   11   23 1
    22   12   13 1
    23   12   15 1
    24   13   14 2
    25   13   24 1
@<TRIPOS>MOLECULE
ZINC00037156
   21    22     0     0     0
SMALL
USER_CHARGES
(3,4-dichlorophenyl)-pyrazol-1-yl-methanone
@<TRIPOS>ATOM
      1 C1         -0.0148    1.4029    0.0670 C.2       1 <0>        -0.2423
      2 C2          0.0020    0.0012    0.0648 C.2       1 <0>         0.0972
      3 N1          1.2464   -0.3966    0.0307 N.2       1 <0>        -0.2906
      4 N2          2.0695    0.7368    0.0098 N.am      1 <0>        -0.3751
      5 C3          1.2645    1.8353    0.0329 C.2       1 <0>         0.0795
      6 C4          3.4168    0.7398   -0.0266 C.2       1 <0>         0.6044
      7 O1          4.0190    1.7886   -0.1401 O.2       1 <0>        -0.4707
      8 C5          4.1604   -0.5314    0.0714 C.ar      1 <0>        -0.1412
      9 C6          5.5547   -0.5231    0.1636 C.ar      1 <0>        -0.0347
     10 C7          6.2440   -1.7134    0.2549 C.ar      1 <0>        -0.1153
     11 C8          5.5578   -2.9167    0.2554 C.ar      1 <0>         0.0034
     12 C9          4.1746   -2.9324    0.1648 C.ar      1 <0>        -0.0505
     13 C10         3.4729   -1.7473    0.0782 C.ar      1 <0>        -0.0543
     14 Cl1         3.3232   -4.4453    0.1674 Cl        1 <0>        -0.0360
     15 Cl2         6.4335   -4.4112    0.3707 Cl        1 <0>        -0.0345
     16 H1         -0.8958    2.0273    0.0876 H         1 <0>         0.1659
     17 H2         -0.8660   -0.6410    0.0881 H         1 <0>         0.2017
     18 H3          1.5900    2.8651    0.0254 H         1 <0>         0.1900
     19 H4          6.0913    0.4142    0.1629 H         1 <0>         0.1536
     20 H5          7.3217   -1.7077    0.3258 H         1 <0>         0.1547
     21 H6          2.3950   -1.7600    0.0122 H         1 <0>         0.1949
@<TRIPOS>BOND
     1    1    5 2
     2    1    2 1
     3    1   16 1
     4    2    3 2
     5    2   17 1
     6    3    4 1
     7    4    5 1
     8    4    6 am
     9    5   18 1
    10    6    7 2
    11    6    8 1
    12    8   13 ar
    13    8    9 ar
    14    9   10 ar
    15    9   19 1
    16   10   11 ar
    17   10   20 1
    18   11   12 ar
    19   11   15 1
    20   12   13 ar
    21   12   14 1
    22   13   21 1
@<TRIPOS>MOLECULE
ZINC00096414
   30    30     0     0     0
SMALL
USER_CHARGES
1,1-dimethylprop-2-ynyl 4-methoxybenzoate
@<TRIPOS>ATOM
      1 C1          1.6478   -4.7543    1.2113 C.3       1 <0>        -0.1789
      2 C2          2.3745   -4.2639   -0.0426 C.3       1 <0>         0.2405
      3 C3          1.6234   -4.7417   -1.2870 C.3       1 <0>        -0.1789
      4 C4          3.7439   -4.8035   -0.0587 C.1       1 <0>        -0.1920
      5 C5          4.8361   -5.2339   -0.0716 C.1       1 <0>        -0.1523
      6 O1          2.4260   -2.8129   -0.0358 O.3       1 <0>        -0.3455
      7 C6          1.2480   -2.1589   -0.0210 C.2       1 <0>         0.5197
      8 O2          0.2061   -2.7841   -0.0140 O.2       1 <0>        -0.5016
      9 C7          1.2232   -0.6845   -0.0133 C.ar      1 <0>        -0.1707
     10 C8          0.0021   -0.0041    0.0020 C.ar      1 <0>        -0.0112
     11 C9         -0.0166    1.3726    0.0096 C.ar      1 <0>        -0.1648
     12 C10         1.1765    2.0859    0.0020 C.ar      1 <0>         0.1669
     13 C11         2.3930    1.4132   -0.0133 C.ar      1 <0>        -0.2244
     14 C12         2.4207    0.0368   -0.0210 C.ar      1 <0>        -0.0180
     15 O3          1.1537    3.4427    0.0096 O.3       1 <0>        -0.3103
     16 C13         2.4158    4.1128    0.0011 C.3       1 <0>         0.0227
     17 H1          0.6337   -4.3547    1.2233 H         1 <0>         0.0939
     18 H2          1.6091   -5.8436    1.2062 H         1 <0>         0.0781
     19 H3          2.1829   -4.4139    2.0978 H         1 <0>         0.0663
     20 H4          2.1411   -4.3924   -2.1803 H         1 <0>         0.0664
     21 H5          1.5846   -5.8310   -1.2921 H         1 <0>         0.0781
     22 H6          0.6093   -4.3422   -1.2751 H         1 <0>         0.0939
     23 H7          5.8129   -5.6188   -0.0830 H         1 <0>         0.2263
     24 H8         -0.9253   -0.5575    0.0083 H         1 <0>         0.1471
     25 H9         -0.9596    1.8990    0.0169 H         1 <0>         0.1432
     26 H10         3.3177    1.9712   -0.0195 H         1 <0>         0.1384
     27 H11         3.3661   -0.4851   -0.0325 H         1 <0>         0.1411
     28 H12         2.9862    3.8246    0.8841 H         1 <0>         0.0604
     29 H13         2.9691    3.8342   -0.8957 H         1 <0>         0.0604
     30 H14         2.2548    5.1908    0.0085 H         1 <0>         0.1052
@<TRIPOS>BOND
     1    1    2 1
     2    1   17 1
     3    1   18 1
     4    1   19 1
     5    2    3 1
     6    2    4 1
     7    2    6 1
     8    3   20 1
     9    3   21 1
    10    3   22 1
    11    4    5 3
    12    5   23 1
    13    6    7 1
    14    7    8 2
    15    7    9 1
    16    9   14 ar
    17    9   10 ar
    18   10   11 ar
    19   10   24 1
    20   11   12 ar
    21   11   25 1
    22   12   13 ar
    23   12   15 1
    24   13   14 ar
    25   13   26 1
    26   14   27 1
    27   15   16 1
    28   16   28 1
    29   16   29 1
    30   16   30 1
@<TRIPOS>MOLECULE
ZINC00029912
   32    32     0     0     0
SMALL
USER_CHARGES
N,N-bis(cyanomethyl)-3,4-dimethoxy-benzamide
@<TRIPOS>ATOM
      1 C1          0.0083   -7.0067    0.1583 C.3       1 <0>         0.0215
      2 O1          0.9518   -6.3248    0.9871 O.3       1 <0>        -0.2988
      3 C2          0.9575   -4.9682    0.9275 C.ar      1 <0>         0.1348
      4 C3          0.0716   -4.3080    0.0867 C.ar      1 <0>        -0.1784
      5 C4          0.0702   -2.9315    0.0263 C.ar      1 <0>        -0.1098
      6 C5          0.9687   -2.1971    0.8042 C.ar      1 <0>        -0.1384
      7 C6          1.8604   -2.8613    1.6505 C.ar      1 <0>        -0.1106
      8 C7          1.8531   -4.2414    1.7104 C.ar      1 <0>         0.0984
      9 O2          2.7200   -4.8910    2.5327 O.3       1 <0>        -0.3016
     10 C8          3.6098   -4.0831    3.3058 C.3       1 <0>         0.0218
     11 C9          0.9719   -0.7226    0.7368 C.2       1 <0>         0.5750
     12 O3          1.9701   -0.1020    1.0478 O.2       1 <0>        -0.5067
     13 N1         -0.1317   -0.0642    0.3306 N.am      1 <0>        -0.6054
     14 C10        -0.1040    1.3936    0.1880 C.3       1 <0>         0.2119
     15 C11        -0.4992    2.0187    1.4608 C.1       1 <0>         0.1837
     16 N2         -0.8041    2.5011    2.4430 N.1       1 <0>        -0.4033
     17 C12        -1.3590   -0.8062    0.0316 C.3       1 <0>         0.1711
     18 C13        -1.5458   -0.8784   -1.4267 C.1       1 <0>         0.1715
     19 N3         -1.6900   -0.9341   -2.5521 N.1       1 <0>        -0.3855
     20 H1          0.1976   -6.7602   -0.8864 H         1 <0>         0.0594
     21 H2          0.1093   -8.0824    0.3019 H         1 <0>         0.1057
     22 H3         -1.0017   -6.6975    0.4273 H         1 <0>         0.0599
     23 H4         -0.6207   -4.8746   -0.5183 H         1 <0>         0.1462
     24 H5         -0.6228   -2.4203   -0.6255 H         1 <0>         0.1477
     25 H6          2.5535   -2.2969    2.2568 H         1 <0>         0.1510
     26 H7          4.2310   -3.4859    2.6383 H         1 <0>         0.0596
     27 H8          3.0320   -3.4226    3.9523 H         1 <0>         0.0583
     28 H9          4.2452   -4.7246    3.9165 H         1 <0>         0.1054
     29 H10         0.9038    1.7137   -0.0765 H         1 <0>         0.1372
     30 H11        -0.7986    1.6952   -0.5960 H         1 <0>         0.1289
     31 H12        -1.2821   -1.8146    0.4384 H         1 <0>         0.1603
     32 H13        -2.2106   -0.2966    0.4823 H         1 <0>         0.1290
@<TRIPOS>BOND
     1    1    2 1
     2    1   20 1
     3    1   21 1
     4    1   22 1
     5    2    3 1
     6    3    8 ar
     7    3    4 ar
     8    4    5 ar
     9    4   23 1
    10    5    6 ar
    11    5   24 1
    12    6    7 ar
    13    6   11 1
    14    7    8 ar
    15    7   25 1
    16    8    9 1
    17    9   10 1
    18   10   26 1
    19   10   27 1
    20   10   28 1
    21   11   12 2
    22   11   13 am
    23   13   14 1
    24   13   17 1
    25   14   15 1
    26   14   29 1
    27   14   30 1
    28   15   16 3
    29   17   18 1
    30   17   31 1
    31   17   32 1
    32   18   19 3
@<TRIPOS>MOLECULE
ZINC00142648
   35    36     0     0     0
SMALL
USER_CHARGES

@<TRIPOS>ATOM
      1 C1         -0.0173    1.4248    0.0099 C.3       1 <0>         0.0254
      2 O1          0.0021   -0.0041    0.0020 O.3       1 <0>        -0.3037
      3 C2         -1.2011   -0.6379    0.0101 C.ar      1 <0>         0.1062
      4 C3         -2.3743    0.0994    0.0195 C.ar      1 <0>        -0.1729
      5 C4         -3.5965   -0.5465    0.0272 C.ar      1 <0>        -0.1125
      6 C5         -3.6519   -1.9279    0.0261 C.ar      1 <0>        -0.1168
      7 C6         -2.4852   -2.6694    0.0172 C.ar      1 <0>        -0.1732
      8 C7         -1.2569   -2.0283    0.0032 C.ar      1 <0>         0.0958
      9 O2         -0.1083   -2.7563   -0.0116 O.3       1 <0>        -0.2779
     10 C8         -0.2420   -4.1790   -0.0180 C.3       1 <0>         0.0529
     11 C9          1.1255   -4.8120   -0.0344 C.2       1 <0>         0.5178
     12 O3          2.1170   -4.1136   -0.0400 O.2       1 <0>        -0.5059
     13 N1          1.2468   -6.1543   -0.0427 N.am      1 <0>        -0.5174
     14 N2          2.5181   -6.7428   -0.0579 N.am      1 <0>        -0.5161
     15 C10         2.6393   -8.0850   -0.0663 C.2       1 <0>         0.6130
     16 O4          1.6444   -8.7859   -0.0606 O.2       1 <0>        -0.5240
     17 C11         3.9694   -8.7007   -0.0822 C.2       1 <0>        -0.2654
     18 C12         4.3103  -10.0447   -0.0983 C.2       1 <0>        -0.0522
     19 C13         5.6568  -10.3189   -0.1109 C.2       1 <0>        -0.1875
     20 C14         6.5392   -9.2893   -0.1069 C.2       1 <0>        -0.2121
     21 S1          5.5704   -7.9168   -0.0938 S.3       1 <0>         0.2188
     22 H1          1.0053    1.8021    0.0021 H         1 <0>         0.1022
     23 H2         -0.5445    1.7859   -0.8732 H         1 <0>         0.0556
     24 H3         -0.5275    1.7763    0.9067 H         1 <0>         0.0556
     25 H4         -2.3338    1.1787    0.0211 H         1 <0>         0.1371
     26 H5         -4.5102    0.0294    0.0345 H         1 <0>         0.1290
     27 H6         -4.6086   -2.4288    0.0325 H         1 <0>         0.1296
     28 H7         -2.5312   -3.7485    0.0167 H         1 <0>         0.1362
     29 H8         -0.7791   -4.4975    0.8754 H         1 <0>         0.1019
     30 H9         -0.7960   -4.4879   -0.9044 H         1 <0>         0.1020
     31 H10         0.4538   -6.7129   -0.0382 H         1 <0>         0.4357
     32 H11         3.3111   -6.1842   -0.0625 H         1 <0>         0.4332
     33 H12         3.5650  -10.8263   -0.1005 H         1 <0>         0.1532
     34 H13         6.0075  -11.3403   -0.1235 H         1 <0>         0.1433
     35 H14         7.6180   -9.3399   -0.1147 H         1 <0>         0.1931
@<TRIPOS>BOND
     1    1    2 1
     2    1   22 1
     3    1   23 1
     4    1   24 1
     5    2    3 1
     6    3    8 ar
     7    3    4 ar
     8    4    5 ar
     9    4   25 1
    10    5    6 ar
    11    5   26 1
    12    6    7 ar
    13    6   27 1
    14    7    8 ar
    15    7   28 1
    16    8    9 1
    17    9   10 1
    18   10   11 1
    19   10   29 1
    20   10   30 1
    21   11   12 2
    22   11   13 am
    23   13   14 1
    24   13   31 1
    25   14   15 am
    26   14   32 1
    27   15   16 2
    28   15   17 1
    29   17   21 1
    30   17   18 2
    31   18   19 1
    32   18   33 1
    33   19   20 2
    34   19   34 1
    35   20   21 1
    36   20   35 1
@<TRIPOS>MOLECULE
ZINC00068809
   37    38     0     0     0
SMALL
USER_CHARGES
4-methoxy-N'-(2-phenylacetyl)-benzohydrazide
@<TRIPOS>ATOM
      1 C1          0.1542   -4.5581    9.5303 C.3       1 <0>         0.0227
      2 O1          0.1577   -5.5366    8.4889 O.3       1 <0>        -0.3106
      3 C2          0.1394   -5.0774    7.2119 C.ar      1 <0>         0.1618
      4 C3          0.1416   -5.9765    6.1519 C.ar      1 <0>        -0.1594
      5 C4          0.1231   -5.5146    4.8548 C.ar      1 <0>        -0.0114
      6 C5          0.1020   -4.1400    4.6050 C.ar      1 <0>        -0.1735
      7 C6          0.1056   -3.2393    5.6733 C.ar      1 <0>        -0.0412
      8 C7          0.1180   -3.7093    6.9676 C.ar      1 <0>        -0.2160
      9 C8          0.0820   -3.6405    3.2162 C.2       1 <0>         0.5674
     10 O2          0.0839   -4.4256    2.2877 O.2       1 <0>        -0.5374
     11 N1          0.0617   -2.3143    2.9772 N.am      1 <0>        -0.5226
     12 N2          0.0428   -1.8402    1.6590 N.am      1 <0>        -0.5237
     13 C9          0.0225   -0.5140    1.4200 C.2       1 <0>         0.5155
     14 O3          0.0206    0.2691    2.3461 O.2       1 <0>        -0.5276
     15 C10         0.0021   -0.0041    0.0020 C.3       1 <0>        -0.0899
     16 C11        -0.0184    1.5028    0.0103 C.ar      1 <0>        -0.0732
     17 C12        -1.2248    2.1776    0.0197 C.ar      1 <0>        -0.1034
     18 C13        -1.2435    3.5598    0.0322 C.ar      1 <0>        -0.1189
     19 C14        -0.0559    4.2672    0.0251 C.ar      1 <0>        -0.1161
     20 C15         1.1505    3.5924    0.0100 C.ar      1 <0>        -0.1190
     21 C16         1.1693    2.2102    0.0028 C.ar      1 <0>        -0.1033
     22 H1          1.0347   -3.9228    9.4349 H         1 <0>         0.0601
     23 H2         -0.7450   -3.9470    9.4517 H         1 <0>         0.0601
     24 H3          0.1701   -5.0581   10.4987 H         1 <0>         0.1052
     25 H4          0.1583   -7.0389    6.3459 H         1 <0>         0.1427
     26 H5          0.1245   -6.2138    4.0318 H         1 <0>         0.1470
     27 H6          0.0942   -2.1760    5.4842 H         1 <0>         0.1297
     28 H7          0.1156   -3.0139    7.7939 H         1 <0>         0.1383
     29 H8          0.0602   -1.6880    3.7179 H         1 <0>         0.4307
     30 H9          0.0443   -2.4665    0.9183 H         1 <0>         0.4333
     31 H10        -0.8878   -0.3767   -0.5053 H         1 <0>         0.1113
     32 H11         0.8920   -0.3525   -0.5222 H         1 <0>         0.1113
     33 H12        -2.1527    1.6249    0.0211 H         1 <0>         0.1207
     34 H13        -2.1860    4.0870    0.0437 H         1 <0>         0.1232
     35 H14        -0.0705    5.3471    0.0311 H         1 <0>         0.1225
     36 H15         2.0784    4.1450    0.0041 H         1 <0>         0.1232
     37 H16         2.1118    1.6830   -0.0091 H         1 <0>         0.1207
@<TRIPOS>BOND
     1    1    2 1
     2    1   22 1
     3    1   23 1
     4    1   24 1
     5    2    3 1
     6    3    8 ar
     7    3    4 ar
     8    4    5 ar
     9    4   25 1
    10    5    6 ar
    11    5   26 1
    12    6    7 ar
    13    6    9 1
    14    7    8 ar
    15    7   27 1
    16    8   28 1
    17    9   10 2
    18    9   11 am
    19   11   12 1
    20   11   29 1
    21   12   13 am
    22   12   30 1
    23   13   14 2
    24   13   15 1
    25   15   16 1
    26   15   31 1
    27   15   32 1
    28   16   21 ar
    29   16   17 ar
    30   17   18 ar
    31   17   33 1
    32   18   19 ar
    33   18   34 1
    34   19   20 ar
    35   19   35 1
    36   20   21 ar
    37   20   36 1
    38   21   37 1
@<TRIPOS>MOLECULE
ZINC00078678
   26    27     0     0     0
SMALL
USER_CHARGES
(3-nitropyrazol-1-yl)-(p-tolyl)methanone
@<TRIPOS>ATOM
      1 C1         -0.0763    5.7484    0.0285 C.3       1 <0>        -0.1257
      2 C2         -0.0558    4.2416    0.0218 C.ar      1 <0>        -0.0363
      3 C3          1.1535    3.5693    0.0409 C.ar      1 <0>        -0.1381
      4 C4          1.1798    2.1902    0.0349 C.ar      1 <0>        -0.0402
      5 C5         -0.0181    1.4724    0.0091 C.ar      1 <0>        -0.1731
      6 C6         -1.2349    2.1575   -0.0158 C.ar      1 <0>        -0.0666
      7 C7         -1.2463    3.5368   -0.0037 C.ar      1 <0>        -0.1351
      8 C8          0.0021   -0.0041    0.0020 C.2       1 <0>         0.6028
      9 O1          1.0573   -0.5966   -0.1021 O.2       1 <0>        -0.4538
     10 N1         -1.1504   -0.6943    0.1110 N.am      1 <0>        -0.3402
     11 C9         -1.2694   -2.0473    0.2133 C.2       1 <0>         0.1024
     12 C10        -2.5862   -2.3353    0.3028 C.2       1 <0>        -0.1984
     13 C11        -3.2974   -1.1282    0.2545 C.2       1 <0>         0.1586
     14 N2         -2.4400   -0.1480    0.1456 N.2       1 <0>        -0.1934
     15 N3         -4.7694   -0.9875    0.3210 N.pl3     1 <0>         0.0465
     16 O2         -5.4716   -1.9769    0.4274 O.2       1 <0>        -0.1102
     17 O3         -5.2784    0.1179    0.2694 O.3       1 <0>        -0.1111
     18 H1         -0.0624    6.1165   -0.9973 H         1 <0>         0.0803
     19 H2         -0.9804    6.0973    0.5275 H         1 <0>         0.0742
     20 H3          0.7991    6.1214    0.5602 H         1 <0>         0.0732
     21 H4          2.0790    4.1256    0.0608 H         1 <0>         0.1360
     22 H5          2.1243    1.6668    0.0504 H         1 <0>         0.1387
     23 H6         -2.1647    1.6087   -0.0400 H         1 <0>         0.1678
     24 H7         -2.1866    4.0679   -0.0185 H         1 <0>         0.1359
     25 H8         -0.4583   -2.7603    0.2219 H         1 <0>         0.2141
     26 H9         -3.0155   -3.3220    0.3957 H         1 <0>         0.1914
@<TRIPOS>BOND
     1    1    2 1
     2    1   18 1
     3    1   19 1
     4    1   20 1
     5    2    7 ar
     6    2    3 ar
     7    3    4 ar
     8    3   21 1
     9    4    5 ar
    10    4   22 1
    11    5    6 ar
    12    5    8 1
    13    6    7 ar
    14    6   23 1
    15    7   24 1
    16    8    9 2
    17    8   10 am
    18   10   14 1
    19   10   11 1
    20   11   12 2
    21   11   25 1
    22   12   13 1
    23   12   26 1
    24   13   14 2
    25   13   15 1
    26   15   16 2
    27   15   17 1
@<TRIPOS>MOLECULE
ZINC00079624
   23    24     0     0     0
SMALL
USER_CHARGES
(3-nitropyrazol-1-yl)-phenyl-methanone
@<TRIPOS>ATOM
      1 C1         -5.5725    4.2406    0.3686 C.ar      1 <0>        -0.0718
      2 C2         -5.8489    2.8847    0.3624 C.ar      1 <0>        -0.1353
      3 C3         -4.8236    1.9691    0.2495 C.ar      1 <0>        -0.0458
      4 C4         -3.5038    2.4133    0.1411 C.ar      1 <0>        -0.1659
      5 C5         -3.2317    3.7832    0.1538 C.ar      1 <0>        -0.0727
      6 C6         -4.2674    4.6878    0.2616 C.ar      1 <0>        -0.1325
      7 C7         -2.4009    1.4391    0.0198 C.2       1 <0>         0.6025
      8 O1         -2.6464    0.2555   -0.0999 O.2       1 <0>        -0.4525
      9 N1         -1.1217    1.8631    0.0419 N.am      1 <0>        -0.3406
     10 C8         -0.0133    1.0714    0.0418 C.2       1 <0>         0.1026
     11 C9          1.0670    1.8823    0.0620 C.2       1 <0>        -0.1982
     12 C10         0.6125    3.2083    0.0810 C.2       1 <0>         0.1592
     13 N2         -0.6942    3.1969    0.0725 N.2       1 <0>        -0.1936
     14 N3          1.4676    4.4162    0.1067 N.pl3     1 <0>         0.0463
     15 O2          2.6804    4.3038    0.1129 O.2       1 <0>        -0.1100
     16 O3          0.9584    5.5226    0.1216 O.3       1 <0>        -0.1106
     17 H1         -6.3792    4.9531    0.4576 H         1 <0>         0.1335
     18 H2         -6.8698    2.5426    0.4467 H         1 <0>         0.1365
     19 H3         -5.0406    0.9111    0.2452 H         1 <0>         0.1385
     20 H4         -2.2130    4.1334    0.0752 H         1 <0>         0.1680
     21 H5         -4.0588    5.7474    0.2670 H         1 <0>         0.1364
     22 H6         -0.0004   -0.0083    0.0241 H         1 <0>         0.2143
     23 H7          2.0993    1.5648    0.0633 H         1 <0>         0.1916
@<TRIPOS>BOND
     1    1    6 ar
     2    1    2 ar
     3    1   17 1
     4    2    3 ar
     5    2   18 1
     6    3    4 ar
     7    3   19 1
     8    4    5 ar
     9    4    7 1
    10    5    6 ar
    11    5   20 1
    12    6   21 1
    13    7    8 2
    14    7    9 am
    15    9   13 1
    16    9   10 1
    17   10   11 2
    18   10   22 1
    19   11   12 1
    20   11   23 1
    21   12   13 2
    22   12   14 1
    23   14   15 2
    24   14   16 1
@<TRIPOS>MOLECULE
ZINC00037182
   24    25     0     0     0
SMALL
USER_CHARGES
(4-bromopyrazol-1-yl)-(o-tolyl)methanone
@<TRIPOS>ATOM
      1 C1         -3.2125    6.5626   -0.1370 C.3       1 <0>        -0.1343
      2 C2         -3.7960    5.1731   -0.1449 C.ar      1 <0>        -0.0110
      3 C3         -5.1546    4.9928    0.0131 C.ar      1 <0>        -0.1418
      4 C4         -5.6912    3.7176    0.0114 C.ar      1 <0>        -0.0718
      5 C5         -4.8712    2.6149   -0.1529 C.ar      1 <0>        -0.1454
      6 C6         -3.5120    2.7806   -0.3168 C.ar      1 <0>        -0.0688
      7 C7         -2.9633    4.0653   -0.3165 C.ar      1 <0>        -0.1638
      8 C8         -1.5088    4.2506   -0.4909 C.2       1 <0>         0.6008
      9 O1         -1.0238    5.3612   -0.4082 O.2       1 <0>        -0.4669
     10 N1         -0.7193    3.1875   -0.7417 N.am      1 <0>        -0.3656
     11 C9          0.6145    3.2250   -1.0189 C.2       1 <0>         0.1233
     12 C10         1.0277    1.9523   -1.2075 C.2       1 <0>        -0.2249
     13 C11        -0.0804    1.1087   -1.0422 C.2       1 <0>         0.1181
     14 N2         -1.1241    1.8466   -0.7698 N.2       1 <0>        -0.2692
     15 Br1         2.7899    1.4050   -1.6209 Br        1 <0>         0.0047
     16 H1         -3.0825    6.9078   -1.1627 H         1 <0>         0.0771
     17 H2         -3.8870    7.2369    0.3906 H         1 <0>         0.0668
     18 H3         -2.2460    6.5479    0.3668 H         1 <0>         0.0975
     19 H4         -5.8002    5.8489    0.1426 H         1 <0>         0.1329
     20 H5         -6.7550    3.5820    0.1393 H         1 <0>         0.1301
     21 H6         -5.2967    1.6222   -0.1526 H         1 <0>         0.1317
     22 H7         -2.8733    1.9193   -0.4453 H         1 <0>         0.1745
     23 H8          1.2294    4.1110   -1.0776 H         1 <0>         0.1984
     24 H9         -0.0734    0.0323   -1.1297 H         1 <0>         0.2077
@<TRIPOS>BOND
     1    1    2 1
     2    1   16 1
     3    1   17 1
     4    1   18 1
     5    2    7 ar
     6    2    3 ar
     7    3    4 ar
     8    3   19 1
     9    4    5 ar
    10    4   20 1
    11    5    6 ar
    12    5   21 1
    13    6    7 ar
    14    6   22 1
    15    7    8 1
    16    8    9 2
    17    8   10 am
    18   10   14 1
    19   10   11 1
    20   11   12 2
    21   11   23 1
    22   12   13 1
    23   12   15 1
    24   13   14 2
    25   13   24 1
@<TRIPOS>MOLECULE
ZINC00359012
   31    32     0     0     0
SMALL
USER_CHARGES
N-[4-(3-methylpyrazole-1-carbonyl)phenyl]acetamide
@<TRIPOS>ATOM
      1 C1         -1.5908    4.3463   -0.0109 C.3       1 <0>        -0.0825
      2 C2         -0.6790    3.1465    0.0072 C.2       1 <0>         0.1135
      3 C3         -1.0883    1.8059    0.0199 C.2       1 <0>        -0.2436
      4 C4          0.0189    1.0320    0.0377 C.2       1 <0>         0.0801
      5 N1          1.0998    1.8605    0.0277 N.am      1 <0>        -0.3714
      6 N2          0.6274    3.1793    0.0086 N.2       1 <0>        -0.2862
      7 C5          2.3927    1.4797    0.0341 C.2       1 <0>         0.6014
      8 O1          2.6793    0.3043    0.1457 O.2       1 <0>        -0.4814
      9 C6          3.4589    2.4892   -0.0942 C.ar      1 <0>        -0.1742
     10 C7          3.1376    3.8503   -0.1076 C.ar      1 <0>        -0.0523
     11 C8          4.1364    4.7902   -0.2213 C.ar      1 <0>        -0.1649
     12 C9          5.4637    4.3874   -0.3349 C.ar      1 <0>         0.1837
     13 C10         5.7867    3.0338   -0.3281 C.ar      1 <0>        -0.1420
     14 C11         4.7938    2.0882   -0.2085 C.ar      1 <0>        -0.0295
     15 N3          6.4721    5.3422   -0.4553 N.am      1 <0>        -0.6759
     16 C12         7.5489    5.0915   -1.2261 C.2       1 <0>         0.5106
     17 O2          7.6787    4.0065   -1.7522 O.2       1 <0>        -0.5195
     18 C13         8.5917    6.1594   -1.4341 C.3       1 <0>        -0.1721
     19 H1         -1.8095    4.6209   -1.0428 H         1 <0>         0.0871
     20 H2         -2.5197    4.1045    0.5055 H         1 <0>         0.0860
     21 H3         -1.1025    5.1813    0.4916 H         1 <0>         0.0801
     22 H4         -2.1093    1.4536    0.0183 H         1 <0>         0.1631
     23 H5          0.0426   -0.0476    0.0525 H         1 <0>         0.1881
     24 H6          2.1074    4.1635   -0.0240 H         1 <0>         0.1800
     25 H7          3.8896    5.8416   -0.2270 H         1 <0>         0.1344
     26 H8          6.8178    2.7249   -0.4165 H         1 <0>         0.1475
     27 H9          5.0453    1.0379   -0.2027 H         1 <0>         0.1396
     28 H10         6.3989    6.1870    0.0156 H         1 <0>         0.4154
     29 H11         9.3545    6.0782   -0.6597 H         1 <0>         0.1002
     30 H12         9.0530    6.0309   -2.4133 H         1 <0>         0.1001
     31 H13         8.1220    7.1414   -1.3798 H         1 <0>         0.0848
@<TRIPOS>BOND
     1    1    2 1
     2    1   19 1
     3    1   20 1
     4    1   21 1
     5    2    6 2
     6    2    3 1
     7    3    4 2
     8    3   22 1
     9    4    5 1
    10    4   23 1
    11    5    6 1
    12    5    7 am
    13    7    8 2
    14    7    9 1
    15    9   14 ar
    16    9   10 ar
    17   10   11 ar
    18   10   24 1
    19   11   12 ar
    20   11   25 1
    21   12   13 ar
    22   12   15 1
    23   13   14 ar
    24   13   26 1
    25   14   27 1
    26   15   16 am
    27   15   28 1
    28   16   17 2
    29   16   18 1
    30   18   29 1
    31   18   30 1
    32   18   31 1
@<TRIPOS>MOLECULE
ZINC00388510
   17    18     0     0     0
SMALL
USER_CHARGES

@<TRIPOS>ATOM
      1 C1         -0.0166    1.3741    0.0096 C.ar      1 <0>        -0.0719
      2 C2          1.1656    2.1034    0.0022 C.ar      1 <0>        -0.1179
      3 C3          2.3879    1.4652   -0.0115 C.ar      1 <0>        -0.0385
      4 C4          2.4294    0.0756   -0.0179 C.ar      1 <0>        -0.1704
      5 C5          1.2247   -0.6702   -0.0134 C.ar      1 <0>        -0.0029
      6 C6          0.0021   -0.0041    0.0020 C.ar      1 <0>        -0.0999
      7 C7          1.3349   -2.1321   -0.0299 C.2       1 <0>        -0.1015
      8 C8          2.5357   -2.6954    0.2033 C.2       1 <0>         0.1466
      9 O1          3.6294   -1.9511    0.4650 O.3       1 <0>        -0.2676
     10 C9          3.6849   -0.6907   -0.0278 C.2       1 <0>         0.5344
     11 O2          4.7202   -0.2168   -0.4570 O.2       1 <0>        -0.4119
     12 Cl1         2.6794   -4.4251    0.1668 Cl        1 <0>         0.0302
     13 Cl2        -0.0580   -3.1195   -0.3439 Cl        1 <0>        -0.0042
     14 H1         -0.9631    1.8939    0.0260 H         1 <0>         0.1414
     15 H2          1.1270    3.1827    0.0069 H         1 <0>         0.1422
     16 H3          3.3031    2.0387   -0.0176 H         1 <0>         0.1472
     17 H4         -0.9227   -0.5619    0.0080 H         1 <0>         0.1448
@<TRIPOS>BOND
     1    1    6 ar
     2    1    2 ar
     3    1   14 1
     4    2    3 ar
     5    2   15 1
     6    3    4 ar
     7    3   16 1
     8    4   10 1
     9    4    5 ar
    10    5    6 ar
    11    5    7 1
    12    6   17 1
    13    7    8 2
    14    7   13 1
    15    8    9 1
    16    8   12 1
    17    9   10 1
    18   10   11 2
@<TRIPOS>MOLECULE
ZINC05751469
   34    36     0     0     0
SMALL
USER_CHARGES
1,3-bis(p-tolyl)-1,3-diazetidine-2,4-dione
@<TRIPOS>ATOM
      1 C1          6.6004    2.2531   -0.0495 C.3       1 <0>        -0.1162
      2 C2          5.0936    2.2326   -0.0352 C.ar      1 <0>        -0.0936
      3 C3          4.3874    3.4213   -0.0215 C.ar      1 <0>        -0.0889
      4 C4          3.0064    3.4057   -0.0084 C.ar      1 <0>        -0.1306
      5 C5          2.3272    2.1949   -0.0084 C.ar      1 <0>         0.1579
      6 C6          3.0390    1.0030   -0.0159 C.ar      1 <0>        -0.1306
      7 C7          4.4199    1.0250   -0.0352 C.ar      1 <0>        -0.0889
      8 N1          0.9256    2.1758    0.0049 N.am      1 <0>        -0.5632
      9 C8         -0.0144    1.2099    0.0087 C.2       1 <0>         0.7348
     10 O1          0.0021   -0.0041    0.0020 O.2       1 <0>        -0.4357
     11 N2         -0.9802    2.1499    0.0169 N.am      1 <0>        -0.5632
     12 C9         -0.0402    3.1157    0.0192 C.2       1 <0>         0.7348
     13 O2         -0.0567    4.3297    0.0259 O.2       1 <0>        -0.4357
     14 C10        -2.3820    2.1308    0.0213 C.ar      1 <0>         0.1579
     15 C11        -3.0611    0.9201    0.0112 C.ar      1 <0>        -0.1306
     16 C12        -4.4422    0.9045    0.0218 C.ar      1 <0>        -0.0889
     17 C13        -5.1484    2.0933    0.0306 C.ar      1 <0>        -0.0936
     18 C14        -4.4747    3.3008    0.0345 C.ar      1 <0>        -0.0889
     19 C15        -3.0937    3.3228    0.0301 C.ar      1 <0>        -0.1306
     20 C16        -6.6553    2.0728    0.0354 C.3       1 <0>        -0.1162
     21 H1          6.9735    2.2521    0.9746 H         1 <0>         0.0738
     22 H2          6.9708    1.3711   -0.5720 H         1 <0>         0.0693
     23 H3          6.9467    3.1509   -0.5615 H         1 <0>         0.0693
     24 H4          4.9163    4.3630   -0.0215 H         1 <0>         0.1350
     25 H5          2.4554    4.3345    0.0023 H         1 <0>         0.1364
     26 H6          2.5134    0.0595   -0.0114 H         1 <0>         0.1364
     27 H7          4.9741    0.0981   -0.0455 H         1 <0>         0.1350
     28 H8         -2.5101   -0.0087   -0.0002 H         1 <0>         0.1364
     29 H9         -4.9711   -0.0372    0.0184 H         1 <0>         0.1350
     30 H10        -5.0290    4.2277    0.0414 H         1 <0>         0.1350
     31 H11        -2.5681    4.2662    0.0332 H         1 <0>         0.1364
     32 H12        -7.0219    2.0731   -0.9911 H         1 <0>         0.0738
     33 H13        -7.0048    1.1754    0.5458 H         1 <0>         0.0693
     34 H14        -7.0290    2.9551    0.5549 H         1 <0>         0.0693
@<TRIPOS>BOND
     1    1    2 1
     2    1   21 1
     3    1   22 1
     4    1   23 1
     5    2    7 ar
     6    2    3 ar
     7    3    4 ar
     8    3   24 1
     9    4    5 ar
    10    4   25 1
    11    5    6 ar
    12    5    8 1
    13    6    7 ar
    14    6   26 1
    15    7   27 1
    16    8   12 am
    17    8    9 am
    18    9   10 2
    19    9   11 am
    20   11   12 am
    21   11   14 1
    22   12   13 2
    23   14   19 ar
    24   14   15 ar
    25   15   16 ar
    26   15   28 1
    27   16   17 ar
    28   16   29 1
    29   17   18 ar
    30   17   20 1
    31   18   19 ar
    32   18   30 1
    33   19   31 1
    34   20   32 1
    35   20   33 1
    36   20   34 1
@<TRIPOS>MOLECULE
ZINC29412147
   20    20     0     0     0
SMALL
USER_CHARGES
1,3-diethyl-1,3-diazetidine-2,4-dione
@<TRIPOS>ATOM
      1 C1         -1.3891   -1.4117   -1.4348 C.3       1 <0>        -0.1774
      2 C2         -1.0196   -1.0540    0.0061 C.3       1 <0>         0.1349
      3 N1          0.0021   -0.0041    0.0020 N.am      1 <0>        -0.6287
      4 C3         -0.0162    1.3436    0.0094 C.2       1 <0>         0.7311
      5 O1         -0.8863    2.1903    0.0184 O.2       1 <0>        -0.4628
      6 N2          1.3314    1.3619   -0.0033 N.am      1 <0>        -0.6286
      7 C4          1.3497    0.0143   -0.0108 C.2       1 <0>         0.7311
      8 O2          2.2197   -0.8325   -0.0233 O.2       1 <0>        -0.4628
      9 C5          2.3531    2.4118   -0.0078 C.3       1 <0>         0.1349
     10 C6          2.7225    2.7701    1.4330 C.3       1 <0>        -0.1774
     11 H1         -2.1563   -2.2000   -1.4317 H         1 <0>         0.0812
     12 H2         -0.4947   -1.7725   -1.9639 H         1 <0>         0.0630
     13 H3         -1.7820   -0.5197   -1.9448 H         1 <0>         0.0630
     14 H4         -1.9140   -0.6932    0.5352 H         1 <0>         0.0978
     15 H5         -0.6268   -1.9459    0.5161 H         1 <0>         0.0978
     16 H6          3.2475    2.0508   -0.5367 H         1 <0>         0.0979
     17 H7          1.9603    3.3035   -0.5182 H         1 <0>         0.0978
     18 H8          3.4897    3.5584    1.4296 H         1 <0>         0.0812
     19 H9          3.1153    1.8784    1.9434 H         1 <0>         0.0630
     20 H10         1.8281    3.1311    1.9619 H         1 <0>         0.0630
@<TRIPOS>BOND
     1    1    2 1
     2    1   11 1
     3    1   12 1
     4    1   13 1
     5    2    3 1
     6    2   14 1
     7    2   15 1
     8    3    7 am
     9    3    4 am
    10    4    5 2
    11    4    6 am
    12    6    7 am
    13    6    9 1
    14    7    8 2
    15    9   10 1
    16    9   16 1
    17    9   17 1
    18   10   18 1
    19   10   19 1
    20   10   20 1
@<TRIPOS>MOLECULE
ZINC03045392
   20    21     0     0     0
SMALL
USER_CHARGES

@<TRIPOS>ATOM
      1 C1         -0.0166    1.3718    0.0096 C.ar      1 <0>        -0.0791
      2 C2          1.1605    2.0994    0.0023 C.ar      1 <0>        -0.0897
      3 C3          2.3767    1.4321   -0.0129 C.ar      1 <0>         0.0068
      4 C4          2.3992    0.0662   -0.0204 C.ar      1 <0>        -0.6147
      5 C5          1.2246   -0.6975   -0.0133 C.ar      1 <0>        -0.1158
      6 C6          0.0021   -0.0041    0.0020 C.ar      1 <0>        -0.0331
      7 C7          1.4909   -2.1423   -0.0240 C.2       1 <0>         0.5390
      8 O1          0.5787   -2.9456   -0.0200 O.2       1 <0>        -0.4502
      9 N1          2.7689   -2.5506   -0.0387 N.am      1 <0>        -0.9275
     10 S1          3.6863   -1.1515   -0.0397 S.o2      1 <0>         2.6509
     11 O2          4.3669   -1.0804    1.2056 O.2       1 <0>        -0.9135
     12 O3          4.3426   -1.0663   -1.2972 O.2       1 <0>        -0.9042
     13 C8          3.2582   -3.9315   -0.0505 C.3       1 <0>         0.2107
     14 Cl1         3.4428   -4.4891   -1.7551 Cl        1 <0>        -0.1534
     15 H1         -0.9633    1.8912    0.0260 H         1 <0>         0.1493
     16 H2          1.1326    3.1791    0.0079 H         1 <0>         0.1516
     17 H3          3.3014    1.9899   -0.0191 H         1 <0>         0.1490
     18 H4         -0.9274   -0.5540    0.0083 H         1 <0>         0.1489
     19 H5          4.2232   -3.9793    0.4540 H         1 <0>         0.1366
     20 H6          2.5456   -4.5739    0.4668 H         1 <0>         0.1385
@<TRIPOS>BOND
     1    1    6 ar
     2    1    2 ar
     3    1   15 1
     4    2    3 ar
     5    2   16 1
     6    3    4 ar
     7    3   17 1
     8    4   10 1
     9    4    5 ar
    10    5    6 ar
    11    5    7 1
    12    6   18 1
    13    7    8 2
    14    7    9 am
    15    9   10 1
    16    9   13 1
    17   10   11 2
    18   10   12 2
    19   13   14 1
    20   13   19 1
    21   13   20 1
@<TRIPOS>MOLECULE
ZINC03936307
   82    86     0     0     0
SMALL
USER_CHARGES

@<TRIPOS>ATOM
      1 C1         -0.6755    1.6521   -0.5799 C.3       1 <0>        -0.1522
      2 C2         -0.6844    0.1688   -0.9550 C.3       1 <0>        -0.1123
      3 C3         -0.4064    0.0196   -2.4521 C.3       1 <0>        -0.1288
      4 C4         -0.4153   -1.4637   -2.8272 C.3       1 <0>         0.2086
      5 H1          0.2935   -2.0018   -2.1978 H         1 <0>         0.1051
      6 C5         -0.0211   -1.6185   -4.2734 C.ar      1 <0>        -0.0918
      7 C6         -0.9516   -1.3902   -5.2702 C.ar      1 <0>        -0.1005
      8 C7         -0.5947   -1.5304   -6.5983 C.ar      1 <0>        -0.0933
      9 C8          0.6975   -1.9009   -6.9336 C.ar      1 <0>         0.0396
     10 C9          1.6348   -2.1310   -5.9296 C.ar      1 <0>         0.0382
     11 C10         1.2715   -1.9829   -4.6008 C.ar      1 <0>        -0.0854
     12 O1          2.8198   -2.4794   -6.5105 O.3       1 <0>        -0.3061
     13 C11         2.4899   -2.8574   -7.8601 C.3       1 <0>         0.2126
     14 O2          1.2953   -2.1051   -8.1436 O.3       1 <0>        -0.3056
     15 N1         -1.7596   -2.0101   -2.6262 N.am      1 <0>        -0.7190
     16 C12        -2.1336   -2.4487   -1.4079 C.2       1 <0>         0.7152
     17 O3         -1.3556   -2.3909   -0.4760 O.2       1 <0>        -0.5389
     18 N2         -3.3704   -2.9514   -1.2230 N.am      1 <0>        -0.6046
     19 C13        -4.0650   -3.4879   -0.0598 C.3       1 <0>         0.3053
     20 H2         -3.6244   -4.4086    0.3226 H         1 <0>         0.1279
     21 C14        -5.2741   -3.7208   -0.9571 C.3       1 <0>        -0.0901
     22 C15        -4.4151   -3.1365   -2.0389 C.2       1 <0>         0.5392
     23 O4         -4.5990   -2.9141   -3.2164 O.2       1 <0>        -0.4524
     24 C16        -5.6213   -5.1969   -1.1614 C.3       1 <0>        -0.1055
     25 C17        -6.0741   -5.8030    0.1684 C.3       1 <0>        -0.1536
     26 C18        -6.4876   -2.8597   -0.6009 C.3       1 <0>        -0.0901
     27 C19        -7.6200   -3.1398   -1.5910 C.3       1 <0>        -0.1608
     28 O5         -4.2932   -2.5177    0.9643 O.3       1 <0>        -0.2873
     29 C20        -3.3247   -2.3745    1.9041 C.ar      1 <0>         0.1502
     30 C21        -2.1735   -3.1504    1.8369 C.ar      1 <0>        -0.1572
     31 C22        -1.1885   -3.0081    2.7886 C.ar      1 <0>        -0.0176
     32 C23        -1.3473   -2.0816    3.8226 C.ar      1 <0>        -0.1787
     33 C24        -2.5059   -1.3031    3.8863 C.ar      1 <0>        -0.0660
     34 C25        -3.4841   -1.4481    2.9281 C.ar      1 <0>        -0.1446
     35 C26        -0.2941   -1.9262    4.8450 C.2       1 <0>         0.5779
     36 O6          0.8770   -1.9418    4.5187 O.2       1 <0>        -0.5036
     37 N3         -0.6307   -1.7668    6.1403 N.am      1 <0>        -0.6328
     38 C27        -2.0324   -1.8672    6.5754 C.3       1 <0>         0.0760
     39 C28        -2.1047   -2.8345    7.7615 C.3       1 <0>        -0.0223
     40 N4         -1.1750   -2.3934    8.8090 N.4       1 <0>        -0.3858
     41 C29         0.2064   -2.4734    8.3177 C.3       1 <0>        -0.0199
     42 C30         0.3939   -1.4937    7.1600 C.3       1 <0>         0.0877
     43 C31        -1.3240   -3.2563    9.9885 C.3       1 <0>        -0.0470
     44 H3          0.2996    2.0799   -0.8128 H         1 <0>         0.0541
     45 H4         -1.4462    2.1747   -1.1464 H         1 <0>         0.0507
     46 H5         -0.8735    1.7584    0.4867 H         1 <0>         0.0502
     47 H6          0.0864   -0.3538   -0.3885 H         1 <0>         0.0680
     48 H7         -1.6595   -0.2590   -0.7221 H         1 <0>         0.0585
     49 H8         -1.1772    0.5423   -3.0186 H         1 <0>         0.0688
     50 H9          0.5687    0.4475   -2.6850 H         1 <0>         0.0805
     51 H10        -1.9596   -1.1020   -5.0106 H         1 <0>         0.1352
     52 H11        -1.3236   -1.3514   -7.3749 H         1 <0>         0.1409
     53 H12         1.9975   -2.1563   -3.8202 H         1 <0>         0.1392
     54 H13         3.2910   -2.5758   -8.5435 H         1 <0>         0.1361
     55 H14         2.2920   -3.9276   -7.9206 H         1 <0>         0.0879
     56 H15        -2.3806   -2.0563   -3.3700 H         1 <0>         0.4074
     57 H16        -6.4251   -5.2833   -1.8925 H         1 <0>         0.0981
     58 H17        -4.7422   -5.7302   -1.5232 H         1 <0>         0.0743
     59 H18        -6.2503   -6.8710    0.0396 H         1 <0>         0.0694
     60 H19        -5.2993   -5.6506    0.9198 H         1 <0>         0.0534
     61 H20        -6.9953   -5.3194    0.4932 H         1 <0>         0.0669
     62 H21        -6.8200   -3.1003    0.4089 H         1 <0>         0.0888
     63 H22        -6.2129   -1.8061   -0.6517 H         1 <0>         0.0740
     64 H23        -8.4630   -2.4839   -1.3737 H         1 <0>         0.0655
     65 H24        -7.2687   -2.9558   -2.6063 H         1 <0>         0.0633
     66 H25        -7.9349   -4.1791   -1.4982 H         1 <0>         0.0644
     67 H26        -2.0515   -3.8662    1.0374 H         1 <0>         0.1384
     68 H27        -0.2946   -3.6119    2.7361 H         1 <0>         0.1339
     69 H28        -2.6323   -0.5860    4.6839 H         1 <0>         0.1337
     70 H29        -4.3781   -0.8439    2.9743 H         1 <0>         0.1409
     71 H30        -2.3921   -0.8848    6.8815 H         1 <0>         0.0982
     72 H31        -2.6440   -2.2455    5.7564 H         1 <0>         0.1393
     73 H32        -3.1197   -2.8476    8.1585 H         1 <0>         0.1455
     74 H33        -1.8307   -3.8363    7.4307 H         1 <0>         0.1341
     75 H34         0.8943   -2.2204    9.1244 H         1 <0>         0.1451
     76 H35         0.4105   -3.4861    7.9700 H         1 <0>         0.1336
     77 H36         1.3856   -1.6254    6.7272 H         1 <0>         0.1371
     78 H37         0.2833   -0.4730    7.5261 H         1 <0>         0.0957
     79 H38        -1.1012   -4.2875    9.7148 H         1 <0>         0.1221
     80 H39        -0.6343   -2.9299   10.7669 H         1 <0>         0.1259
     81 H40        -2.3470   -3.1916   10.3591 H         1 <0>         0.1260
     82 H41        -1.3853   -1.4401    9.0640 H         1 <0>         0.4255
@<TRIPOS>BOND
     1    1    2 1
     2    1   44 1
     3    1   45 1
     4    1   46 1
     5    2    3 1
     6    2   47 1
     7    2   48 1
     8    3    4 1
     9    3   49 1
    10    3   50 1
    11    4    5 1
    12    4    6 1
    13    4   15 1
    14    6   11 ar
    15    6    7 ar
    16    7    8 ar
    17    7   51 1
    18    8    9 ar
    19    8   52 1
    20    9   14 1
    21    9   10 ar
    22   10   11 ar
    23   10   12 1
    24   11   53 1
    25   12   13 1
    26   13   14 1
    27   13   54 1
    28   13   55 1
    29   15   16 am
    30   15   56 1
    31   16   17 2
    32   16   18 am
    33   18   22 am
    34   18   19 1
    35   19   20 1
    36   19   21 1
    37   19   28 1
    38   21   22 1
    39   21   24 1
    40   21   26 1
    41   22   23 2
    42   24   25 1
    43   24   57 1
    44   24   58 1
    45   25   59 1
    46   25   60 1
    47   25   61 1
    48   26   27 1
    49   26   62 1
    50   26   63 1
    51   27   64 1
    52   27   65 1
    53   27   66 1
    54   28   29 1
    55   29   34 ar
    56   29   30 ar
    57   30   31 ar
    58   30   67 1
    59   31   32 ar
    60   31   68 1
    61   32   33 ar
    62   32   35 1
    63   33   34 ar
    64   33   69 1
    65   34   70 1
    66   35   36 2
    67   35   37 am
    68   37   42 1
    69   37   38 1
    70   38   39 1
    71   38   71 1
    72   38   72 1
    73   39   40 1
    74   39   73 1
    75   39   74 1
    76   40   41 1
    77   40   43 1
    78   40   82 1
    79   41   42 1
    80   41   75 1
    81   41   76 1
    82   42   77 1
    83   42   78 1
    84   43   79 1
    85   43   80 1
    86   43   81 1
@<TRIPOS>MOLECULE
ZINC03936307
   81    85     0     0     0
SMALL
USER_CHARGES

@<TRIPOS>ATOM
      1 C1         -1.0091    2.0814   -1.3553 C.3       1 <0>        -0.1516
      2 C2         -0.9032    0.5738   -1.5940 C.3       1 <0>        -0.1144
      3 C3         -0.6808    0.3078   -3.0841 C.3       1 <0>        -0.1271
      4 C4         -0.5749   -1.1997   -3.3228 C.3       1 <0>         0.2069
      5 H1          0.2064   -1.6144   -2.6860 H         1 <0>         0.1058
      6 C5         -0.2341   -1.4568   -4.7681 C.ar      1 <0>        -0.0873
      7 C6         -1.2251   -1.4028   -5.7306 C.ar      1 <0>        -0.1004
      8 C7         -0.9173   -1.6374   -7.0577 C.ar      1 <0>        -0.0936
      9 C8          0.3863   -1.9278   -7.4263 C.ar      1 <0>         0.0364
     10 C9          1.3845   -1.9822   -6.4567 C.ar      1 <0>         0.0374
     11 C10         1.0698   -1.7404   -5.1293 C.ar      1 <0>        -0.0848
     12 O1          2.5685   -2.2830   -7.0659 O.3       1 <0>        -0.3064
     13 C11         2.2130   -2.8132   -8.3565 C.3       1 <0>         0.2128
     14 O2          0.9448   -2.1944   -8.6430 O.3       1 <0>        -0.3071
     15 N1         -1.8550   -1.8360   -3.0024 N.am      1 <0>        -0.7213
     16 C12        -2.1334   -2.1874   -1.7314 C.2       1 <0>         0.7125
     17 O3         -1.3224   -1.9765   -0.8510 O.2       1 <0>        -0.5304
     18 N2         -3.3111   -2.7728   -1.4366 N.am      1 <0>        -0.6031
     19 C13        -3.9023   -3.2534   -0.1944 C.3       1 <0>         0.3056
     20 H2         -3.3650   -4.0935    0.2456 H         1 <0>         0.1264
     21 C14        -5.1252   -3.6711   -1.0017 C.3       1 <0>        -0.0916
     22 C15        -4.3709   -3.1214   -2.1758 C.2       1 <0>         0.5408
     23 O4         -4.6267   -3.0275   -3.3571 O.2       1 <0>        -0.4600
     24 C16        -5.3488   -5.1838   -1.0533 C.3       1 <0>        -0.1033
     25 C17        -5.6576   -5.7019    0.3528 C.3       1 <0>        -0.1547
     26 C18        -6.3930   -2.8854   -0.6608 C.3       1 <0>        -0.0909
     27 C19        -7.5165   -3.2902   -1.6172 C.3       1 <0>        -0.1592
     28 O5         -4.1694   -2.2136    0.7486 O.3       1 <0>        -0.2893
     29 C20        -3.1761   -1.9011    1.6190 C.ar      1 <0>         0.1351
     30 C21        -1.9648   -2.5803    1.5611 C.ar      1 <0>        -0.1606
     31 C22        -0.9544   -2.2662    2.4424 C.ar      1 <0>        -0.0236
     32 C23        -1.1481   -1.2629    3.3956 C.ar      1 <0>        -0.1597
     33 C24        -2.3672   -0.5822    3.4502 C.ar      1 <0>        -0.0603
     34 C25        -3.3708   -0.8989    2.5621 C.ar      1 <0>        -0.1455
     35 C26        -0.0680   -0.9234    4.3425 C.2       1 <0>         0.5655
     36 O6          1.0863   -0.8912    3.9619 O.2       1 <0>        -0.5334
     37 N3         -0.3612   -0.6492    5.6291 N.am      1 <0>        -0.6115
     38 C27        -1.7311   -0.8057    6.1410 C.3       1 <0>         0.1034
     39 C28        -1.6806   -1.6566    7.4145 C.3       1 <0>         0.0387
     40 N4         -0.7283   -1.0601    8.3606 N.3       1 <0>        -0.5433
     41 C29         0.6358   -1.0607    7.8154 C.3       1 <0>         0.0401
     42 C30         0.6814   -0.1912    6.5599 C.3       1 <0>         0.1159
     43 C31        -0.7766   -1.7458    9.6589 C.3       1 <0>         0.0244
     44 H3         -0.0873    2.5659   -1.6772 H         1 <0>         0.0528
     45 H4         -1.8479    2.4814   -1.9249 H         1 <0>         0.0490
     46 H5         -1.1675    2.2709   -0.2936 H         1 <0>         0.0530
     47 H6         -0.0644    0.1738   -1.0243 H         1 <0>         0.0700
     48 H7         -1.8250    0.0894   -1.2720 H         1 <0>         0.0602
     49 H8         -1.5196    0.7078   -3.6538 H         1 <0>         0.0673
     50 H9          0.2410    0.7923   -3.4061 H         1 <0>         0.0789
     51 H10        -2.2419   -1.1773   -5.4450 H         1 <0>         0.1359
     52 H11        -1.6934   -1.5945   -7.8075 H         1 <0>         0.1398
     53 H12         1.8427   -1.7775   -4.3759 H         1 <0>         0.1401
     54 H13         2.9544   -2.5311   -9.1040 H         1 <0>         0.1345
     55 H14         2.1082   -3.8972   -8.3096 H         1 <0>         0.0866
     56 H15        -2.5023   -2.0043   -3.7050 H         1 <0>         0.4059
     57 H16        -6.1870   -5.4048   -1.7141 H         1 <0>         0.0951
     58 H17        -4.4500   -5.6713   -1.4309 H         1 <0>         0.0731
     59 H18        -6.5948   -5.2686    0.7020 H         1 <0>         0.0665
     60 H19        -5.7462   -6.7880    0.3285 H         1 <0>         0.0679
     61 H20        -4.8517   -5.4182    1.0297 H         1 <0>         0.0561
     62 H21        -6.6917   -3.1047    0.3642 H         1 <0>         0.0895
     63 H22        -6.1970   -1.8179   -0.7616 H         1 <0>         0.0750
     64 H23        -7.7817   -4.3334   -1.4454 H         1 <0>         0.0626
     65 H24        -8.3882   -2.6600   -1.4412 H         1 <0>         0.0640
     66 H25        -7.1800   -3.1657   -2.6465 H         1 <0>         0.0625
     67 H26        -1.8159   -3.3556    0.8241 H         1 <0>         0.1329
     68 H27        -0.0137   -2.7949    2.3973 H         1 <0>         0.1313
     69 H28        -2.5207    0.1939    4.1854 H         1 <0>         0.1371
     70 H29        -4.3119   -0.3704    2.6010 H         1 <0>         0.1371
     71 H30        -2.1500    0.1738    6.3715 H         1 <0>         0.0799
     72 H31        -2.3472   -1.3036    5.3922 H         1 <0>         0.0989
     73 H32        -2.6710   -1.6911    7.8684 H         1 <0>         0.0899
     74 H33        -1.3595   -2.6676    7.1639 H         1 <0>         0.0397
     75 H34         1.3253   -0.6630    8.5601 H         1 <0>         0.0899
     76 H35         0.9247   -2.0800    7.5593 H         1 <0>         0.0392
     77 H36         1.6597   -0.2830    6.0879 H         1 <0>         0.0978
     78 H37         0.4989    0.8485    6.8314 H         1 <0>         0.0773
     79 H38        -0.5231   -2.7973    9.5240 H         1 <0>         0.0264
     80 H39        -0.0620   -1.2843   10.3403 H         1 <0>         0.0711
     81 H40        -1.7805   -1.6646   10.0755 H         1 <0>         0.0714
@<TRIPOS>BOND
     1    1    2 1
     2    1   44 1
     3    1   45 1
     4    1   46 1
     5    2    3 1
     6    2   47 1
     7    2   48 1
     8    3    4 1
     9    3   49 1
    10    3   50 1
    11    4    5 1
    12    4    6 1
    13    4   15 1
    14    6   11 ar
    15    6    7 ar
    16    7    8 ar
    17    7   51 1
    18    8    9 ar
    19    8   52 1
    20    9   14 1
    21    9   10 ar
    22   10   11 ar
    23   10   12 1
    24   11   53 1
    25   12   13 1
    26   13   14 1
    27   13   54 1
    28   13   55 1
    29   15   16 am
    30   15   56 1
    31   16   17 2
    32   16   18 am
    33   18   22 am
    34   18   19 1
    35   19   20 1
    36   19   21 1
    37   19   28 1
    38   21   22 1
    39   21   24 1
    40   21   26 1
    41   22   23 2
    42   24   25 1
    43   24   57 1
    44   24   58 1
    45   25   59 1
    46   25   60 1
    47   25   61 1
    48   26   27 1
    49   26   62 1
    50   26   63 1
    51   27   64 1
    52   27   65 1
    53   27   66 1
    54   28   29 1
    55   29   34 ar
    56   29   30 ar
    57   30   31 ar
    58   30   67 1
    59   31   32 ar
    60   31   68 1
    61   32   33 ar
    62   32   35 1
    63   33   34 ar
    64   33   69 1
    65   34   70 1
    66   35   36 2
    67   35   37 am
    68   37   42 1
    69   37   38 1
    70   38   39 1
    71   38   71 1
    72   38   72 1
    73   39   40 1
    74   39   73 1
    75   39   74 1
    76   40   41 1
    77   40   43 1
    78   41   42 1
    79   41   75 1
    80   41   76 1
    81   42   77 1
    82   42   78 1
    83   43   79 1
    84   43   80 1
    85   43   81 1
@<TRIPOS>MOLECULE
ZINC00037095
   27    28     0     0     0
SMALL
USER_CHARGES
methyl 2-(4-chlorobenzoyl)pyrazole-3-carboxylate
@<TRIPOS>ATOM
      1 C1         -0.0255    1.4477    0.0077 C.3       1 <0>         0.0390
      2 O1         -0.0031   -0.0041    0.0005 O.3       1 <0>        -0.3572
      3 C2          0.5961   -0.6018   -1.0489 C.2       1 <0>         0.5307
      4 O2          1.0864    0.0722   -1.9336 O.2       1 <0>        -0.4725
      5 C3          0.6566   -2.0687   -1.1231 C.2       1 <0>         0.0494
      6 C4          1.1411   -2.8176   -2.1740 C.2       1 <0>        -0.1506
      7 C5          1.0146   -4.1645   -1.8290 C.2       1 <0>         0.0579
      8 N1          0.4761   -4.2478   -0.6400 N.2       1 <0>        -0.2248
      9 N2          0.2354   -2.9540   -0.1609 N.am      1 <0>        -0.3836
     10 C6         -0.3104   -2.6351    1.0294 C.2       1 <0>         0.6235
     11 O3         -1.5182   -2.5953    1.1526 O.2       1 <0>        -0.4120
     12 C7          0.5593   -2.3342    2.1831 C.ar      1 <0>        -0.1488
     13 C8          1.9462   -2.2826    2.0216 C.ar      1 <0>        -0.0492
     14 C9          2.7528   -1.9958    3.1023 C.ar      1 <0>        -0.1191
     15 C10         2.1917   -1.7704    4.3487 C.ar      1 <0>         0.0034
     16 C11         0.8176   -1.8252    4.5166 C.ar      1 <0>        -0.1193
     17 C12        -0.0003   -2.1054    3.4427 C.ar      1 <0>        -0.0331
     18 Cl1         3.2148   -1.4170    5.7059 Cl        1 <0>        -0.0503
     19 H1          0.9964    1.8269   -0.0011 H         1 <0>         0.0705
     20 H2         -0.5540    1.8073   -0.8752 H         1 <0>         0.0706
     21 H3         -0.5356    1.7988    0.9047 H         1 <0>         0.1086
     22 H4          1.5478   -2.4318   -3.0972 H         1 <0>         0.1770
     23 H5          1.3093   -5.0011   -2.4451 H         1 <0>         0.2099
     24 H6          2.3851   -2.4626    1.0514 H         1 <0>         0.1352
     25 H7          3.8247   -1.9513    2.9778 H         1 <0>         0.1458
     26 H8          0.3863   -1.6478    5.4907 H         1 <0>         0.1486
     27 H9         -1.0714   -2.1475    3.5748 H         1 <0>         0.1503
@<TRIPOS>BOND
     1    1    2 1
     2    1   19 1
     3    1   20 1
     4    1   21 1
     5    2    3 1
     6    3    4 2
     7    3    5 1
     8    5    9 1
     9    5    6 2
    10    6    7 1
    11    6   22 1
    12    7    8 2
    13    7   23 1
    14    8    9 1
    15    9   10 am
    16   10   11 2
    17   10   12 1
    18   12   17 ar
    19   12   13 ar
    20   13   14 ar
    21   13   24 1
    22   14   15 ar
    23   14   25 1
    24   15   16 ar
    25   15   18 1
    26   16   17 ar
    27   16   26 1
    28   17   27 1
@<TRIPOS>MOLECULE
ZINC00045767
   39    41     0     0     0
SMALL
USER_CHARGES

@<TRIPOS>ATOM
      1 C1         -0.1653    1.5515   -0.1179 C.3       1 <0>        -0.1208
      2 C2         -0.1598    0.0446   -0.1054 C.ar      1 <0>        -0.0591
      3 C3         -1.3026   -0.6454    0.2600 C.ar      1 <0>        -0.1260
      4 C4         -1.3046   -2.0244    0.2737 C.ar      1 <0>        -0.0699
      5 C5         -0.1496   -2.7248   -0.0825 C.ar      1 <0>        -0.1552
      6 C6          1.0000   -2.0221   -0.4501 C.ar      1 <0>        -0.0368
      7 C7          0.9861   -0.6428   -0.4648 C.ar      1 <0>        -0.1226
      8 C8          2.2509   -2.7690   -0.8354 C.3       1 <0>        -0.1242
      9 C9         -0.1440   -4.2023   -0.0697 C.2       1 <0>         0.4892
     10 O1         -0.0882   -4.8008    0.9868 O.2       1 <0>        -0.4098
     11 C10        -0.2062   -4.9521   -1.3409 C.2       1 <0>         0.0460
     12 C11        -0.3130   -6.3557   -1.4728 C.2       1 <0>        -0.2021
     13 C12        -0.3411   -6.6474   -2.7878 C.2       1 <0>         0.0803
     14 N1         -0.2557   -5.4750   -3.4791 N.am      1 <0>        -0.3613
     15 N2         -0.1775   -4.4292   -2.5503 N.2       1 <0>        -0.2199
     16 C13        -0.2520   -5.3449   -4.8205 C.2       1 <0>         0.6032
     17 O2         -0.2398   -6.3332   -5.5265 O.2       1 <0>        -0.4667
     18 C14        -0.2630   -4.0023   -5.4313 C.ar      1 <0>        -0.1719
     19 C15        -0.1328   -2.8654   -4.6288 C.ar      1 <0>        -0.0435
     20 C16        -0.1438   -1.6137   -5.2050 C.ar      1 <0>        -0.1687
     21 C17        -0.2836   -1.4808   -6.5784 C.ar      1 <0>         0.1429
     22 C18        -0.4135   -2.6053   -7.3797 C.ar      1 <0>        -0.1710
     23 C19        -0.3977   -3.8623   -6.8154 C.ar      1 <0>        -0.0185
     24 F1         -0.2936   -0.2511   -7.1378 F         1 <0>        -0.1296
     25 H1         -0.4792    1.9055   -1.0999 H         1 <0>         0.0754
     26 H2         -0.8582    1.9186    0.6392 H         1 <0>         0.0701
     27 H3          0.8374    1.9203    0.0978 H         1 <0>         0.0698
     28 H4         -2.1947   -0.1026    0.5354 H         1 <0>         0.1299
     29 H5         -2.1970   -2.5616    0.5594 H         1 <0>         0.1281
     30 H6          1.8728   -0.0981   -0.7535 H         1 <0>         0.1300
     31 H7          2.2865   -2.8836   -1.9188 H         1 <0>         0.0792
     32 H8          3.1251   -2.2108   -0.5002 H         1 <0>         0.0777
     33 H9          2.2459   -3.7526   -0.3659 H         1 <0>         0.0615
     34 H10        -0.3626   -7.0681   -0.6627 H         1 <0>         0.1738
     35 H11        -0.4175   -7.6350   -3.2183 H         1 <0>         0.1977
     36 H12        -0.0243   -2.9677   -3.5591 H         1 <0>         0.1819
     37 H13        -0.0437   -0.7345   -4.5859 H         1 <0>         0.1453
     38 H14        -0.5228   -2.4957   -8.4486 H         1 <0>         0.1476
     39 H15        -0.4938   -4.7375   -7.4409 H         1 <0>         0.1481
@<TRIPOS>BOND
     1    1    2 1
     2    1   25 1
     3    1   26 1
     4    1   27 1
     5    2    7 ar
     6    2    3 ar
     7    3    4 ar
     8    3   28 1
     9    4    5 ar
    10    4   29 1
    11    5    6 ar
    12    5    9 1
    13    6    7 ar
    14    6    8 1
    15    7   30 1
    16    8   31 1
    17    8   32 1
    18    8   33 1
    19    9   10 2
    20    9   11 1
    21   11   15 2
    22   11   12 1
    23   12   13 2
    24   12   34 1
    25   13   14 1
    26   13   35 1
    27   14   15 1
    28   14   16 am
    29   16   17 2
    30   16   18 1
    31   18   23 ar
    32   18   19 ar
    33   19   20 ar
    34   19   36 1
    35   20   21 ar
    36   20   37 1
    37   21   22 ar
    38   21   24 1
    39   22   23 ar
    40   22   38 1
    41   23   39 1
@<TRIPOS>MOLECULE
ZINC00115253
   35    37     0     0     0
SMALL
USER_CHARGES
1-benzoyl-N-phenyl-pyrazole-3-carboxamide
@<TRIPOS>ATOM
      1 C1         -5.4448    3.3042    0.4714 C.ar      1 <0>        -0.0769
      2 C2         -4.9767    4.6062    0.4962 C.ar      1 <0>        -0.1355
      3 C3         -3.6253    4.8588    0.3857 C.ar      1 <0>        -0.0491
      4 C4         -2.7285    3.7966    0.2486 C.ar      1 <0>        -0.1584
      5 C5         -3.2087    2.4852    0.2185 C.ar      1 <0>        -0.0751
      6 C6         -4.5622    2.2471    0.3354 C.ar      1 <0>        -0.1369
      7 C7         -1.2806    4.0592    0.1298 C.2       1 <0>         0.5999
      8 O1         -0.8755    5.2009    0.0435 O.2       1 <0>        -0.4673
      9 N1         -0.4082    3.0319    0.1173 N.am      1 <0>        -0.3576
     10 C8          0.9513    3.1350    0.1133 C.2       1 <0>         0.0820
     11 C9          1.4607    1.8875    0.1000 C.2       1 <0>        -0.1938
     12 C10         0.3800    0.9767    0.0956 C.2       1 <0>         0.0725
     13 N2         -0.7393    1.6708    0.1003 N.2       1 <0>        -0.2441
     14 C11         0.4873   -0.4972    0.0818 C.2       1 <0>         0.5994
     15 O2          1.5814   -1.0270    0.0730 O.2       1 <0>        -0.4920
     16 N3         -0.6280   -1.2540    0.0790 N.am      1 <0>        -0.6565
     17 C12        -0.5287   -2.6451   -0.0247 C.ar      1 <0>         0.1367
     18 C13        -1.4930   -3.3616   -0.7217 C.ar      1 <0>        -0.1394
     19 C14        -1.3890   -4.7347   -0.8270 C.ar      1 <0>        -0.1015
     20 C15        -0.3327   -5.3975   -0.2293 C.ar      1 <0>        -0.1296
     21 C16         0.6260   -4.6876    0.4703 C.ar      1 <0>        -0.1014
     22 C17         0.5312   -3.3137    0.5741 C.ar      1 <0>        -0.1188
     23 H1         -6.5041    3.1121    0.5583 H         1 <0>         0.1308
     24 H2         -5.6713    5.4264    0.6020 H         1 <0>         0.1343
     25 H3         -3.2614    5.8755    0.4049 H         1 <0>         0.1371
     26 H4         -2.5213    1.6595    0.1083 H         1 <0>         0.1685
     27 H5         -4.9345    1.2334    0.3164 H         1 <0>         0.1325
     28 H6          1.5192    4.0537    0.1190 H         1 <0>         0.1990
     29 H7          2.5093    1.6294    0.0935 H         1 <0>         0.1761
     30 H8         -1.4994   -0.8338    0.1488 H         1 <0>         0.4172
     31 H9         -2.3208   -2.8451   -1.1846 H         1 <0>         0.1271
     32 H10        -2.1361   -5.2920   -1.3726 H         1 <0>         0.1282
     33 H11        -0.2560   -6.4718   -0.3093 H         1 <0>         0.1251
     34 H12         1.4500   -5.2082    0.9356 H         1 <0>         0.1279
     35 H13         1.2803   -2.7599    1.1206 H         1 <0>         0.1396
@<TRIPOS>BOND
     1    1    6 ar
     2    1    2 ar
     3    1   23 1
     4    2    3 ar
     5    2   24 1
     6    3    4 ar
     7    3   25 1
     8    4    5 ar
     9    4    7 1
    10    5    6 ar
    11    5   26 1
    12    6   27 1
    13    7    8 2
    14    7    9 am
    15    9   13 1
    16    9   10 1
    17   10   11 2
    18   10   28 1
    19   11   12 1
    20   11   29 1
    21   12   13 2
    22   12   14 1
    23   14   15 2
    24   14   16 am
    25   16   17 1
    26   16   30 1
    27   17   22 ar
    28   17   18 ar
    29   18   19 ar
    30   18   31 1
    31   19   20 ar
    32   19   32 1
    33   20   21 ar
    34   20   33 1
    35   21   22 ar
    36   21   34 1
    37   22   35 1
@<TRIPOS>MOLECULE
ZINC00037189
   30    32     0     0     0
SMALL
USER_CHARGES
[3-(2-chlorophenyl)-5-methyl-isoxazol-4-yl]-pyrazol-1-yl-methanone
@<TRIPOS>ATOM
      1 C1         -0.0716    0.9569    0.0255 C.3       1 <0>        -0.0832
      2 C2         -0.7407    1.5081    1.2582 C.2       1 <0>         0.0402
      3 C3         -0.1681    1.6858    2.4940 C.2       1 <0>        -0.2431
      4 C4         -1.2786    2.2480    3.2921 C.2       1 <0>         0.1035
      5 N1         -2.2905    2.3191    2.4654 N.2       1 <0>        -0.3210
      6 O1         -2.0044    1.9249    1.3617 O.3       1 <0>         0.1148
      7 C5         -1.2514    2.6456    4.7205 C.ar      1 <0>        -0.0207
      8 C6         -0.6958    1.7935    5.6735 C.ar      1 <0>        -0.0849
      9 C7         -0.6732    2.1686    7.0012 C.ar      1 <0>        -0.1128
     10 C8         -1.2005    3.3879    7.3881 C.ar      1 <0>        -0.0908
     11 C9         -1.7535    4.2379    6.4481 C.ar      1 <0>        -0.1107
     12 C10        -1.7764    3.8761    5.1148 C.ar      1 <0>        -0.0056
     13 Cl1        -2.4634    4.9475    3.9342 Cl        1 <0>        -0.0473
     14 C11         1.2087    1.3905    2.9181 C.2       1 <0>         0.6492
     15 O2          1.5048    0.2699    3.2836 O.2       1 <0>        -0.4612
     16 N2          2.1421    2.3626    2.9014 N.am      1 <0>        -0.3734
     17 C12         3.4663    2.2088    3.1791 C.2       1 <0>         0.0668
     18 C13         4.0540    3.4182    3.0474 C.2       1 <0>        -0.2362
     19 C14         3.0641    4.3433    2.6884 C.2       1 <0>         0.0843
     20 N3          1.9225    3.7133    2.6011 N.2       1 <0>        -0.2647
     21 H1         -0.1183   -0.1320    0.0429 H         1 <0>         0.1018
     22 H2          0.9706    1.2755    0.0046 H         1 <0>         0.0906
     23 H3         -0.5830    1.3284   -0.8624 H         1 <0>         0.0988
     24 H4         -0.2841    0.8413    5.3734 H         1 <0>         0.1338
     25 H5         -0.2426    1.5090    7.7401 H         1 <0>         0.1377
     26 H6         -1.1803    3.6768    8.4285 H         1 <0>         0.1395
     27 H7         -2.1642    5.1881    6.7560 H         1 <0>         0.1419
     28 H8          3.9580    1.2869    3.4529 H         1 <0>         0.1886
     29 H9          5.1014    3.6349    3.1970 H         1 <0>         0.1649
     30 H10         3.2187    5.3978    2.5132 H         1 <0>         0.1991
@<TRIPOS>BOND
     1    1    2 1
     2    1   21 1
     3    1   22 1
     4    1   23 1
     5    2    6 1
     6    2    3 2
     7    3    4 1
     8    3   14 1
     9    4    5 2
    10    4    7 1
    11    5    6 1
    12    7   12 ar
    13    7    8 ar
    14    8    9 ar
    15    8   24 1
    16    9   10 ar
    17    9   25 1
    18   10   11 ar
    19   10   26 1
    20   11   12 ar
    21   11   27 1
    22   12   13 1
    23   14   15 2
    24   14   16 am
    25   16   20 1
    26   16   17 1
    27   17   18 2
    28   17   28 1
    29   18   19 1
    30   18   29 1
    31   19   20 2
    32   19   30 1
@<TRIPOS>MOLECULE
ZINC00037175
   24    25     0     0     0
SMALL
USER_CHARGES
(4-chloropyrazol-1-yl)-(o-tolyl)methanone
@<TRIPOS>ATOM
      1 C1         -3.2131    6.5624   -0.1366 C.3       1 <0>        -0.1343
      2 C2         -3.7964    5.1729   -0.1450 C.ar      1 <0>        -0.0111
      3 C3         -5.1551    4.9924    0.0115 C.ar      1 <0>        -0.1418
      4 C4         -5.6915    3.7171    0.0103 C.ar      1 <0>        -0.0721
      5 C5         -4.8712    2.6145   -0.1535 C.ar      1 <0>        -0.1454
      6 C6         -3.5119    2.7804   -0.3167 C.ar      1 <0>        -0.0689
      7 C7         -2.9634    4.0651   -0.3165 C.ar      1 <0>        -0.1634
      8 C8         -1.5090    4.2507   -0.4908 C.2       1 <0>         0.6018
      9 O1         -1.0242    5.3614   -0.4081 O.2       1 <0>        -0.4675
     10 N1         -0.7193    3.1877   -0.7416 N.am      1 <0>        -0.3653
     11 C9          0.6147    3.2255   -1.0188 C.2       1 <0>         0.0982
     12 C10         1.0281    1.9527   -1.2074 C.2       1 <0>        -0.1680
     13 C11        -0.0801    1.1090   -1.0422 C.2       1 <0>         0.1068
     14 N2         -1.1239    1.8468   -0.7698 N.2       1 <0>        -0.2673
     15 Cl1         2.6460    1.4504   -1.5868 Cl        1 <0>        -0.0181
     16 H1         -3.0826    6.9079   -1.1621 H         1 <0>         0.0771
     17 H2         -3.8879    7.2365    0.3909 H         1 <0>         0.0667
     18 H3         -2.2468    6.5477    0.3676 H         1 <0>         0.0976
     19 H4         -5.8010    5.8484    0.1401 H         1 <0>         0.1328
     20 H5         -6.7553    3.5813    0.1381 H         1 <0>         0.1300
     21 H6         -5.2966    1.6217   -0.1531 H         1 <0>         0.1316
     22 H7         -2.8730    1.9191   -0.4447 H         1 <0>         0.1744
     23 H8          1.2295    4.1115   -1.0775 H         1 <0>         0.1981
     24 H9         -0.0730    0.0326   -1.1298 H         1 <0>         0.2082
@<TRIPOS>BOND
     1    1    2 1
     2    1   16 1
     3    1   17 1
     4    1   18 1
     5    2    7 ar
     6    2    3 ar
     7    3    4 ar
     8    3   19 1
     9    4    5 ar
    10    4   20 1
    11    5    6 ar
    12    5   21 1
    13    6    7 ar
    14    6   22 1
    15    7    8 1
    16    8    9 2
    17    8   10 am
    18   10   14 1
    19   10   11 1
    20   11   12 2
    21   11   23 1
    22   12   13 1
    23   12   15 1
    24   13   14 2
    25   13   24 1
@<TRIPOS>MOLECULE
ZINC00037185
   24    25     0     0     0
SMALL
USER_CHARGES
(4-bromopyrazol-1-yl)-(m-tolyl)methanone
@<TRIPOS>ATOM
      1 C1         -0.0033    1.1498   -0.0108 C.3       1 <0>        -0.1157
      2 C2         -0.7136    1.6023    1.2390 C.ar      1 <0>        -0.1028
      3 C3         -2.0850    1.7884    1.2247 C.ar      1 <0>        -0.0784
      4 C4         -2.7460    2.1981    2.3690 C.ar      1 <0>        -0.1325
      5 C5         -2.0397    2.4350    3.5300 C.ar      1 <0>        -0.0781
      6 C6         -0.6550    2.2548    3.5501 C.ar      1 <0>        -0.1535
      7 C7          0.0051    1.8354    2.3926 C.ar      1 <0>        -0.0514
      8 C8          0.1078    2.5060    4.7892 C.2       1 <0>         0.6018
      9 O1          1.2908    2.2352    4.8396 O.2       1 <0>        -0.4707
     10 N1         -0.5087    3.0356    5.8644 N.am      1 <0>        -0.3660
     11 C9          0.0891    3.4058    7.0317 C.2       1 <0>         0.1234
     12 C10        -0.8738    3.8885    7.8478 C.2       1 <0>        -0.2245
     13 C11        -2.0967    3.8136    7.1653 C.2       1 <0>         0.1186
     14 N2         -1.8777    3.3097    5.9795 N.2       1 <0>        -0.2681
     15 Br1        -0.6177    4.5477    9.6015 Br        1 <0>         0.0052
     16 H1          0.0363    0.0608   -0.0320 H         1 <0>         0.0740
     17 H2          1.0103    1.5505   -0.0179 H         1 <0>         0.0695
     18 H3         -0.5429    1.5109   -0.8863 H         1 <0>         0.0704
     19 H4         -2.6423    1.6089    0.3171 H         1 <0>         0.1299
     20 H5         -3.8169    2.3371    2.3520 H         1 <0>         0.1328
     21 H6         -2.5564    2.7588    4.4215 H         1 <0>         0.1738
     22 H7          1.0758    1.6938    2.4013 H         1 <0>         0.1360
     23 H8          1.1413    3.3280    7.2625 H         1 <0>         0.1984
     24 H9         -3.0560    4.1239    7.5523 H         1 <0>         0.2082
@<TRIPOS>BOND
     1    1    2 1
     2    1   16 1
     3    1   17 1
     4    1   18 1
     5    2    7 ar
     6    2    3 ar
     7    3    4 ar
     8    3   19 1
     9    4    5 ar
    10    4   20 1
    11    5    6 ar
    12    5   21 1
    13    6    7 ar
    14    6    8 1
    15    7   22 1
    16    8    9 2
    17    8   10 am
    18   10   14 1
    19   10   11 1
    20   11   12 2
    21   11   23 1
    22   12   13 1
    23   12   15 1
    24   13   14 2
    25   13   24 1
@<TRIPOS>MOLECULE
ZINC00037157
   26    27     0     0     0
SMALL
USER_CHARGES
(2-fluorophenyl)-(5-methyl-3-nitro-pyrazol-1-yl)-methanone
@<TRIPOS>ATOM
      1 C1          0.9631    6.5963   -0.1993 C.3       1 <0>        -0.1087
      2 C2         -0.1461    5.5764   -0.1726 C.2       1 <0>         0.1381
      3 C3         -1.4702    5.8353   -0.2414 C.2       1 <0>        -0.2073
      4 C4         -2.1538    4.6131   -0.1792 C.2       1 <0>         0.1670
      5 N1         -1.2735    3.6522   -0.0816 N.2       1 <0>        -0.2034
      6 N2          0.0045    4.2261   -0.0780 N.am      1 <0>        -0.3380
      7 C5          1.1737    3.5613    0.0095 C.2       1 <0>         0.6013
      8 O1          2.2173    4.1769    0.0973 O.2       1 <0>        -0.4397
      9 C6          1.1860    2.0865   -0.0014 C.ar      1 <0>        -0.2020
     10 C7         -0.0160    1.3737    0.0212 C.ar      1 <0>        -0.0460
     11 C8          0.0030   -0.0044    0.0104 C.ar      1 <0>        -0.1425
     12 C9          1.2086   -0.6849   -0.0233 C.ar      1 <0>        -0.0423
     13 C10         2.4029    0.0105   -0.0458 C.ar      1 <0>        -0.1705
     14 C11         2.4012    1.3935   -0.0344 C.ar      1 <0>         0.1727
     15 F1          3.5687    2.0730   -0.0556 F         1 <0>        -0.1139
     16 N3         -3.6234    4.4403   -0.2171 N.pl3     1 <0>         0.0464
     17 O2         -4.1071    3.3241   -0.1555 O.2       1 <0>        -0.1106
     18 O3         -4.3490    5.4142   -0.3099 O.3       1 <0>        -0.1095
     19 H1          1.2680    6.7745   -1.2305 H         1 <0>         0.0992
     20 H2          0.6101    7.5286    0.2415 H         1 <0>         0.1009
     21 H3          1.8133    6.2234    0.3718 H         1 <0>         0.1025
     22 H4         -1.9226    6.8124   -0.3255 H         1 <0>         0.1907
     23 H5         -0.9578    1.9017    0.0425 H         1 <0>         0.1768
     24 H6         -0.9257   -0.5555    0.0278 H         1 <0>         0.1444
     25 H7          1.2157   -1.7648   -0.0323 H         1 <0>         0.1449
     26 H8          3.3392   -0.5271   -0.0720 H         1 <0>         0.1497
@<TRIPOS>BOND
     1    1    2 1
     2    1   19 1
     3    1   20 1
     4    1   21 1
     5    2    6 1
     6    2    3 2
     7    3    4 1
     8    3   22 1
     9    4    5 2
    10    4   16 1
    11    5    6 1
    12    6    7 am
    13    7    8 2
    14    7    9 1
    15    9   14 ar
    16    9   10 ar
    17   10   11 ar
    18   10   23 1
    19   11   12 ar
    20   11   24 1
    21   12   13 ar
    22   12   25 1
    23   13   14 ar
    24   13   26 1
    25   14   15 1
    26   16   17 2
    27   16   18 1
@<TRIPOS>MOLECULE
ZINC00037171
   21    22     0     0     0
SMALL
USER_CHARGES
(4-bromopyrazol-1-yl)-(2,6-difluorophenyl)-methanone
@<TRIPOS>ATOM
      1 C1          5.5653    3.5481   -0.0260 C.ar      1 <0>        -0.0332
      2 C2          5.0956    4.8477    0.0359 C.ar      1 <0>        -0.1605
      3 C3          3.7361    5.0956    0.0482 C.ar      1 <0>         0.1756
      4 C4          2.8335    4.0264   -0.0021 C.ar      1 <0>        -0.2004
      5 C5          3.3182    2.7142   -0.0587 C.ar      1 <0>         0.1743
      6 C6          4.6811    2.4857   -0.0755 C.ar      1 <0>        -0.1605
      7 F1          2.4563    1.6747   -0.1015 F         1 <0>        -0.1205
      8 C7          1.3822    4.2805    0.0105 C.2       1 <0>         0.6151
      9 O1          0.8000    4.4255    1.0671 O.2       1 <0>        -0.4452
     10 N1          0.7005    4.3522   -1.1499 N.am      1 <0>        -0.3691
     11 C8         -0.6492    4.4849   -1.2817 C.2       1 <0>         0.1176
     12 C9         -0.9279    4.5242   -2.6035 C.2       1 <0>        -0.2182
     13 C10         0.2808    4.4036   -3.3042 C.2       1 <0>         0.1177
     14 N2          1.2529    4.3043   -2.4365 N.2       1 <0>        -0.2567
     15 Br1        -2.6459    4.7056   -3.3727 Br        1 <0>         0.0081
     16 F2          3.2794    6.3656    0.1082 F         1 <0>        -0.1197
     17 H1          6.6291    3.3619   -0.0352 H         1 <0>         0.1553
     18 H2          5.7933    5.6711    0.0742 H         1 <0>         0.1556
     19 H3          5.0568    1.4743   -0.1233 H         1 <0>         0.1554
     20 H4         -1.3655    4.5512   -0.4762 H         1 <0>         0.1995
     21 H5          0.3901    4.3984   -4.3786 H         1 <0>         0.2097
@<TRIPOS>BOND
     1    1    6 ar
     2    1    2 ar
     3    1   17 1
     4    2    3 ar
     5    2   18 1
     6    3    4 ar
     7    3   16 1
     8    4    5 ar
     9    4    8 1
    10    5    6 ar
    11    5    7 1
    12    6   19 1
    13    8    9 2
    14    8   10 am
    15   10   14 1
    16   10   11 1
    17   11   12 2
    18   11   20 1
    19   12   13 1
    20   12   15 1
    21   13   14 2
    22   13   21 1
