@<TRIPOS>MOLECULE
ZINC49792055
   85    86     0     0     0
SMALL
USER_CHARGES

@<TRIPOS>ATOM
      1 C1         -1.2800    1.7819   -0.9304 C.3       1 <0>        -0.1391
      2 C2         -0.9342    0.2901   -1.0056 C.3       1 <0>        -0.1018
      3 H1         -1.7564   -0.2918   -0.6095 H         1 <0>         0.0901
      4 C3         -0.6725   -0.0847   -2.4661 C.3       1 <0>        -0.1300
      5 C4         -1.9444   -0.4896   -3.1987 C.3       1 <0>         0.1043
      6 H2         -2.1341    0.2297   -4.0017 H         1 <0>         0.0908
      7 C5         -1.7814   -1.8802   -3.8197 C.3       1 <0>         0.0765
      8 H3         -1.8067   -2.6341   -3.0359 H         1 <0>         0.0685
      9 C6         -2.9237   -2.1388   -4.8110 C.3       1 <0>        -0.0878
     10 H4         -3.4940   -1.2245   -4.9340 H         1 <0>         0.0888
     11 C7         -3.7772   -3.2720   -4.3216 C.2       1 <0>        -0.1476
     12 C8         -5.0549   -3.1792   -4.0657 C.2       1 <0>        -0.1043
     13 C9         -5.7902   -4.3986   -3.5505 C.3       1 <0>         0.1378
     14 H5         -5.5244   -5.2590   -4.1609 H         1 <0>         0.0978
     15 C10        -5.3940   -4.6630   -2.0950 C.3       1 <0>         0.1047
     16 H6         -4.9838   -5.6742   -2.0162 H         1 <0>         0.0918
     17 C11        -6.5918   -4.5383   -1.1944 C.2       1 <0>        -0.1246
     18 C12        -6.4935   -4.0910    0.0581 C.2       1 <0>        -0.1225
     19 C13        -5.2151   -3.7314    0.6390 C.2       1 <0>        -0.0260
     20 C14        -5.0502   -2.6929    1.4839 C.2       1 <0>        -0.1720
     21 C15        -3.6922   -2.4189    1.9679 C.2       1 <0>         0.5236
     22 O1         -2.8544   -3.2892    1.7711 O.2       1 <0>        -0.4923
     23 N1         -3.3563   -1.3225    2.6091 N.2       1 <0>        -0.5245
     24 C16        -2.2518   -0.6353    2.4375 C.2       1 <0>         0.2771
     25 C17        -2.0167    0.4867    3.2672 C.2       1 <0>        -0.2432
     26 C18        -0.9035    1.2487    3.1110 C.2       1 <0>         0.1735
     27 O2         -0.7219    2.3251    3.9094 O.3       1 <0>        -0.4523
     28 C19         0.1168    0.9303    2.1051 C.2       1 <0>         0.1840
     29 C20         0.0444   -0.2995    1.2586 C.3       1 <0>        -0.0682
     30 C21         0.3419    0.0300   -0.1968 C.3       1 <0>        -0.1009
     31 C22        -1.2687   -1.0085    1.3983 C.2       1 <0>         0.3476
     32 O3         -1.5103   -1.9075    0.6284 O.2       1 <0>        -0.3765
     33 N2          1.1166    1.7362    1.9613 N.2       1 <0>        -0.4419
     34 C23         1.2343    2.9178    2.8193 C.3       1 <0>         0.0612
     35 C24         2.4711    3.6917    2.4416 C.2       1 <0>        -0.1455
     36 C25         2.3795    4.9602    2.1276 C.2       1 <0>        -0.1802
     37 C26        -6.2079   -1.8390    1.9141 C.3       1 <0>        -0.1050
     38 O4         -4.3861   -3.7198   -1.7241 O.3       1 <0>        -0.3410
     39 C27        -3.1206   -4.3104   -1.4211 C.3       1 <0>        -0.0053
     40 O5         -7.1943   -4.1617   -3.6400 O.3       1 <0>        -0.3452
     41 C28        -7.8034   -4.5233   -4.7850 C.2       1 <0>         0.6481
     42 O6         -7.1585   -5.0265   -5.6835 O.2       1 <0>        -0.5685
     43 N3         -9.1284   -4.3271   -4.9345 N.am      1 <0>        -0.8257
     44 C29        -5.8184   -1.8968   -4.2741 C.3       1 <0>        -0.1100
     45 C30        -2.3152   -2.5259   -6.1659 C.3       1 <0>        -0.1433
     46 O7         -0.5351   -1.9529   -4.5160 O.3       1 <0>        -0.5576
     47 O8         -3.0643   -0.4966   -2.3149 O.3       1 <0>        -0.3726
     48 C31        -3.2649   -1.7405   -1.6407 C.3       1 <0>        -0.0203
     49 H7         -0.4204    2.3707   -1.2508 H         1 <0>         0.0528
     50 H8         -2.1276    1.9917   -1.5828 H         1 <0>         0.0599
     51 H9         -1.5377    2.0438    0.0957 H         1 <0>         0.0411
     52 H10        -0.2233    0.7745   -2.9737 H         1 <0>         0.0672
     53 H11         0.0426   -0.9105   -2.4915 H         1 <0>         0.0738
     54 H12        -3.3053   -4.2486   -4.1710 H         1 <0>         0.0985
     55 H13        -7.5735   -4.8361   -1.5580 H         1 <0>         0.1335
     56 H14        -7.4011   -4.0076    0.6520 H         1 <0>         0.1247
     57 H15        -4.3384   -4.3398    0.4155 H         1 <0>         0.1332
     58 H16        -2.7358    0.7290    4.0358 H         1 <0>         0.1563
     59 H17         0.8886   -0.8029   -0.6547 H         1 <0>         0.0793
     60 H18         0.9797    0.9195   -0.2536 H         1 <0>         0.0950
     61 H19         0.8324   -0.9904    1.6041 H         1 <0>         0.1364
     62 H20         0.3561    3.5503    2.6892 H         1 <0>         0.0937
     63 H21         1.3055    2.6048    3.8609 H         1 <0>         0.1001
     64 H22         3.4328    3.2005    2.4299 H         1 <0>         0.1136
     65 H23         3.2659    5.5148    1.8569 H         1 <0>         0.1026
     66 H24         1.4178    5.4514    2.1393 H         1 <0>         0.0959
     67 H25        -6.6517   -2.2570    2.8177 H         1 <0>         0.0684
     68 H26        -5.8576   -0.8268    2.1161 H         1 <0>         0.0684
     69 H27        -6.9550   -1.8134    1.1208 H         1 <0>         0.0657
     70 H28        -2.4578   -3.5539   -1.0011 H         1 <0>         0.1118
     71 H29        -3.2586   -5.1144   -0.6981 H         1 <0>         0.0517
     72 H30        -2.6802   -4.7135   -2.3330 H         1 <0>         0.0438
     73 H31        -9.6432   -3.9254   -4.2172 H         1 <0>         0.4089
     74 H32        -9.5672   -4.5876   -5.7594 H         1 <0>         0.4267
     75 H33        -6.2807   -1.9055   -5.2612 H         1 <0>         0.0581
     76 H34        -6.5918   -1.8064   -3.5114 H         1 <0>         0.0673
     77 H35        -5.1349   -1.0510   -4.2004 H         1 <0>         0.0719
     78 H36        -1.7129   -3.4268   -6.0496 H         1 <0>         0.0524
     79 H37        -3.1146   -2.7133   -6.8829 H         1 <0>         0.0573
     80 H38        -1.6862   -1.7124   -6.5274 H         1 <0>         0.0690
     81 H39        -0.3676   -2.8085   -4.9342 H         1 <0>         0.3786
     82 H40        -2.4593   -1.8993   -0.9239 H         1 <0>         0.0630
     83 H41        -4.2197   -1.7191   -1.1153 H         1 <0>         0.0839
     84 H42        -3.2688   -2.5518   -2.3686 H         1 <0>         0.0998
     85 H43        -1.4327    2.4639    4.5502 H         1 <0>         0.4053
@<TRIPOS>BOND
     1    1    2 1
     2    1   49 1
     3    1   50 1
     4    1   51 1
     5    2    3 1
     6    2   30 1
     7    2    4 1
     8    4    5 1
     9    4   52 1
    10    4   53 1
    11    5    6 1
    12    5    7 1
    13    5   47 1
    14    7    8 1
    15    7    9 1
    16    7   46 1
    17    9   10 1
    18    9   11 1
    19    9   45 1
    20   11   12 2
    21   11   54 1
    22   12   13 1
    23   12   44 1
    24   13   14 1
    25   13   15 1
    26   13   40 1
    27   15   16 1
    28   15   17 1
    29   15   38 1
    30   17   18 2
    31   17   55 1
    32   18   19 1
    33   18   56 1
    34   19   20 2
    35   19   57 1
    36   20   21 1
    37   20   37 1
    38   21   22 2
    39   21   23 1
    40   23   24 2
    41   24   31 1
    42   24   25 1
    43   25   26 2
    44   25   58 1
    45   26   27 1
    46   26   28 1
    47   27   85 1
    48   28   33 2
    49   28   29 1
    50   29   30 1
    51   29   31 1
    52   29   61 1
    53   30   59 1
    54   30   60 1
    55   31   32 2
    56   33   34 1
    57   34   35 1
    58   34   62 1
    59   34   63 1
    60   35   36 2
    61   35   64 1
    62   36   65 1
    63   36   66 1
    64   37   67 1
    65   37   68 1
    66   37   69 1
    67   38   39 1
    68   39   70 1
    69   39   71 1
    70   39   72 1
    71   40   41 1
    72   41   42 2
    73   41   43 am
    74   43   73 1
    75   43   74 1
    76   44   75 1
    77   44   76 1
    78   44   77 1
    79   45   78 1
    80   45   79 1
    81   45   80 1
    82   46   81 1
    83   47   48 1
    84   48   82 1
    85   48   83 1
    86   48   84 1
@<TRIPOS>MOLECULE
ZINC34717850
   93    94     0     0     0
SMALL
USER_CHARGES

@<TRIPOS>ATOM
      1 C1         -0.1042    1.6868    0.2662 C.3       1 <0>        -0.1385
      2 C2         -0.0480    0.1555    0.2967 C.3       1 <0>        -0.0803
      3 H1         -1.0593   -0.2472    0.2572 H         1 <0>         0.0951
      4 C3          0.7550   -0.3466   -0.9030 C.3       1 <0>        -0.1308
      5 C4         -0.1684   -0.6336   -2.0893 C.3       1 <0>         0.1033
      6 H2          0.4464   -0.8163   -2.9759 H         1 <0>         0.0622
      7 C5         -1.0324   -1.8635   -1.8270 C.3       1 <0>         0.1154
      8 H3         -1.5729   -1.7503   -0.8870 H         1 <0>         0.0746
      9 C6         -2.0569   -2.0383   -2.9579 C.3       1 <0>        -0.0875
     10 H4         -2.0289   -1.1714   -3.6050 H         1 <0>         0.0905
     11 C7         -3.4165   -2.2502   -2.3555 C.2       1 <0>        -0.1174
     12 C8         -4.4932   -1.6226   -2.7384 C.2       1 <0>        -0.1311
     13 C9         -5.7960   -1.9375   -2.0365 C.3       1 <0>         0.1175
     14 H5         -6.0487   -2.9838   -2.2191 H         1 <0>         0.1014
     15 C10        -5.6240   -1.7113   -0.5367 C.3       1 <0>         0.1200
     16 H6         -5.4162   -2.6698   -0.0548 H         1 <0>         0.1262
     17 C11        -6.8651   -1.1098    0.0658 C.2       1 <0>        -0.1420
     18 C12        -6.8419   -0.6907    1.3414 C.2       1 <0>        -0.1248
     19 C13        -5.6367   -0.8612    2.1288 C.2       1 <0>        -0.0098
     20 C14        -5.2427   -0.0148    3.1110 C.2       1 <0>        -0.1767
     21 C15        -3.9983   -0.3232    3.7934 C.2       1 <0>         0.5177
     22 O1         -3.6357   -1.4931    3.6989 O.2       1 <0>        -0.4775
     23 N1         -3.2438    0.4951    4.5069 N.2       1 <0>        -0.4794
     24 C16        -1.9950    0.7406    4.2652 C.2       1 <0>         0.2095
     25 C17        -1.2284    1.6484    5.1860 C.3       1 <0>        -0.1241
     26 C18         0.1371    2.0001    4.6650 C.2       1 <0>         0.4137
     27 O2          0.7796    2.8549    5.2190 O.2       1 <0>        -0.4358
     28 C19         0.7109    1.3218    3.4874 C.2       1 <0>         0.1525
     29 C20         0.0109    0.4201    2.7671 C.2       1 <0>        -0.2068
     30 C21         0.6256   -0.3033    1.5947 C.3       1 <0>        -0.0552
     31 C22        -1.3379    0.1147    3.0999 C.2       1 <0>         0.3680
     32 O3         -1.9359   -0.6687    2.3886 O.2       1 <0>        -0.3768
     33 N2          2.0032    1.6407    3.1387 N.pl3     1 <0>        -0.7112
     34 C23         2.7541    2.6207    3.9273 C.3       1 <0>         0.0998
     35 C24         4.1529    2.7908    3.3314 C.3       1 <0>        -0.0309
     36 N3          4.9059    3.7735    4.1222 N.4       1 <0>        -0.3811
     37 C25         6.2858    3.8489    3.6242 C.3       1 <0>        -0.0469
     38 C26         4.2687    5.0915    4.0006 C.3       1 <0>        -0.0560
     39 C27        -6.0588    1.1944    3.4766 C.3       1 <0>        -0.1071
     40 O4         -4.5157   -0.8320   -0.3215 O.3       1 <0>        -0.3471
     41 C28        -4.7380    0.5050   -0.7745 C.3       1 <0>         0.0246
     42 O5         -6.8259   -1.0954   -2.5506 O.3       1 <0>        -0.3510
     43 C29        -7.5203   -1.5552   -3.6085 C.2       1 <0>         0.6474
     44 O6         -7.2572   -2.6431   -4.0815 O.2       1 <0>        -0.5655
     45 N4         -8.5071   -0.8088   -4.1429 N.am      1 <0>        -0.8261
     46 C30        -4.4872   -0.6005   -3.8420 C.3       1 <0>        -0.1117
     47 C31        -1.6772   -3.2826   -3.7737 C.3       1 <0>        -0.1397
     48 O7         -0.2138   -3.0322   -1.7626 O.3       1 <0>        -0.5641
     49 O8         -1.0048    0.4990   -2.3364 O.3       1 <0>        -0.3667
     50 C32        -0.4479    1.4440   -3.2523 C.3       1 <0>         0.0304
     51 H7          0.9083    2.0884    0.3059 H         1 <0>         0.0385
     52 H8         -0.5893    2.0143   -0.6533 H         1 <0>         0.0677
     53 H9         -0.6717    2.0467    1.1244 H         1 <0>         0.0435
     54 H10         1.4886    0.4088   -1.1932 H         1 <0>         0.0581
     55 H11         1.2908   -1.2646   -0.6238 H         1 <0>         0.0802
     56 H12        -3.5097   -2.9736   -1.5410 H         1 <0>         0.1025
     57 H13        -7.7761   -1.0139   -0.5029 H         1 <0>         0.1327
     58 H14        -7.7229   -0.2410    1.7692 H         1 <0>         0.1290
     59 H15        -5.0081   -1.7348    1.9427 H         1 <0>         0.1350
     60 H16        -1.7925    2.5637    5.3357 H         1 <0>         0.1482
     61 H17        -1.1171    1.1425    6.1472 H         1 <0>         0.1513
     62 H18         0.4815   -1.3796    1.7159 H         1 <0>         0.0848
     63 H19         1.6989   -0.0993    1.5355 H         1 <0>         0.0594
     64 H20         2.4170    1.2166    2.3706 H         1 <0>         0.4136
     65 H21         2.2327    3.5777    3.9094 H         1 <0>         0.0986
     66 H22         2.8375    2.2716    4.9565 H         1 <0>         0.0927
     67 H23         4.6743    1.8338    3.3493 H         1 <0>         0.1370
     68 H24         4.0694    3.1399    2.3022 H         1 <0>         0.1360
     69 H25         6.2783    4.1536    2.5777 H         1 <0>         0.1232
     70 H26         6.8445    4.5780    4.2110 H         1 <0>         0.1283
     71 H27         6.7586    2.8709    3.7145 H         1 <0>         0.1248
     72 H28         4.2612    5.3963    2.9541 H         1 <0>         0.1238
     73 H29         3.2448    5.0356    4.3701 H         1 <0>         0.1279
     74 H30         4.8274    5.8207    4.5874 H         1 <0>         0.1285
     75 H31        -6.7747    0.9281    4.2542 H         1 <0>         0.0731
     76 H32        -5.3991    1.9805    3.8439 H         1 <0>         0.0652
     77 H33        -6.5941    1.5511    2.5966 H         1 <0>         0.0685
     78 H34        -3.8117    1.0741   -0.6954 H         1 <0>         0.0791
     79 H35        -5.0656    0.4867   -1.8139 H         1 <0>         0.0589
     80 H36        -5.5061    0.9739   -0.1596 H         1 <0>         0.0359
     81 H37        -8.7170    0.0597   -3.7653 H         1 <0>         0.4083
     82 H38        -9.0073   -1.1401   -4.9051 H         1 <0>         0.4277
     83 H39        -3.4631   -0.4309   -4.1745 H         1 <0>         0.0681
     84 H40        -5.0849   -0.9645   -4.6776 H         1 <0>         0.0585
     85 H41        -4.9091    0.3345   -3.4735 H         1 <0>         0.0674
     86 H42        -1.6865   -4.1588   -3.1254 H         1 <0>         0.0552
     87 H43        -2.3957   -3.4207   -4.5815 H         1 <0>         0.0546
     88 H44        -0.6797   -3.1516   -4.1931 H         1 <0>         0.0610
     89 H45        -0.7056   -3.8483   -1.5978 H         1 <0>         0.3854
     90 H46         0.4954    1.8209   -2.8568 H         1 <0>         0.0384
     91 H47        -0.2714    0.9589   -4.2123 H         1 <0>         0.0420
     92 H48        -1.1428    2.2730   -3.3864 H         1 <0>         0.0865
     93 H49         4.9128    3.4914    5.0909 H         1 <0>         0.4304
@<TRIPOS>BOND
     1    1    2 1
     2    1   51 1
     3    1   52 1
     4    1   53 1
     5    2    3 1
     6    2   30 1
     7    2    4 1
     8    4    5 1
     9    4   54 1
    10    4   55 1
    11    5    6 1
    12    5    7 1
    13    5   49 1
    14    7    8 1
    15    7    9 1
    16    7   48 1
    17    9   10 1
    18    9   11 1
    19    9   47 1
    20   11   12 2
    21   11   56 1
    22   12   13 1
    23   12   46 1
    24   13   14 1
    25   13   15 1
    26   13   42 1
    27   15   16 1
    28   15   17 1
    29   15   40 1
    30   17   18 2
    31   17   57 1
    32   18   19 1
    33   18   58 1
    34   19   20 2
    35   19   59 1
    36   20   21 1
    37   20   39 1
    38   21   22 2
    39   21   23 1
    40   23   24 2
    41   24   31 1
    42   24   25 1
    43   25   26 1
    44   25   60 1
    45   25   61 1
    46   26   27 2
    47   26   28 1
    48   28   29 2
    49   28   33 1
    50   29   30 1
    51   29   31 1
    52   30   62 1
    53   30   63 1
    54   31   32 2
    55   33   34 1
    56   33   64 1
    57   34   35 1
    58   34   65 1
    59   34   66 1
    60   35   36 1
    61   35   67 1
    62   35   68 1
    63   36   37 1
    64   36   38 1
    65   36   93 1
    66   37   69 1
    67   37   70 1
    68   37   71 1
    69   38   72 1
    70   38   73 1
    71   38   74 1
    72   39   75 1
    73   39   76 1
    74   39   77 1
    75   40   41 1
    76   41   78 1
    77   41   79 1
    78   41   80 1
    79   42   43 1
    80   43   44 2
    81   43   45 am
    82   45   81 1
    83   45   82 1
    84   46   83 1
    85   46   84 1
    86   46   85 1
    87   47   86 1
    88   47   87 1
    89   47   88 1
    90   48   89 1
    91   49   50 1
    92   50   90 1
    93   50   91 1
    94   50   92 1
@<TRIPOS>MOLECULE
ZINC34717850
   92    93     0     0     0
SMALL
USER_CHARGES

@<TRIPOS>ATOM
      1 C1         -0.0187    1.5266    0.0104 C.3       1 <0>        -0.1368
      2 C2          0.0021   -0.0041    0.0020 C.3       1 <0>        -0.0796
      3 H1         -1.0185   -0.3804    0.0097 H         1 <0>         0.0943
      4 C3          0.7240   -0.4969   -1.2509 C.3       1 <0>        -0.1343
      5 C4         -0.2843   -0.9523   -2.3042 C.3       1 <0>         0.1029
      6 H2          0.2253   -1.0504   -3.2677 H         1 <0>         0.0598
      7 C5         -0.8822   -2.3056   -1.9193 C.3       1 <0>         0.1144
      8 H3         -1.4193   -2.2192   -0.9773 H         1 <0>         0.0744
      9 C6         -1.8534   -2.7617   -3.0178 C.3       1 <0>        -0.0899
     10 H4         -1.9714   -1.9528   -3.7330 H         1 <0>         0.0894
     11 C7         -3.1676   -3.1357   -2.3924 C.2       1 <0>        -0.1183
     12 C8         -4.3184   -2.9853   -2.9930 C.2       1 <0>        -0.1504
     13 C9         -5.5785   -3.4112   -2.2750 C.3       1 <0>         0.1580
     14 H5         -5.3220   -4.1437   -1.5094 H         1 <0>         0.1009
     15 C10        -6.2428   -2.2011   -1.6180 C.3       1 <0>         0.1183
     16 H6         -5.4757   -1.5275   -1.2461 H         1 <0>         0.0957
     17 C11        -7.1382   -2.6589   -0.4983 C.2       1 <0>        -0.1378
     18 C12        -6.8702   -2.3762    0.7788 C.2       1 <0>        -0.1287
     19 C13        -5.6921   -1.6039    1.1361 C.2       1 <0>        -0.0413
     20 C14        -5.3024   -1.3883    2.4171 C.2       1 <0>        -0.1685
     21 C15        -4.1046   -0.5863    2.6091 C.2       1 <0>         0.5531
     22 O1         -3.6070   -0.0982    1.6052 O.2       1 <0>        -0.4924
     23 N1         -3.5308   -0.3092    3.7909 N.am      1 <0>        -0.6602
     24 C16        -2.1862    0.0334    3.7490 C.2       1 <0>         0.1672
     25 C17        -1.6516    0.8547    4.6809 C.2       1 <0>        -0.2474
     26 C18        -0.2543    1.2726    4.5451 C.2       1 <0>         0.4238
     27 O2          0.2543    1.9892    5.3851 O.2       1 <0>        -0.4219
     28 C19         0.5442    0.8192    3.3684 C.2       1 <0>         0.1914
     29 C20        -0.0056   -0.0307    2.4749 C.2       1 <0>        -0.2762
     30 C21         0.7393   -0.5052    1.2511 C.3       1 <0>        -0.0407
     31 C22        -1.3303   -0.5067    2.6650 C.2       1 <0>         0.4314
     32 O3         -1.7334   -1.3995    1.9422 O.2       1 <0>        -0.4225
     33 N2          1.8365    1.2652    3.2222 N.pl3     1 <0>        -0.6933
     34 C23         2.4142    2.1747    4.2149 C.3       1 <0>         0.1191
     35 C24         3.8525    2.5146    3.8191 C.3       1 <0>         0.0389
     36 N3          4.4318    3.4265    4.8145 N.3       1 <0>        -0.5413
     37 C25         5.8763    3.5886    4.6023 C.3       1 <0>         0.0241
     38 C26         3.7482    4.7267    4.7981 C.3       1 <0>         0.0170
     39 C27        -6.0647   -1.9520    3.5806 C.3       1 <0>        -0.1211
     40 O4         -7.0339   -1.5122   -2.5923 O.3       1 <0>        -0.3575
     41 C28        -7.1428   -0.1058   -2.3636 C.3       1 <0>         0.0244
     42 O5         -6.4798   -4.0004   -3.2136 O.3       1 <0>        -0.3340
     43 C29        -6.3812   -5.3295   -3.4042 C.2       1 <0>         0.6452
     44 O6         -5.5522   -5.9715   -2.7900 O.2       1 <0>        -0.5715
     45 N4         -7.2019   -5.9480   -4.2761 N.am      1 <0>        -0.8264
     46 C30        -4.4228   -2.4038   -4.3783 C.3       1 <0>        -0.1049
     47 C31        -1.2572   -3.9845   -3.7240 C.3       1 <0>        -0.1347
     48 O7          0.1619   -3.2725   -1.7893 O.3       1 <0>        -0.5598
     49 O8         -1.3288    0.0137   -2.4296 O.3       1 <0>        -0.3673
     50 C32        -1.0698    1.0268   -3.4036 C.3       1 <0>         0.0320
     51 H7          1.0039    1.9039    0.0027 H         1 <0>         0.0406
     52 H8         -0.5459    1.8877   -0.8726 H         1 <0>         0.0548
     53 H9         -0.5289    1.8781    0.9072 H         1 <0>         0.0485
     54 H10         1.3296    0.3170   -1.6577 H         1 <0>         0.0575
     55 H11         1.3822   -1.3253   -0.9874 H         1 <0>         0.0824
     56 H12        -3.1642   -3.5545   -1.3867 H         1 <0>         0.1055
     57 H13        -8.0276   -3.2353   -0.7299 H         1 <0>         0.1287
     58 H14        -7.5533   -2.7300    1.5403 H         1 <0>         0.1303
     59 H15        -5.0744   -1.1655    0.3556 H         1 <0>         0.1365
     60 H16        -4.0236   -0.3407    4.6345 H         1 <0>         0.4239
     61 H17         0.7564   -1.5981    1.2409 H         1 <0>         0.0755
     62 H18         1.7581   -0.1305    1.2429 H         1 <0>         0.0578
     63 H19         2.3657    0.9778    2.4618 H         1 <0>         0.4080
     64 H20         1.8231    3.0895    4.2571 H         1 <0>         0.0762
     65 H21         2.4105    1.6943    5.1933 H         1 <0>         0.0877
     66 H22         4.4436    1.5998    3.7769 H         1 <0>         0.0815
     67 H23         3.8562    2.9950    2.8407 H         1 <0>         0.0408
     68 H24         6.0538    3.9982    3.6079 H         1 <0>         0.0272
     69 H25         6.2797    4.2684    5.3527 H         1 <0>         0.0729
     70 H26         6.3672    2.6192    4.6889 H         1 <0>         0.0703
     71 H27         2.6920    4.5848    5.0271 H         1 <0>         0.0738
     72 H28         4.1967    5.3824    5.5444 H         1 <0>         0.0722
     73 H29         3.8486    5.1776    3.8109 H         1 <0>         0.0273
     74 H30        -6.9198   -2.5198    3.2139 H         1 <0>         0.0768
     75 H31        -5.4134   -2.6082    4.1580 H         1 <0>         0.0737
     76 H32        -6.4144   -1.1374    4.2149 H         1 <0>         0.0715
     77 H33        -6.1496    0.3429   -2.3802 H         1 <0>         0.0451
     78 H34        -7.7572    0.3427   -3.1443 H         1 <0>         0.0893
     79 H35        -7.6046    0.0696   -1.3920 H         1 <0>         0.0416
     80 H36        -7.8636   -5.4356   -4.7664 H         1 <0>         0.4091
     81 H37        -7.1308   -6.9057   -4.4134 H         1 <0>         0.4253
     82 H38        -3.4265   -2.1559   -4.7443 H         1 <0>         0.0616
     83 H39        -4.8838   -3.1329   -5.0446 H         1 <0>         0.0616
     84 H40        -5.0338   -1.5016   -4.3485 H         1 <0>         0.0701
     85 H41        -1.1128   -4.7872   -3.0008 H         1 <0>         0.0562
     86 H42        -1.9373   -4.3192   -4.5072 H         1 <0>         0.0531
     87 H43        -0.2975   -3.7168   -4.1660 H         1 <0>         0.0635
     88 H44        -0.1479   -4.1556   -1.5460 H         1 <0>         0.3826
     89 H45        -1.9095    1.7208   -3.4381 H         1 <0>         0.0853
     90 H46        -0.1626    1.5672   -3.1332 H         1 <0>         0.0409
     91 H47        -0.9395    0.5650   -4.3823 H         1 <0>         0.0392
     92 H48        -2.2590    1.2126    5.4983 H         1 <0>         0.1566
@<TRIPOS>BOND
     1    1    2 1
     2    1   51 1
     3    1   52 1
     4    1   53 1
     5    2    3 1
     6    2   30 1
     7    2    4 1
     8    4    5 1
     9    4   54 1
    10    4   55 1
    11    5    6 1
    12    5    7 1
    13    5   49 1
    14    7    8 1
    15    7    9 1
    16    7   48 1
    17    9   10 1
    18    9   11 1
    19    9   47 1
    20   11   12 2
    21   11   56 1
    22   12   13 1
    23   12   46 1
    24   13   14 1
    25   13   15 1
    26   13   42 1
    27   15   16 1
    28   15   17 1
    29   15   40 1
    30   17   18 2
    31   17   57 1
    32   18   19 1
    33   18   58 1
    34   19   20 2
    35   19   59 1
    36   20   21 1
    37   20   39 1
    38   21   22 2
    39   21   23 am
    40   23   24 1
    41   23   60 1
    42   24   31 1
    43   24   25 2
    44   25   92 1
    45   25   26 1
    46   26   27 2
    47   26   28 1
    48   28   33 1
    49   28   29 2
    50   29   31 1
    51   29   30 1
    52   30   61 1
    53   30   62 1
    54   31   32 2
    55   33   63 1
    56   33   34 1
    57   34   35 1
    58   34   64 1
    59   34   65 1
    60   35   36 1
    61   35   66 1
    62   35   67 1
    63   36   37 1
    64   36   38 1
    65   37   68 1
    66   37   69 1
    67   37   70 1
    68   38   71 1
    69   38   72 1
    70   38   73 1
    71   39   74 1
    72   39   75 1
    73   39   76 1
    74   40   41 1
    75   41   77 1
    76   41   78 1
    77   41   79 1
    78   42   43 1
    79   43   44 2
    80   43   45 am
    81   45   80 1
    82   45   81 1
    83   46   82 1
    84   46   83 1
    85   46   84 1
    86   47   85 1
    87   47   86 1
    88   47   87 1
    89   48   88 1
    90   49   50 1
    91   50   89 1
    92   50   90 1
    93   50   91 1
