@<TRIPOS>MOLECULE
ZINC13520815
   44    47     0     0     0
SMALL
USER_CHARGES

@<TRIPOS>ATOM
      1 C1         -0.0187    1.5258    0.0104 C.3       1 <0>        -0.1354
      2 C2          0.0021   -0.0041    0.0020 C.3       1 <0>        -0.0564
      3 C3         -1.4142   -0.5425    0.0489 C.3       1 <0>        -0.1016
      4 C4         -2.0973    0.0441    1.2987 C.3       1 <0>        -0.1130
      5 C5         -1.3125   -0.3073    2.5542 C.3       1 <0>        -0.0424
      6 H1         -1.3075   -1.3927    2.6533 H         1 <0>         0.0765
      7 C6         -1.9424    0.2651    3.7900 C.ar      1 <0>        -0.0773
      8 C7         -3.3273    0.3484    3.8443 C.ar      1 <0>        -0.1030
      9 C8         -3.9576    0.8569    4.9598 C.ar      1 <0>        -0.1472
     10 C9         -3.2003    1.2884    6.0396 C.ar      1 <0>         0.1024
     11 C10        -1.8198    1.2087    5.9840 C.ar      1 <0>        -0.1480
     12 C11        -1.1856    0.7013    4.8579 C.ar      1 <0>        -0.0577
     13 C12         0.3200    0.6669    4.8604 C.3       1 <0>        -0.0825
     14 C13         0.8561   -0.2331    3.7476 C.3       1 <0>        -0.1135
     15 C14         0.1446    0.1628    2.4542 C.3       1 <0>        -0.0739
     16 H2          0.1741    1.2443    2.3212 H         1 <0>         0.0865
     17 C15         0.7512   -0.5345    1.2564 C.3       1 <0>        -0.0835
     18 H3          0.6224   -1.6140    1.3350 H         1 <0>         0.0754
     19 C16         2.2091   -0.2046    0.9567 C.3       1 <0>        -0.1120
     20 C17         2.3296   -0.2454   -0.5872 C.3       1 <0>        -0.1564
     21 C18         0.8992   -0.5108   -1.1319 C.3       1 <0>         0.1090
     22 H4          0.7424   -1.5760   -1.3012 H         1 <0>         0.0609
     23 O1          0.6684    0.2327   -2.3302 O.3       1 <0>        -0.5588
     24 O2         -3.8114    1.7874    7.1461 O.3       1 <0>        -0.5003
     25 H5          1.0039    1.9031    0.0027 H         1 <0>         0.0539
     26 H6         -0.5459    1.8868   -0.8726 H         1 <0>         0.0599
     27 H7         -0.5289    1.8773    0.9072 H         1 <0>         0.0606
     28 H8         -1.9557   -0.2363   -0.8462 H         1 <0>         0.0693
     29 H9         -1.3938   -1.6303    0.1152 H         1 <0>         0.0628
     30 H10        -2.1534    1.1283    1.2019 H         1 <0>         0.0698
     31 H11        -3.1059   -0.3612    1.3804 H         1 <0>         0.0659
     32 H12        -3.9166    0.0119    3.0041 H         1 <0>         0.1276
     33 H13        -5.0353    0.9194    4.9932 H         1 <0>         0.1275
     34 H14        -1.2303    1.5447    6.8243 H         1 <0>         0.1259
     35 H15         0.7005    1.6781    4.7162 H         1 <0>         0.0774
     36 H16         0.6668    0.2900    5.8226 H         1 <0>         0.0749
     37 H17         1.9304   -0.0841    3.6397 H         1 <0>         0.0720
     38 H18         0.6512   -1.2764    3.9877 H         1 <0>         0.0665
     39 H19         2.4554    0.7900    1.3285 H         1 <0>         0.0683
     40 H20         2.8651   -0.9498    1.4065 H         1 <0>         0.0656
     41 H21         2.7000    0.7100   -0.9588 H         1 <0>         0.0739
     42 H22         3.0000   -1.0500   -0.8889 H         1 <0>         0.0643
     43 H23         1.2119   -0.0490   -3.0787 H         1 <0>         0.3759
     44 H24        -4.0214    1.1203    7.8140 H         1 <0>         0.3901
@<TRIPOS>BOND
     1    1    2 1
     2    1   25 1
     3    1   26 1
     4    1   27 1
     5    2   17 1
     6    2   21 1
     7    2    3 1
     8    3    4 1
     9    3   28 1
    10    3   29 1
    11    4    5 1
    12    4   30 1
    13    4   31 1
    14    5    6 1
    15    5   15 1
    16    5    7 1
    17    7   12 ar
    18    7    8 ar
    19    8    9 ar
    20    8   32 1
    21    9   10 ar
    22    9   33 1
    23   10   11 ar
    24   10   24 1
    25   11   12 ar
    26   11   34 1
    27   12   13 1
    28   13   14 1
    29   13   35 1
    30   13   36 1
    31   14   15 1
    32   14   37 1
    33   14   38 1
    34   15   16 1
    35   15   17 1
    36   17   18 1
    37   17   19 1
    38   19   20 1
    39   19   39 1
    40   19   40 1
    41   20   21 1
    42   20   41 1
    43   20   42 1
    44   21   22 1
    45   21   23 1
    46   23   43 1
    47   24   44 1
@<TRIPOS>MOLECULE
ZINC13583640
   26    28     0     0     0
SMALL
USER_CHARGES
7-bromo-2-(3-fluoro-4-hydroxy-phenyl)-1,3-benzoxazol-5-ol
@<TRIPOS>ATOM
      1 C1         -1.1370    3.5650    0.0323 C.ar      1 <0>        -0.0528
      2 C2         -2.2789    4.3375    0.0372 C.ar      1 <0>        -0.1192
      3 C3         -3.5286    3.7332    0.0405 C.ar      1 <0>         0.1073
      4 C4         -3.6343    2.3458    0.0336 C.ar      1 <0>         0.0748
      5 C5         -2.4963    1.5665    0.0233 C.ar      1 <0>        -0.1006
      6 C6         -1.2376    2.1725    0.0199 C.ar      1 <0>        -0.0167
      7 C7         -0.0162    1.3422    0.0094 C.2       1 <0>         0.3053
      8 N1          1.2080    1.8073    0.0002 N.2       1 <0>        -0.4588
      9 C8          2.0728    0.7604   -0.0136 C.ar      1 <0>         0.0524
     10 C9          3.4665    0.6624   -0.0275 C.ar      1 <0>        -0.0717
     11 C10         4.0649   -0.5825   -0.0399 C.ar      1 <0>         0.1185
     12 C11         3.2865   -1.7359   -0.0382 C.ar      1 <0>        -0.0840
     13 C12         1.9093   -1.6497   -0.0254 C.ar      1 <0>        -0.0528
     14 C13         1.2933   -0.4071   -0.0125 C.ar      1 <0>         0.0261
     15 O1          0.0021   -0.0041    0.0020 O.3       1 <0>        -0.1938
     16 Br1         0.8628   -3.2247   -0.0233 Br        1 <0>        -0.0172
     17 O2          5.4209   -0.6813   -0.0534 O.3       1 <0>        -0.4840
     18 F1         -4.8525    1.7617    0.0373 F         1 <0>        -0.1234
     19 O3         -4.6511    4.4982    0.0511 O.3       1 <0>        -0.4842
     20 H1         -0.1655    4.0367    0.0342 H         1 <0>         0.1546
     21 H2         -2.2010    5.4146    0.0427 H         1 <0>         0.1543
     22 H3         -2.5782    0.4896    0.0175 H         1 <0>         0.1526
     23 H4          4.0732    1.5559   -0.0288 H         1 <0>         0.1535
     24 H5          3.7634   -2.7049   -0.0472 H         1 <0>         0.1597
     25 H6          5.8216   -0.7146    0.8261 H         1 <0>         0.3994
     26 H7         -4.9711    4.7149    0.9375 H         1 <0>         0.4008
@<TRIPOS>BOND
     1    1    6 ar
     2    1    2 ar
     3    1   20 1
     4    2    3 ar
     5    2   21 1
     6    3    4 ar
     7    3   19 1
     8    4    5 ar
     9    4   18 1
    10    5    6 ar
    11    5   22 1
    12    6    7 1
    13    7   15 1
    14    7    8 2
    15    8    9 1
    16    9   14 ar
    17    9   10 ar
    18   10   11 ar
    19   10   23 1
    20   11   12 ar
    21   11   17 1
    22   12   13 ar
    23   12   24 1
    24   13   14 ar
    25   13   16 1
    26   14   15 1
    27   17   25 1
    28   19   26 1
@<TRIPOS>MOLECULE
ZINC00009308
   26    28     0     0     0
SMALL
USER_CHARGES

@<TRIPOS>ATOM
      1 C1          5.3638    4.6176   -0.0274 C.ar      1 <0>        -0.0418
      2 C2          6.7413    4.6465   -0.0341 C.ar      1 <0>        -0.1497
      3 C3          7.4628    3.4594   -0.0463 C.ar      1 <0>         0.1396
      4 C4          6.7993    2.2388   -0.0464 C.ar      1 <0>        -0.1489
      5 C5          5.4220    2.2014   -0.0344 C.ar      1 <0>        -0.0594
      6 C6          4.6930    3.3926   -0.0221 C.ar      1 <0>        -0.0501
      7 C7          3.2165    3.3570   -0.0098 C.2       1 <0>         0.3105
      8 N1          2.4401    4.4115    0.0025 N.2       1 <0>        -0.4671
      9 C8          1.1457    4.0007    0.0121 C.ar      1 <0>         0.0540
     10 C9         -0.0786    4.6737    0.0265 C.ar      1 <0>        -0.0739
     11 C10        -1.2563    3.9521    0.0335 C.ar      1 <0>         0.1182
     12 C11        -1.2276    2.5608    0.0218 C.ar      1 <0>        -0.0869
     13 C12        -0.0236    1.8867    0.0124 C.ar      1 <0>        -0.0516
     14 C13         1.1678    2.5970    0.0049 C.ar      1 <0>         0.0228
     15 O1          2.4713    2.2357   -0.0087 O.3       1 <0>        -0.1951
     16 Br1         0.0021   -0.0041    0.0020 Br        1 <0>        -0.0189
     17 O2         -2.4493    4.6041    0.0475 O.3       1 <0>        -0.4844
     18 O3          8.8204    3.4921   -0.0586 O.3       1 <0>        -0.4964
     19 H1          4.8036    5.5409   -0.0225 H         1 <0>         0.1465
     20 H2          7.2609    5.5933   -0.0337 H         1 <0>         0.1426
     21 H3          7.3637    1.3181   -0.0563 H         1 <0>         0.1413
     22 H4          4.9069    1.2521   -0.0349 H         1 <0>         0.1399
     23 H5         -0.1040    5.7534    0.0326 H         1 <0>         0.1524
     24 H6         -2.1536    2.0051    0.0235 H         1 <0>         0.1589
     25 H7         -2.8024    4.7972   -0.8318 H         1 <0>         0.3988
     26 H8          9.2054    3.5061   -0.9455 H         1 <0>         0.3987
@<TRIPOS>BOND
     1    1    6 ar
     2    1    2 ar
     3    1   19 1
     4    2    3 ar
     5    2   20 1
     6    3    4 ar
     7    3   18 1
     8    4    5 ar
     9    4   21 1
    10    5    6 ar
    11    5   22 1
    12    6    7 1
    13    7   15 1
    14    7    8 2
    15    8    9 1
    16    9   14 ar
    17    9   10 ar
    18   10   11 ar
    19   10   23 1
    20   11   12 ar
    21   11   17 1
    22   12   13 ar
    23   12   24 1
    24   13   14 ar
    25   13   16 1
    26   14   15 1
    27   17   25 1
    28   18   26 1
@<TRIPOS>MOLECULE
ZINC03817763
   30    32     0     0     0
SMALL
USER_CHARGES

@<TRIPOS>ATOM
      1 C1         -0.0159    1.3221    0.0093 C.2       1 <0>        -0.1591
      2 C2          0.0021   -0.0041    0.0020 C.2       1 <0>        -0.1281
      3 C3          1.2912   -0.7252   -0.0142 C.ar      1 <0>        -0.0066
      4 C4          2.4903   -0.0156   -0.0160 C.ar      1 <0>        -0.1156
      5 C5          3.7031   -0.6909   -0.0313 C.ar      1 <0>         0.1171
      6 C6          3.7359   -2.0733   -0.0452 C.ar      1 <0>        -0.0900
      7 C7          2.5423   -2.8003   -0.0435 C.ar      1 <0>         0.0456
      8 C8          1.3141   -2.1234   -0.0219 C.ar      1 <0>         0.0133
      9 O1          0.3530   -3.0735   -0.0178 O.3       1 <0>        -0.1999
     10 C9          0.9549   -4.2778   -0.0300 C.2       1 <0>         0.2963
     11 N1          2.2557   -4.1281   -0.0539 N.2       1 <0>        -0.4620
     12 C10         0.2514   -5.5765   -0.0303 C.ar      1 <0>        -0.0126
     13 C11        -1.1446   -5.6165   -0.0230 C.ar      1 <0>        -0.0728
     14 C12        -1.7982   -6.8298   -0.0237 C.ar      1 <0>        -0.1183
     15 C13        -1.0713   -8.0128   -0.0312 C.ar      1 <0>         0.1045
     16 C14         0.3193   -7.9786   -0.0385 C.ar      1 <0>         0.0748
     17 C15         0.9806   -6.7676   -0.0437 C.ar      1 <0>        -0.0848
     18 F1          1.0228   -9.1319   -0.0454 F         1 <0>        -0.1229
     19 O2         -1.7197   -9.2065   -0.0310 O.3       1 <0>        -0.4845
     20 O3          4.8670    0.0119   -0.0330 O.3       1 <0>        -0.4893
     21 H1          0.9119    1.8747    0.0034 H         1 <0>         0.1053
     22 H2         -0.9584    1.8493    0.0166 H         1 <0>         0.1124
     23 H3         -0.9258   -0.5567    0.0079 H         1 <0>         0.1245
     24 H4          2.4761    1.0643   -0.0060 H         1 <0>         0.1519
     25 H5          4.6836   -2.5910   -0.0577 H         1 <0>         0.1462
     26 H6         -1.7115   -4.6972   -0.0164 H         1 <0>         0.1468
     27 H7         -2.8778   -6.8605   -0.0180 H         1 <0>         0.1523
     28 H8          2.0602   -6.7409   -0.0539 H         1 <0>         0.1587
     29 H9         -1.9124   -9.5496   -0.9143 H         1 <0>         0.4003
     30 H10         5.2101    0.2068    0.8499 H         1 <0>         0.3966
@<TRIPOS>BOND
     1    1    2 2
     2    1   21 1
     3    1   22 1
     4    2    3 1
     5    2   23 1
     6    3    8 ar
     7    3    4 ar
     8    4    5 ar
     9    4   24 1
    10    5    6 ar
    11    5   20 1
    12    6    7 ar
    13    6   25 1
    14    7   11 1
    15    7    8 ar
    16    8    9 1
    17    9   10 1
    18   10   11 2
    19   10   12 1
    20   12   17 ar
    21   12   13 ar
    22   13   14 ar
    23   13   26 1
    24   14   15 ar
    25   14   27 1
    26   15   16 ar
    27   15   19 1
    28   16   17 ar
    29   16   18 1
    30   17   28 1
    31   19   29 1
    32   20   30 1
@<TRIPOS>MOLECULE
ZINC04172149
   44    48     0     0     0
SMALL
USER_CHARGES

@<TRIPOS>ATOM
      1 C1         -0.0184    1.5028    0.0103 C.3       1 <0>        -0.2009
      2 C2          0.0021   -0.0041    0.0020 C.2       1 <0>         0.3978
      3 O1          1.0607   -0.5962   -0.0113 O.2       1 <0>        -0.4703
      4 C3         -1.2587   -0.7551    0.0100 C.ar      1 <0>        -0.2339
      5 C4         -2.4831   -0.0735    0.0196 C.ar      1 <0>        -0.0237
      6 C5         -3.6488   -0.7812    0.0332 C.ar      1 <0>        -0.2072
      7 C6         -3.6272   -2.1781    0.0357 C.ar      1 <0>         0.2586
      8 C7         -2.4190   -2.8600    0.0146 C.ar      1 <0>        -0.1585
      9 C8         -1.2427   -2.1534    0.0024 C.ar      1 <0>        -0.0032
     10 C9         -2.3452   -4.3610   -0.0206 C.3       1 <0>        -0.0065
     11 H1         -1.9612   -4.7435    0.9251 H         1 <0>         0.0898
     12 C10        -1.4242   -4.7545   -1.1646 C.2       1 <0>        -0.1564
     13 C11        -2.1182   -5.1421   -2.2028 C.2       1 <0>        -0.1598
     14 C12        -3.6036   -5.0802   -1.9143 C.3       1 <0>        -0.0915
     15 C13        -3.6814   -5.0183   -0.3559 C.3       1 <0>        -0.0962
     16 H2         -3.6866   -6.0338    0.0403 H         1 <0>         0.0990
     17 C14        -4.9053   -4.3097    0.1428 C.3       1 <0>         0.2102
     18 H3         -5.0838   -4.6141    1.1741 H         1 <0>         0.0924
     19 N1         -4.8278   -2.8641    0.0657 N.pl3     1 <0>        -0.7245
     20 C15        -6.0820   -4.7457   -0.6916 C.ar      1 <0>        -0.0611
     21 C16        -6.4717   -3.9908   -1.7826 C.ar      1 <0>        -0.0856
     22 C17        -7.5532   -4.3892   -2.5508 C.ar      1 <0>         0.0551
     23 C18        -8.2464   -5.5519   -2.2218 C.ar      1 <0>         0.0421
     24 C19        -7.8510   -6.3037   -1.1279 C.ar      1 <0>        -0.0694
     25 C20        -6.7664   -5.9030   -0.3681 C.ar      1 <0>        -0.0782
     26 Br1        -6.2238   -6.9354    1.1205 Br        1 <0>        -0.0198
     27 O2         -9.2585   -5.7255   -3.1211 O.3       1 <0>        -0.3016
     28 C21        -9.4314   -4.4454   -3.7572 C.3       1 <0>         0.2119
     29 O3         -8.1313   -3.8348   -3.6562 O.3       1 <0>        -0.3020
     30 H4          1.0042    1.8801    0.0026 H         1 <0>         0.0824
     31 H5         -0.5455    1.8639   -0.8728 H         1 <0>         0.0913
     32 H6         -0.5286    1.8543    0.9071 H         1 <0>         0.0917
     33 H7         -2.5034    1.0063    0.0165 H         1 <0>         0.1315
     34 H8         -4.5940   -0.2587    0.0425 H         1 <0>         0.1275
     35 H9         -0.2997   -2.6799   -0.0090 H         1 <0>         0.1311
     36 H10        -0.3455   -4.7188   -1.1252 H         1 <0>         0.1302
     37 H11        -1.6895   -5.4633   -3.1405 H         1 <0>         0.1271
     38 H12        -4.0422   -4.1850   -2.3552 H         1 <0>         0.0779
     39 H13        -4.1032   -5.9751   -2.2854 H         1 <0>         0.0722
     40 H14        -5.6531   -2.3545    0.0586 H         1 <0>         0.4050
     41 H15        -5.9328   -3.0898   -2.0357 H         1 <0>         0.1473
     42 H16        -8.3868   -7.2054   -0.8704 H         1 <0>         0.1496
     43 H17        -9.7149   -4.5721   -4.8020 H         1 <0>         0.1380
     44 H18       -10.1757   -3.8515   -3.2267 H         1 <0>         0.0905
@<TRIPOS>BOND
     1    1    2 1
     2    1   30 1
     3    1   31 1
     4    1   32 1
     5    2    3 2
     6    2    4 1
     7    4    9 ar
     8    4    5 ar
     9    5    6 ar
    10    5   33 1
    11    6    7 ar
    12    6   34 1
    13    7   19 1
    14    7    8 ar
    15    8    9 ar
    16    8   10 1
    17    9   35 1
    18   10   11 1
    19   10   15 1
    20   10   12 1
    21   12   13 2
    22   12   36 1
    23   13   14 1
    24   13   37 1
    25   14   15 1
    26   14   38 1
    27   14   39 1
    28   15   16 1
    29   15   17 1
    30   17   18 1
    31   17   19 1
    32   17   20 1
    33   19   40 1
    34   20   25 ar
    35   20   21 ar
    36   21   22 ar
    37   21   41 1
    38   22   29 1
    39   22   23 ar
    40   23   24 ar
    41   23   27 1
    42   24   25 ar
    43   24   42 1
    44   25   26 1
    45   27   28 1
    46   28   29 1
    47   28   43 1
    48   28   44 1
