@<TRIPOS>MOLECULE
ZINC08602413
   59    61     0     0     0
SMALL
USER_CHARGES

@<TRIPOS>ATOM
      1 C1         -0.8619   -1.2098    0.4197 C.3       1 <0>        -0.1466
      2 C2         -0.0026   -0.0150    0.0013 C.3       1 <0>        -0.0935
      3 C3          0.8450   -0.3966   -1.1848 C.2       1 <0>        -0.0419
      4 C4          2.1088   -0.8506   -0.9971 C.2       1 <0>        -0.0535
      5 C5          2.7054   -0.8397    0.3571 C.ar      1 <0>        -0.0419
      6 C6          2.9273    0.3706    1.0153 C.ar      1 <0>        -0.1080
      7 C7          3.4834    0.3739    2.2778 C.ar      1 <0>        -0.1171
      8 C8          3.8208   -0.8194    2.8915 C.ar      1 <0>        -0.1149
      9 C9          3.6033   -2.0228    2.2443 C.ar      1 <0>        -0.1170
     10 C10         3.0431   -2.0400    0.9837 C.ar      1 <0>        -0.1041
     11 C11         2.8913   -1.3568   -2.1461 C.ar      1 <0>        -0.0470
     12 C12         2.4762   -2.5040   -2.8244 C.ar      1 <0>        -0.0595
     13 C13         3.2077   -2.9723   -3.8948 C.ar      1 <0>        -0.1380
     14 C14         4.3563   -2.3043   -4.2986 C.ar      1 <0>         0.1110
     15 C15         4.7726   -1.1627   -3.6263 C.ar      1 <0>        -0.1994
     16 C16         4.0435   -0.6851   -2.5583 C.ar      1 <0>        -0.0636
     17 O1          5.0749   -2.7692   -5.3538 O.3       1 <0>        -0.3291
     18 C17         6.2456   -2.0339   -5.7158 C.3       1 <0>         0.0246
     19 C18         6.9175   -2.7036   -6.9162 C.3       1 <0>        -0.0018
     20 N1          6.0298   -2.6204   -8.0837 N.4       1 <0>        -0.3886
     21 C19         5.8585   -1.2133   -8.4693 C.3       1 <0>        -0.0545
     22 C20         6.6212   -3.3663   -9.2026 C.3       1 <0>        -0.0476
     23 C21         0.3015   -0.2768   -2.5456 C.ar      1 <0>        -0.0535
     24 C22         0.8652    0.6307   -3.4494 C.ar      1 <0>        -0.0836
     25 C23         0.3521    0.7390   -4.7232 C.ar      1 <0>        -0.1448
     26 C24        -0.7231   -0.0506   -5.1111 C.ar      1 <0>         0.1063
     27 C25        -1.2866   -0.9532   -4.2178 C.ar      1 <0>        -0.1418
     28 C26        -0.7776   -1.0738   -2.9434 C.ar      1 <0>        -0.0893
     29 O2         -1.2256    0.0605   -6.3684 O.3       1 <0>        -0.4973
     30 H1         -1.5891   -1.4261   -0.3629 H         1 <0>         0.0562
     31 H2         -0.2239   -2.0801    0.5734 H         1 <0>         0.0567
     32 H3         -1.3849   -0.9744    1.3466 H         1 <0>         0.0628
     33 H4         -0.6486    0.8208   -0.2675 H         1 <0>         0.0736
     34 H5          0.6426    0.2765    0.8302 H         1 <0>         0.0835
     35 H6          2.6647    1.3028    0.5372 H         1 <0>         0.1225
     36 H7          3.6560    1.3100    2.7882 H         1 <0>         0.1252
     37 H8          4.2562   -0.8114    3.8798 H         1 <0>         0.1238
     38 H9          3.8689   -2.9508    2.7287 H         1 <0>         0.1239
     39 H10         2.8699   -2.9802    0.4812 H         1 <0>         0.1196
     40 H11         1.5832   -3.0243   -2.5107 H         1 <0>         0.1328
     41 H12         2.8874   -3.8600   -4.4199 H         1 <0>         0.1321
     42 H13         5.6666   -0.6461   -3.9431 H         1 <0>         0.1266
     43 H14         4.3654    0.2053   -2.0388 H         1 <0>         0.1293
     44 H15         5.9669   -1.0133   -5.9781 H         1 <0>         0.0864
     45 H16         6.9384   -2.0166   -4.8745 H         1 <0>         0.1085
     46 H17         7.8566   -2.1960   -7.1368 H         1 <0>         0.1492
     47 H18         7.1159   -3.7501   -6.6844 H         1 <0>         0.1426
     48 H19         6.8289   -0.7844   -8.7193 H         1 <0>         0.1248
     49 H20         5.1998   -1.1516   -9.3355 H         1 <0>         0.1273
     50 H21         5.4197   -0.6599   -7.6390 H         1 <0>         0.1213
     51 H22         6.7483   -4.4103   -8.9165 H         1 <0>         0.1248
     52 H23         5.9625   -3.3045  -10.0689 H         1 <0>         0.1259
     53 H24         7.5916   -2.9373   -9.4527 H         1 <0>         0.1232
     54 H25         1.7009    1.2453   -3.1487 H         1 <0>         0.1238
     55 H26         0.7861    1.4393   -5.4214 H         1 <0>         0.1266
     56 H27        -2.1226   -1.5644   -4.5245 H         1 <0>         0.1309
     57 H28        -1.2134   -1.7791   -2.2513 H         1 <0>         0.1303
     58 H29        -0.8119   -0.5318   -7.0111 H         1 <0>         0.3880
     59 H30         5.1316   -3.0175   -7.8522 H         1 <0>         0.4337
@<TRIPOS>BOND
     1    1    2 1
     2    1   30 1
     3    1   31 1
     4    1   32 1
     5    2    3 1
     6    2   33 1
     7    2   34 1
     8    3    4 2
     9    3   23 1
    10    4    5 1
    11    4   11 1
    12    5   10 ar
    13    5    6 ar
    14    6    7 ar
    15    6   35 1
    16    7    8 ar
    17    7   36 1
    18    8    9 ar
    19    8   37 1
    20    9   10 ar
    21    9   38 1
    22   10   39 1
    23   11   16 ar
    24   11   12 ar
    25   12   13 ar
    26   12   40 1
    27   13   14 ar
    28   13   41 1
    29   14   15 ar
    30   14   17 1
    31   15   16 ar
    32   15   42 1
    33   16   43 1
    34   17   18 1
    35   18   19 1
    36   18   44 1
    37   18   45 1
    38   19   20 1
    39   19   46 1
    40   19   47 1
    41   20   21 1
    42   20   22 1
    43   20   59 1
    44   21   48 1
    45   21   49 1
    46   21   50 1
    47   22   51 1
    48   22   52 1
    49   22   53 1
    50   23   28 ar
    51   23   24 ar
    52   24   25 ar
    53   24   54 1
    54   25   26 ar
    55   25   55 1
    56   26   27 ar
    57   26   29 1
    58   27   28 ar
    59   27   56 1
    60   28   57 1
    61   29   58 1
@<TRIPOS>MOLECULE
ZINC13520815
   44    47     0     0     0
SMALL
USER_CHARGES

@<TRIPOS>ATOM
      1 C1         -0.0187    1.5258    0.0104 C.3       1 <0>        -0.1354
      2 C2          0.0021   -0.0041    0.0020 C.3       1 <0>        -0.0564
      3 C3         -1.4142   -0.5425    0.0489 C.3       1 <0>        -0.1016
      4 C4         -2.0973    0.0441    1.2987 C.3       1 <0>        -0.1130
      5 C5         -1.3125   -0.3073    2.5542 C.3       1 <0>        -0.0424
      6 H1         -1.3075   -1.3927    2.6533 H         1 <0>         0.0765
      7 C6         -1.9424    0.2651    3.7900 C.ar      1 <0>        -0.0773
      8 C7         -3.3273    0.3484    3.8443 C.ar      1 <0>        -0.1030
      9 C8         -3.9576    0.8569    4.9598 C.ar      1 <0>        -0.1472
     10 C9         -3.2003    1.2884    6.0396 C.ar      1 <0>         0.1024
     11 C10        -1.8198    1.2087    5.9840 C.ar      1 <0>        -0.1480
     12 C11        -1.1856    0.7013    4.8579 C.ar      1 <0>        -0.0577
     13 C12         0.3200    0.6669    4.8604 C.3       1 <0>        -0.0825
     14 C13         0.8561   -0.2331    3.7476 C.3       1 <0>        -0.1135
     15 C14         0.1446    0.1628    2.4542 C.3       1 <0>        -0.0739
     16 H2          0.1741    1.2443    2.3212 H         1 <0>         0.0865
     17 C15         0.7512   -0.5345    1.2564 C.3       1 <0>        -0.0835
     18 H3          0.6224   -1.6140    1.3350 H         1 <0>         0.0754
     19 C16         2.2091   -0.2046    0.9567 C.3       1 <0>        -0.1120
     20 C17         2.3296   -0.2454   -0.5872 C.3       1 <0>        -0.1564
     21 C18         0.8992   -0.5108   -1.1319 C.3       1 <0>         0.1090
     22 H4          0.7424   -1.5760   -1.3012 H         1 <0>         0.0609
     23 O1          0.6684    0.2327   -2.3302 O.3       1 <0>        -0.5588
     24 O2         -3.8114    1.7874    7.1461 O.3       1 <0>        -0.5003
     25 H5          1.0039    1.9031    0.0027 H         1 <0>         0.0539
     26 H6         -0.5459    1.8868   -0.8726 H         1 <0>         0.0599
     27 H7         -0.5289    1.8773    0.9072 H         1 <0>         0.0606
     28 H8         -1.9557   -0.2363   -0.8462 H         1 <0>         0.0693
     29 H9         -1.3938   -1.6303    0.1152 H         1 <0>         0.0628
     30 H10        -2.1534    1.1283    1.2019 H         1 <0>         0.0698
     31 H11        -3.1059   -0.3612    1.3804 H         1 <0>         0.0659
     32 H12        -3.9166    0.0119    3.0041 H         1 <0>         0.1276
     33 H13        -5.0353    0.9194    4.9932 H         1 <0>         0.1275
     34 H14        -1.2303    1.5447    6.8243 H         1 <0>         0.1259
     35 H15         0.7005    1.6781    4.7162 H         1 <0>         0.0774
     36 H16         0.6668    0.2900    5.8226 H         1 <0>         0.0749
     37 H17         1.9304   -0.0841    3.6397 H         1 <0>         0.0720
     38 H18         0.6512   -1.2764    3.9877 H         1 <0>         0.0665
     39 H19         2.4554    0.7900    1.3285 H         1 <0>         0.0683
     40 H20         2.8651   -0.9498    1.4065 H         1 <0>         0.0656
     41 H21         2.7000    0.7100   -0.9588 H         1 <0>         0.0739
     42 H22         3.0000   -1.0500   -0.8889 H         1 <0>         0.0643
     43 H23         1.2119   -0.0490   -3.0787 H         1 <0>         0.3759
     44 H24        -4.0214    1.1203    7.8140 H         1 <0>         0.3901
@<TRIPOS>BOND
     1    1    2 1
     2    1   25 1
     3    1   26 1
     4    1   27 1
     5    2   17 1
     6    2   21 1
     7    2    3 1
     8    3    4 1
     9    3   28 1
    10    3   29 1
    11    4    5 1
    12    4   30 1
    13    4   31 1
    14    5    6 1
    15    5   15 1
    16    5    7 1
    17    7   12 ar
    18    7    8 ar
    19    8    9 ar
    20    8   32 1
    21    9   10 ar
    22    9   33 1
    23   10   11 ar
    24   10   24 1
    25   11   12 ar
    26   11   34 1
    27   12   13 1
    28   13   14 1
    29   13   35 1
    30   13   36 1
    31   14   15 1
    32   14   37 1
    33   14   38 1
    34   15   16 1
    35   15   17 1
    36   17   18 1
    37   17   19 1
    38   19   20 1
    39   19   39 1
    40   19   40 1
    41   20   21 1
    42   20   41 1
    43   20   42 1
    44   21   22 1
    45   21   23 1
    46   23   43 1
    47   24   44 1
