@<TRIPOS>MOLECULE
ZINC00016978
   36    38     0     0     0
SMALL
USER_CHARGES
N-(3-chloro-4-fluoro-phenyl)-6,7-dimethoxy-quinazolin-4-amine
@<TRIPOS>ATOM
      1 C1         -0.1077    7.8043   -0.3043 C.3       1 <0>         0.0213
      2 O1          1.1553    7.1532   -0.1529 O.3       1 <0>        -0.2997
      3 C2          1.1387    5.8027    0.0050 C.ar      1 <0>         0.1127
      4 C3         -0.0547    5.1381    0.0126 C.ar      1 <0>        -0.1498
      5 C4         -0.0730    3.7479    0.1756 C.ar      1 <0>        -0.1807
      6 C5          1.1438    3.0387    0.3316 C.ar      1 <0>         0.2015
      7 C6          2.3555    3.7401    0.3208 C.ar      1 <0>        -0.1836
      8 C7          2.3465    5.1079    0.1588 C.ar      1 <0>         0.1645
      9 O2          3.5207    5.7910    0.1475 O.3       1 <0>        -0.2967
     10 C8          4.7173    5.0267    0.3088 C.3       1 <0>         0.0198
     11 N1          1.0981    1.7061    0.4867 N.ar      1 <0>        -0.5395
     12 C9         -0.0526    1.0764    0.4931 C.ar      1 <0>         0.3425
     13 N2         -1.2130    1.6959    0.3460 N.ar      1 <0>        -0.5817
     14 C10        -1.2816    3.0117    0.1912 C.ar      1 <0>         0.4638
     15 N3         -2.4991    3.6452    0.0437 N.pl3     1 <0>        -0.6386
     16 C11        -3.6729    2.8905   -0.0548 C.ar      1 <0>         0.1586
     17 C12        -3.6501    1.6464   -0.6722 C.ar      1 <0>        -0.0781
     18 C13        -4.8088    0.9005   -0.7643 C.ar      1 <0>        -0.1189
     19 C14        -5.9954    1.3962   -0.2511 C.ar      1 <0>         0.0951
     20 C15        -6.0222    2.6392    0.3606 C.ar      1 <0>        -0.0539
     21 C16        -4.8635    3.3866    0.4595 C.ar      1 <0>        -0.1144
     22 Cl1        -7.5113    3.2580    1.0036 Cl        1 <0>        -0.0424
     23 F1         -7.1286    0.6668   -0.3466 F         1 <0>        -0.1253
     24 H1          0.0480    8.8767   -0.4213 H         1 <0>         0.1075
     25 H2         -0.6150    7.4125   -1.1859 H         1 <0>         0.0578
     26 H3         -0.7195    7.6202    0.5788 H         1 <0>         0.0576
     27 H4         -0.9797    5.6826   -0.1070 H         1 <0>         0.1396
     28 H5          3.2905    3.2125    0.4383 H         1 <0>         0.1568
     29 H6          4.6901    4.5069    1.2665 H         1 <0>         0.0625
     30 H7          4.7946    4.2980   -0.4981 H         1 <0>         0.0626
     31 H8          5.5801    5.6924    0.2811 H         1 <0>         0.1078
     32 H9         -0.0529    0.0039    0.6197 H         1 <0>         0.1993
     33 H10        -2.5408    4.6137    0.0082 H         1 <0>         0.4219
     34 H11        -2.7259    1.2610   -1.0767 H         1 <0>         0.1541
     35 H12        -4.7901   -0.0685   -1.2408 H         1 <0>         0.1508
     36 H13        -4.8843    4.3556    0.9360 H         1 <0>         0.1453
@<TRIPOS>BOND
     1    1    2 1
     2    1   24 1
     3    1   25 1
     4    1   26 1
     5    2    3 1
     6    3    8 ar
     7    3    4 ar
     8    4    5 ar
     9    4   27 1
    10    5   14 ar
    11    5    6 ar
    12    6    7 ar
    13    6   11 ar
    14    7    8 ar
    15    7   28 1
    16    8    9 1
    17    9   10 1
    18   10   29 1
    19   10   30 1
    20   10   31 1
    21   11   12 ar
    22   12   13 ar
    23   12   32 1
    24   13   14 ar
    25   14   15 1
    26   15   16 1
    27   15   33 1
    28   16   21 ar
    29   16   17 ar
    30   17   18 ar
    31   17   34 1
    32   18   19 ar
    33   18   35 1
    34   19   20 ar
    35   19   23 1
    36   20   21 ar
    37   20   22 1
    38   21   36 1
@<TRIPOS>MOLECULE
ZINC00004763
   26    27     0     0     0
SMALL
USER_CHARGES

@<TRIPOS>ATOM
      1 C1         -0.0168    1.3874    0.0097 C.ar      1 <0>        -0.1123
      2 C2          1.1696    2.0895    0.0021 C.ar      1 <0>        -0.0235
      3 C3          2.3883    1.4211   -0.0136 C.ar      1 <0>        -0.1492
      4 C4          2.4325    0.0564   -0.0218 C.ar      1 <0>         0.0306
      5 C5          1.2388   -0.6801   -0.0139 C.ar      1 <0>        -0.0923
      6 C6          0.0021   -0.0041    0.0020 C.ar      1 <0>         0.0948
      7 N1         -0.9883   -0.9571    0.0059 N.pl3     1 <0>        -0.5590
      8 H1         -1.9421   -0.7808    0.0154 H         1 <0>         0.4191
      9 C7         -0.4002   -2.2096   -0.0067 C.2       1 <0>         0.0424
     10 C8          0.9535   -2.0650   -0.0189 C.2       1 <0>        -0.1168
     11 C9          1.9663   -3.1809   -0.0360 C.3       1 <0>        -0.0268
     12 C10         2.3242   -3.5668    1.4007 C.3       1 <0>        -0.1578
     13 C11         3.3369   -4.6826    1.3836 C.2       1 <0>         0.4989
     14 O1          3.7355   -5.1279    0.3209 O.co2     1 <0>        -0.7011
     15 O2          3.7577   -5.1401    2.4325 O.co2     1 <0>        -0.7247
     16 C12        -1.1190   -3.4864   -0.0069 C.2       1 <0>         0.5408
     17 O3         -2.3433   -3.4997    0.0044 O.co2     1 <0>        -0.7017
     18 O4         -0.4953   -4.5400   -0.0183 O.co2     1 <0>        -0.6351
     19 Cl1         3.9618   -0.7649   -0.0425 Cl        1 <0>        -0.0477
     20 Cl2         1.1412    3.8252    0.0117 Cl        1 <0>        -0.0862
     21 H2         -0.9585    1.9160    0.0260 H         1 <0>         0.1268
     22 H3          3.3086    1.9864   -0.0197 H         1 <0>         0.1327
     23 H4          1.5461   -4.0451   -0.5504 H         1 <0>         0.0914
     24 H5          2.8640   -2.8488   -0.5573 H         1 <0>         0.0602
     25 H6          2.7444   -2.7026    1.9151 H         1 <0>         0.0412
     26 H7          1.4264   -3.8989    1.9220 H         1 <0>         0.0553
@<TRIPOS>BOND
     1    1    6 ar
     2    1    2 ar
     3    1   21 1
     4    2    3 ar
     5    2   20 1
     6    3    4 ar
     7    3   22 1
     8    4    5 ar
     9    4   19 1
    10    5   10 1
    11    5    6 ar
    12    6    7 1
    13    7    8 1
    14    7    9 1
    15    9   10 2
    16    9   16 1
    17   10   11 1
    18   11   12 1
    19   11   23 1
    20   11   24 1
    21   12   13 1
    22   12   25 1
    23   12   26 1
    24   13   14 2
    25   13   15 1
    26   16   17 2
    27   16   18 1
@<TRIPOS>MOLECULE
ZINC16951624
   21    22     0     0     0
SMALL
USER_CHARGES
4-(2-aminothiazol-4-yl)phenol
@<TRIPOS>ATOM
      1 C1         -1.2338    2.1611    0.0196 C.ar      1 <0>        -0.0588
      2 C2         -1.2490    3.5402    0.0331 C.ar      1 <0>        -0.1647
      3 C3         -0.0556    4.2491    0.0260 C.ar      1 <0>         0.1633
      4 C4          1.1566    3.5730    0.0103 C.ar      1 <0>        -0.2198
      5 C5          1.1787    2.1939    0.0026 C.ar      1 <0>        -0.0418
      6 C6         -0.0180    1.4791    0.0102 C.ar      1 <0>        -0.0719
      7 C7          0.0021   -0.0041    0.0020 C.2       1 <0>         0.1516
      8 C8         -1.1670   -0.7100    0.0094 C.2       1 <0>        -0.2455
      9 S1         -0.5450   -2.3861   -0.0055 S.3       1 <0>        -0.0355
     10 C9          1.1956   -1.9808   -0.0199 C.2       1 <0>         0.3987
     11 N1          1.1597   -0.6608   -0.0181 N.2       1 <0>        -0.5834
     12 N2          2.2922   -2.8274   -0.0349 N.pl3     1 <0>        -0.8211
     13 O1         -0.0740    5.6081    0.0339 O.3       1 <0>        -0.5102
     14 H1         -2.1627    1.6101    0.0206 H         1 <0>         0.1317
     15 H2         -2.1905    4.0692    0.0446 H         1 <0>         0.1318
     16 H3          2.0834    4.1274    0.0044 H         1 <0>         0.1282
     17 H4          2.1222    1.6684   -0.0096 H         1 <0>         0.1333
     18 H5         -2.1865   -0.3538    0.0210 H         1 <0>         0.1936
     19 H6          3.3097   -2.4094   -0.0423 H         1 <0>         0.4407
     20 H7          2.1454   -3.9175   -0.0394 H         1 <0>         0.4452
     21 H8          0.8711    6.1710    0.0283 H         1 <0>         0.4344
@<TRIPOS>BOND
     1    1    6 ar
     2    1    2 ar
     3    1   14 1
     4    2    3 ar
     5    2   15 1
     6    3    4 ar
     7    3   13 1
     8    4    5 ar
     9    4   16 1
    10    5    6 ar
    11    5   17 1
    12    6    7 1
    13    7   11 1
    14    7    8 2
    15    8    9 1
    16    8   18 1
    17    9   10 1
    18   10   11 2
    19   10   12 1
    20   12   19 1
    21   12   20 1
    22   13   21 1
@<TRIPOS>MOLECULE
ZINC16951624
   22    23     0     0     0
SMALL
USER_CHARGES
4-(2-aminothiazol-4-yl)phenol
@<TRIPOS>ATOM
      1 C1         -1.2338    2.1611    0.0196 C.ar      1 <0>        -0.0337
      2 C2         -1.2490    3.5402    0.0331 C.ar      1 <0>        -0.1545
      3 C3         -0.0556    4.2491    0.0260 C.ar      1 <0>         0.1978
      4 C4          1.1566    3.5730    0.0103 C.ar      1 <0>        -0.2076
      5 C5          1.1787    2.1939    0.0026 C.ar      1 <0>        -0.0601
      6 C6         -0.0180    1.4791    0.0102 C.ar      1 <0>        -0.1216
      7 C7          0.0021   -0.0041    0.0020 C.2       1 <0>         0.1412
      8 C8         -1.1670   -0.7100    0.0094 C.2       1 <0>        -0.1870
      9 S1         -0.5450   -2.3861   -0.0055 S.3       1 <0>         0.2312
     10 C9          1.1956   -1.9808   -0.0199 C.cat     1 <0>         0.3936
     11 N1          1.1597   -0.6608   -0.0181 N.pl3     1 <0>        -0.5648
     12 N2          2.2922   -2.8274   -0.0349 N.pl3     1 <0>        -0.7744
     13 O1         -0.0740    5.6081    0.0339 O.3       1 <0>        -0.4982
     14 H1         -2.1627    1.6101    0.0206 H         1 <0>         0.1426
     15 H2         -2.1905    4.0692    0.0446 H         1 <0>         0.1464
     16 H3          2.0834    4.1274    0.0044 H         1 <0>         0.1410
     17 H4          2.1222    1.6684   -0.0096 H         1 <0>         0.1188
     18 H5         -2.1865   -0.3538    0.0210 H         1 <0>         0.2330
     19 H6          3.3097   -2.4094   -0.0423 H         1 <0>         0.4623
     20 H7          2.1454   -3.9175   -0.0394 H         1 <0>         0.4834
     21 H8          0.8711    6.1710    0.0283 H         1 <0>         0.4485
     22 H9          2.1080   -0.1035   -0.0336 H         1 <0>         0.4621
@<TRIPOS>BOND
     1    1    6 ar
     2    1    2 ar
     3    1   14 1
     4    2    3 ar
     5    2   15 1
     6    3    4 ar
     7    3   13 1
     8    4    5 ar
     9    4   16 1
    10    5    6 ar
    11    5   17 1
    12    6    7 1
    13    7   11 1
    14    7    8 2
    15    8    9 1
    16    8   18 1
    17    9   10 1
    18   10   11 2
    19   10   12 1
    20   11   22 1
    21   12   19 1
    22   12   20 1
    23   13   21 1
@<TRIPOS>MOLECULE
ZINC03860156
   35    37     0     0     0
SMALL
USER_CHARGES

@<TRIPOS>ATOM
      1 C1         -0.0158    1.3119    0.0093 C.ar      1 <0>         0.3495
      2 N1          1.0888    2.0360    0.0026 N.ar      1 <0>        -0.5972
      3 C2          2.2875    1.4625   -0.0119 C.ar      1 <0>         0.5031
      4 C3          2.3582    0.0588   -0.0202 C.ar      1 <0>        -0.1045
      5 C4          1.1547   -0.6659   -0.0126 C.ar      1 <0>         0.3051
      6 N2          0.0021   -0.0041    0.0020 N.ar      1 <0>        -0.5415
      7 N3          1.5110   -1.9908   -0.0227 N.pl3     1 <0>        -0.4631
      8 C5          2.8729   -2.0476   -0.0358 C.2       1 <0>         0.2823
      9 N4          3.3680   -0.8441   -0.0343 N.2       1 <0>        -0.4721
     10 C6          0.5956   -3.1347   -0.0195 C.3       1 <0>         0.3051
     11 H1         -0.2832   -2.9148    0.5866 H         1 <0>         0.1193
     12 C7          0.1775   -3.4928   -1.4629 C.3       1 <0>         0.0373
     13 H2          0.9267   -3.1463   -2.1747 H         1 <0>         0.0793
     14 C8          0.1056   -5.0362   -1.4608 C.3       1 <0>         0.0465
     15 H3          0.8193   -5.4528   -2.1716 H         1 <0>         0.0902
     16 C9          0.4888   -5.4280   -0.0165 C.3       1 <0>         0.0898
     17 H4         -0.4066   -5.5617    0.5906 H         1 <0>         0.0982
     18 O1          1.2661   -4.3138    0.4763 O.3       1 <0>        -0.3330
     19 C10         1.3272   -6.7078   -0.0164 C.3       1 <0>         0.1401
     20 O2          1.5723   -7.1166    1.3308 O.3       1 <0>        -0.7498
     21 P1          2.4256   -8.4288    1.7075 P.3       1 <0>         2.1254
     22 O3          1.8087   -9.6769    0.9891 O.2       1 <0>        -1.1870
     23 O4          3.9092   -8.2385    1.2417 O.3       1 <0>        -1.1843
     24 O5          2.3892   -8.6480    3.2583 O.3       1 <0>        -1.1648
     25 O6         -1.2191   -5.4762   -1.7672 O.3       1 <0>        -0.5321
     26 O7         -1.0998   -2.9297   -1.7685 O.3       1 <0>        -0.5309
     27 N5          3.4393    2.2295   -0.0193 N.pl3     1 <0>        -0.8229
     28 H5         -0.9693    1.8187    0.0257 H         1 <0>         0.2009
     29 H6          3.4551   -2.9572   -0.0459 H         1 <0>         0.2313
     30 H7          0.7880   -7.4954   -0.5427 H         1 <0>         0.0627
     31 H8          2.2767   -6.5201   -0.5176 H         1 <0>         0.0452
     32 H9         -1.5313   -5.2049   -2.6412 H         1 <0>         0.3714
     33 H10        -1.4113   -3.1237   -2.6632 H         1 <0>         0.3765
     34 H11         3.3774    3.1975   -0.0138 H         1 <0>         0.4060
     35 H12         4.3085    1.7992   -0.0299 H         1 <0>         0.4181
@<TRIPOS>BOND
     1    1    6 ar
     2    1    2 ar
     3    1   28 1
     4    2    3 ar
     5    3    4 ar
     6    3   27 1
     7    4    9 1
     8    4    5 ar
     9    5    6 ar
    10    5    7 1
    11    7    8 1
    12    7   10 1
    13    8    9 2
    14    8   29 1
    15   10   11 1
    16   10   18 1
    17   10   12 1
    18   12   13 1
    19   12   14 1
    20   12   26 1
    21   14   15 1
    22   14   16 1
    23   14   25 1
    24   16   17 1
    25   16   18 1
    26   16   19 1
    27   19   20 1
    28   19   30 1
    29   19   31 1
    30   20   21 1
    31   21   22 2
    32   21   23 1
    33   21   24 1
    34   25   32 1
    35   26   33 1
    36   27   34 1
    37   27   35 1
@<TRIPOS>MOLECULE
ZINC03860156
   36    38     0     0     0
SMALL
USER_CHARGES

@<TRIPOS>ATOM
      1 C1         -0.0158    1.3119    0.0093 C.ar      1 <0>         0.3576
      2 N1          1.0888    2.0360    0.0026 N.ar      1 <0>        -0.5943
      3 C2          2.2875    1.4625   -0.0119 C.ar      1 <0>         0.5063
      4 C3          2.3582    0.0588   -0.0202 C.ar      1 <0>        -0.1070
      5 C4          1.1547   -0.6659   -0.0126 C.ar      1 <0>         0.3090
      6 N2          0.0021   -0.0041    0.0020 N.ar      1 <0>        -0.5459
      7 N3          1.5110   -1.9908   -0.0227 N.pl3     1 <0>        -0.4678
      8 C5          2.8729   -2.0476   -0.0358 C.2       1 <0>         0.2728
      9 N4          3.3680   -0.8441   -0.0343 N.2       1 <0>        -0.4661
     10 C6          0.5956   -3.1347   -0.0195 C.3       1 <0>         0.3106
     11 H1         -0.2832   -2.9148    0.5866 H         1 <0>         0.1217
     12 C7          0.1775   -3.4928   -1.4629 C.3       1 <0>         0.0369
     13 H2          0.9267   -3.1463   -2.1747 H         1 <0>         0.0829
     14 C8          0.1056   -5.0362   -1.4608 C.3       1 <0>         0.0468
     15 H3          0.8193   -5.4528   -2.1716 H         1 <0>         0.0920
     16 C9          0.4888   -5.4280   -0.0165 C.3       1 <0>         0.0876
     17 H4         -0.4066   -5.5617    0.5906 H         1 <0>         0.1032
     18 O1          1.2661   -4.3138    0.4763 O.3       1 <0>        -0.3404
     19 C10         1.3272   -6.7078   -0.0164 C.3       1 <0>         0.1463
     20 O2          1.5723   -7.1166    1.3308 O.3       1 <0>        -0.7534
     21 P1          2.4256   -8.4288    1.7075 P.3       1 <0>         2.2117
     22 O3          3.8133   -8.3520    1.0326 O.2       1 <0>        -1.1063
     23 O4          2.6094   -8.5091    3.3050 O.3       1 <0>        -0.8963
     24 O5          1.6804   -9.6878    1.2109 O.3       1 <0>        -1.1050
     25 O6         -1.2191   -5.4762   -1.7672 O.3       1 <0>        -0.5339
     26 O7         -1.0998   -2.9297   -1.7685 O.3       1 <0>        -0.5288
     27 N5          3.4393    2.2295   -0.0193 N.pl3     1 <0>        -0.8200
     28 H5         -0.9693    1.8187    0.0257 H         1 <0>         0.2035
     29 H6          3.4551   -2.9572   -0.0459 H         1 <0>         0.2281
     30 H7          0.7880   -7.4954   -0.5427 H         1 <0>         0.0791
     31 H8          2.2767   -6.5201   -0.5176 H         1 <0>         0.0672
     32 H9         -1.5313   -5.2049   -2.6412 H         1 <0>         0.3790
     33 H10        -1.4113   -3.1237   -2.6632 H         1 <0>         0.3804
     34 H11         3.3774    3.1975   -0.0138 H         1 <0>         0.4086
     35 H12         4.3085    1.7992   -0.0299 H         1 <0>         0.4187
     36 H13         3.1153   -9.2769    3.6046 H         1 <0>         0.4152
@<TRIPOS>BOND
     1    1    6 ar
     2    1    2 ar
     3    1   28 1
     4    2    3 ar
     5    3    4 ar
     6    3   27 1
     7    4    9 1
     8    4    5 ar
     9    5    6 ar
    10    5    7 1
    11    7    8 1
    12    7   10 1
    13    8    9 2
    14    8   29 1
    15   10   11 1
    16   10   18 1
    17   10   12 1
    18   12   13 1
    19   12   14 1
    20   12   26 1
    21   14   15 1
    22   14   16 1
    23   14   25 1
    24   16   17 1
    25   16   18 1
    26   16   19 1
    27   19   20 1
    28   19   30 1
    29   19   31 1
    30   20   21 1
    31   21   22 2
    32   21   23 1
    33   21   24 1
    34   23   36 1
    35   25   32 1
    36   26   33 1
    37   27   34 1
    38   27   35 1
