@<TRIPOS>MOLECULE
ZINC03988394
   66    67     0     0     0
SMALL
USER_CHARGES

@<TRIPOS>ATOM
      1 C1        -14.3712    5.8908    2.4882 C.3       1 <0>        -0.1546
      2 C2        -13.1756    5.2979    1.7399 C.3       1 <0>         0.0612
      3 O1        -12.6731    4.1454    2.4663 O.3       1 <0>        -0.3580
      4 C3        -11.5660    3.5577    1.9861 C.2       1 <0>         0.4635
      5 O2        -10.9803    4.0468    1.0492 O.2       1 <0>        -0.4804
      6 C4        -11.0535    2.2880    2.6155 C.3       1 <0>         0.0977
      7 H1        -11.8830    1.7483    3.0723 H         1 <0>         0.1109
      8 C5        -10.0172    2.6323    3.6873 C.3       1 <0>        -0.1853
      9 N1        -10.4307    1.4471    1.5845 N.pl3     1 <0>        -1.0861
     10 P1        -10.7470   -0.1823    1.8630 P.3       1 <0>         2.5637
     11 O3        -10.4265   -0.5136    3.2694 O.2       1 <0>        -1.0100
     12 C6         -9.7268   -1.1941    0.7558 C.2       1 <0>        -0.6169
     13 C7        -10.0954   -2.3632    0.1983 C.2       1 <0>        -0.1172
     14 C8         -9.0102   -2.8076   -0.5851 C.2       1 <0>        -0.1850
     15 C9         -8.0292   -1.8745   -0.4605 C.2       1 <0>         0.0920
     16 O4         -8.4753   -0.9041    0.3599 O.3       1 <0>        -0.1313
     17 C10        -6.7015   -1.9203   -1.1078 C.2       1 <0>         0.1478
     18 C11        -6.1470   -0.7844   -1.6314 C.2       1 <0>        -0.1638
     19 S1         -4.5964   -1.4241   -2.2498 S.3       1 <0>         0.0125
     20 C12        -4.8428   -3.1258   -1.7626 C.2       1 <0>         0.3841
     21 N2         -6.0299   -3.0683   -1.1880 N.2       1 <0>        -0.5600
     22 N3         -4.0063   -4.2162   -1.9366 N.pl3     1 <0>        -0.7932
     23 C13        -6.6910    0.6204   -1.6707 C.3       1 <0>        -0.0240
     24 C14        -6.2459    1.3750   -0.4164 C.3       1 <0>        -0.0934
     25 C15        -4.7240    1.5321   -0.4289 C.3       1 <0>        -0.1526
     26 C16        -6.9012    2.7573   -0.3933 C.3       1 <0>        -0.1494
     27 N4        -12.3742   -0.4961    1.5695 N.pl3     1 <0>        -1.0502
     28 C17       -13.2153    0.0283    2.6538 C.3       1 <0>         0.0947
     29 H2        -12.5814    0.3800    3.4677 H         1 <0>         0.1302
     30 C18       -14.0606    1.1898    2.1272 C.3       1 <0>        -0.1819
     31 C19       -14.1221   -1.0641    3.1592 C.2       1 <0>         0.4695
     32 O5        -14.0727   -2.1664    2.6668 O.2       1 <0>        -0.4772
     33 O6        -14.9846   -0.8126    4.1565 O.3       1 <0>        -0.3578
     34 C20       -15.8271   -1.9120    4.5924 C.3       1 <0>         0.0620
     35 C21       -16.7368   -1.4383    5.7276 C.3       1 <0>        -0.1536
     36 H3        -14.7484    6.7560    1.9429 H         1 <0>         0.0809
     37 H4        -15.1579    5.1407    2.5685 H         1 <0>         0.0687
     38 H5        -14.0590    6.1982    3.4863 H         1 <0>         0.0687
     39 H6        -12.3889    6.0480    1.6596 H         1 <0>         0.0726
     40 H7        -13.4878    4.9905    0.7418 H         1 <0>         0.0708
     41 H8         -9.5812    1.7135    4.0795 H         1 <0>         0.1040
     42 H9         -9.2323    3.2487    3.2490 H         1 <0>         0.0765
     43 H10       -10.4999    3.1799    4.4967 H         1 <0>         0.0884
     44 H11        -9.4379    1.6185    1.5292 H         1 <0>         0.3985
     45 H12       -11.0426   -2.8658    0.3273 H         1 <0>         0.1656
     46 H13        -8.9667   -3.7141   -1.1705 H         1 <0>         0.1583
     47 H14        -4.2747   -5.0900   -1.6121 H         1 <0>         0.4194
     48 H15        -3.1540   -4.1067   -2.3866 H         1 <0>         0.4234
     49 H16        -6.3128    1.1319   -2.5558 H         1 <0>         0.0843
     50 H17        -7.7799    0.5875   -1.7076 H         1 <0>         0.0868
     51 H18        -6.5461    0.8157    0.4698 H         1 <0>         0.0749
     52 H19        -4.4238    2.0914   -1.3150 H         1 <0>         0.0562
     53 H20        -4.4069    2.0697    0.4647 H         1 <0>         0.0590
     54 H21        -4.2572    0.5473   -0.4453 H         1 <0>         0.0557
     55 H22        -7.9832    2.6478   -0.4674 H         1 <0>         0.0612
     56 H23        -6.6502    3.2629    0.5392 H         1 <0>         0.0601
     57 H24        -6.5371    3.3461   -1.2352 H         1 <0>         0.0570
     58 H25       -12.6595   -0.1215    0.6771 H         1 <0>         0.3864
     59 H26       -14.7373    0.8256    1.3542 H         1 <0>         0.0813
     60 H27       -14.6402    1.6175    2.9454 H         1 <0>         0.1013
     61 H28       -13.4066    1.9539    1.7071 H         1 <0>         0.0727
     62 H29       -16.4373   -2.2554    3.7570 H         1 <0>         0.0702
     63 H30       -15.2012   -2.7312    4.9461 H         1 <0>         0.0728
     64 H31       -16.1266   -1.0948    6.5630 H         1 <0>         0.0691
     65 H32       -17.3627   -0.6190    5.3739 H         1 <0>         0.0669
     66 H33       -17.3693   -2.2635    6.0549 H         1 <0>         0.0806
@<TRIPOS>BOND
     1    1    2 1
     2    1   36 1
     3    1   37 1
     4    1   38 1
     5    2    3 1
     6    2   39 1
     7    2   40 1
     8    3    4 1
     9    4    5 2
    10    4    6 1
    11    6    7 1
    12    6    8 1
    13    6    9 1
    14    8   41 1
    15    8   42 1
    16    8   43 1
    17    9   10 1
    18    9   44 1
    19   10   11 2
    20   10   12 1
    21   10   27 1
    22   12   16 1
    23   12   13 2
    24   13   14 1
    25   13   45 1
    26   14   15 2
    27   14   46 1
    28   15   16 1
    29   15   17 1
    30   17   21 1
    31   17   18 2
    32   18   19 1
    33   18   23 1
    34   19   20 1
    35   20   21 2
    36   20   22 1
    37   22   47 1
    38   22   48 1
    39   23   24 1
    40   23   49 1
    41   23   50 1
    42   24   25 1
    43   24   26 1
    44   24   51 1
    45   25   52 1
    46   25   53 1
    47   25   54 1
    48   26   55 1
    49   26   56 1
    50   26   57 1
    51   27   28 1
    52   27   58 1
    53   28   29 1
    54   28   30 1
    55   28   31 1
    56   30   59 1
    57   30   60 1
    58   30   61 1
    59   31   32 2
    60   31   33 1
    61   33   34 1
    62   34   35 1
    63   34   62 1
    64   34   63 1
    65   35   64 1
    66   35   65 1
    67   35   66 1
@<TRIPOS>MOLECULE
ZINC00600292
   36    38     0     0     0
SMALL
USER_CHARGES

@<TRIPOS>ATOM
      1 C1         -0.7597    1.4203   -0.5114 C.3       1 <0>         0.0216
      2 O1         -0.7395   -0.0086   -0.5175 O.3       1 <0>        -0.3000
      3 C2          0.0525   -0.6108   -1.4443 C.ar      1 <0>         0.1111
      4 C3          0.7838    0.1546   -2.3077 C.ar      1 <0>        -0.1487
      5 C4          1.6000   -0.4644   -3.2619 C.ar      1 <0>        -0.1822
      6 C5          1.6631   -1.8785   -3.3272 C.ar      1 <0>         0.2014
      7 C6          0.9050   -2.6434   -2.4324 C.ar      1 <0>        -0.1835
      8 C7          0.1140   -2.0102   -1.4994 C.ar      1 <0>         0.1637
      9 O2         -0.6184   -2.7498   -0.6264 O.3       1 <0>        -0.2972
     10 C8         -0.5133   -4.1710   -0.7327 C.3       1 <0>         0.0200
     11 N1          2.4537   -2.4467   -4.2512 N.ar      1 <0>        -0.5411
     12 C9          3.1528   -1.7038   -5.0759 C.ar      1 <0>         0.3436
     13 N2          3.1258   -0.3808   -5.0518 N.ar      1 <0>        -0.5800
     14 C10         2.3778    0.2817   -4.1791 C.ar      1 <0>         0.4633
     15 N3          2.3588    1.6620   -4.1660 N.pl3     1 <0>        -0.6410
     16 C11         3.0379    2.3798   -5.1546 C.ar      1 <0>         0.1586
     17 C12         3.6582    3.5824   -4.8396 C.ar      1 <0>        -0.1318
     18 C13         4.3288    4.2892   -5.8181 C.ar      1 <0>        -0.0924
     19 C14         4.3832    3.8017   -7.1112 C.ar      1 <0>        -0.1057
     20 C15         3.7663    2.6047   -7.4288 C.ar      1 <0>        -0.0712
     21 C16         3.0988    1.8895   -6.4525 C.ar      1 <0>        -0.0819
     22 Br1         3.8425    1.9431   -9.1987 Br        1 <0>        -0.0435
     23 H1          0.2462    1.7971   -0.3263 H         1 <0>         0.0571
     24 H2         -1.1115    1.7828   -1.4772 H         1 <0>         0.0575
     25 H3         -1.4293    1.7708    0.2741 H         1 <0>         0.1071
     26 H4          0.7324    1.2321   -2.2545 H         1 <0>         0.1391
     27 H5          0.9434   -3.7220   -2.4708 H         1 <0>         0.1564
     28 H6         -1.1468   -4.6395    0.0204 H         1 <0>         0.1075
     29 H7         -0.8353   -4.4858   -1.7253 H         1 <0>         0.0624
     30 H8          0.5224   -4.4716   -0.5744 H         1 <0>         0.0623
     31 H9          3.7787   -2.1938   -5.8070 H         1 <0>         0.1983
     32 H10         1.8741    2.1338   -3.4707 H         1 <0>         0.4207
     33 H11         3.6157    3.9643   -3.8302 H         1 <0>         0.1312
     34 H12         4.8111    5.2240   -5.5735 H         1 <0>         0.1372
     35 H13         4.9081    4.3567   -7.8747 H         1 <0>         0.1349
     36 H14         2.6210    0.9530   -6.6997 H         1 <0>         0.1453
@<TRIPOS>BOND
     1    1    2 1
     2    1   23 1
     3    1   24 1
     4    1   25 1
     5    2    3 1
     6    3    8 ar
     7    3    4 ar
     8    4    5 ar
     9    4   26 1
    10    5   14 ar
    11    5    6 ar
    12    6    7 ar
    13    6   11 ar
    14    7    8 ar
    15    7   27 1
    16    8    9 1
    17    9   10 1
    18   10   28 1
    19   10   29 1
    20   10   30 1
    21   11   12 ar
    22   12   13 ar
    23   12   31 1
    24   13   14 ar
    25   14   15 1
    26   15   16 1
    27   15   32 1
    28   16   21 ar
    29   16   17 ar
    30   17   18 ar
    31   17   33 1
    32   18   19 ar
    33   18   34 1
    34   19   20 ar
    35   19   35 1
    36   20   21 ar
    37   20   22 1
    38   21   36 1
@<TRIPOS>MOLECULE
ZINC00016978
   36    38     0     0     0
SMALL
USER_CHARGES
N-(3-chloro-4-fluoro-phenyl)-6,7-dimethoxy-quinazolin-4-amine
@<TRIPOS>ATOM
      1 C1         -0.1077    7.8043   -0.3043 C.3       1 <0>         0.0213
      2 O1          1.1553    7.1532   -0.1529 O.3       1 <0>        -0.2997
      3 C2          1.1387    5.8027    0.0050 C.ar      1 <0>         0.1127
      4 C3         -0.0547    5.1381    0.0126 C.ar      1 <0>        -0.1498
      5 C4         -0.0730    3.7479    0.1756 C.ar      1 <0>        -0.1807
      6 C5          1.1438    3.0387    0.3316 C.ar      1 <0>         0.2015
      7 C6          2.3555    3.7401    0.3208 C.ar      1 <0>        -0.1836
      8 C7          2.3465    5.1079    0.1588 C.ar      1 <0>         0.1645
      9 O2          3.5207    5.7910    0.1475 O.3       1 <0>        -0.2967
     10 C8          4.7173    5.0267    0.3088 C.3       1 <0>         0.0198
     11 N1          1.0981    1.7061    0.4867 N.ar      1 <0>        -0.5395
     12 C9         -0.0526    1.0764    0.4931 C.ar      1 <0>         0.3425
     13 N2         -1.2130    1.6959    0.3460 N.ar      1 <0>        -0.5817
     14 C10        -1.2816    3.0117    0.1912 C.ar      1 <0>         0.4638
     15 N3         -2.4991    3.6452    0.0437 N.pl3     1 <0>        -0.6386
     16 C11        -3.6729    2.8905   -0.0548 C.ar      1 <0>         0.1586
     17 C12        -3.6501    1.6464   -0.6722 C.ar      1 <0>        -0.0781
     18 C13        -4.8088    0.9005   -0.7643 C.ar      1 <0>        -0.1189
     19 C14        -5.9954    1.3962   -0.2511 C.ar      1 <0>         0.0951
     20 C15        -6.0222    2.6392    0.3606 C.ar      1 <0>        -0.0539
     21 C16        -4.8635    3.3866    0.4595 C.ar      1 <0>        -0.1144
     22 Cl1        -7.5113    3.2580    1.0036 Cl        1 <0>        -0.0424
     23 F1         -7.1286    0.6668   -0.3466 F         1 <0>        -0.1253
     24 H1          0.0480    8.8767   -0.4213 H         1 <0>         0.1075
     25 H2         -0.6150    7.4125   -1.1859 H         1 <0>         0.0578
     26 H3         -0.7195    7.6202    0.5788 H         1 <0>         0.0576
     27 H4         -0.9797    5.6826   -0.1070 H         1 <0>         0.1396
     28 H5          3.2905    3.2125    0.4383 H         1 <0>         0.1568
     29 H6          4.6901    4.5069    1.2665 H         1 <0>         0.0625
     30 H7          4.7946    4.2980   -0.4981 H         1 <0>         0.0626
     31 H8          5.5801    5.6924    0.2811 H         1 <0>         0.1078
     32 H9         -0.0529    0.0039    0.6197 H         1 <0>         0.1993
     33 H10        -2.5408    4.6137    0.0082 H         1 <0>         0.4219
     34 H11        -2.7259    1.2610   -1.0767 H         1 <0>         0.1541
     35 H12        -4.7901   -0.0685   -1.2408 H         1 <0>         0.1508
     36 H13        -4.8843    4.3556    0.9360 H         1 <0>         0.1453
@<TRIPOS>BOND
     1    1    2 1
     2    1   24 1
     3    1   25 1
     4    1   26 1
     5    2    3 1
     6    3    8 ar
     7    3    4 ar
     8    4    5 ar
     9    4   27 1
    10    5   14 ar
    11    5    6 ar
    12    6    7 ar
    13    6   11 ar
    14    7    8 ar
    15    7   28 1
    16    8    9 1
    17    9   10 1
    18   10   29 1
    19   10   30 1
    20   10   31 1
    21   11   12 ar
    22   12   13 ar
    23   12   32 1
    24   13   14 ar
    25   14   15 1
    26   15   16 1
    27   15   33 1
    28   16   21 ar
    29   16   17 ar
    30   17   18 ar
    31   17   34 1
    32   18   19 ar
    33   18   35 1
    34   19   20 ar
    35   19   23 1
    36   20   21 ar
    37   20   22 1
    38   21   36 1
@<TRIPOS>MOLECULE
ZINC00004763
   26    27     0     0     0
SMALL
USER_CHARGES

@<TRIPOS>ATOM
      1 C1         -0.0168    1.3874    0.0097 C.ar      1 <0>        -0.1123
      2 C2          1.1696    2.0895    0.0021 C.ar      1 <0>        -0.0235
      3 C3          2.3883    1.4211   -0.0136 C.ar      1 <0>        -0.1492
      4 C4          2.4325    0.0564   -0.0218 C.ar      1 <0>         0.0306
      5 C5          1.2388   -0.6801   -0.0139 C.ar      1 <0>        -0.0923
      6 C6          0.0021   -0.0041    0.0020 C.ar      1 <0>         0.0948
      7 N1         -0.9883   -0.9571    0.0059 N.pl3     1 <0>        -0.5590
      8 H1         -1.9421   -0.7808    0.0154 H         1 <0>         0.4191
      9 C7         -0.4002   -2.2096   -0.0067 C.2       1 <0>         0.0424
     10 C8          0.9535   -2.0650   -0.0189 C.2       1 <0>        -0.1168
     11 C9          1.9663   -3.1809   -0.0360 C.3       1 <0>        -0.0268
     12 C10         2.3242   -3.5668    1.4007 C.3       1 <0>        -0.1578
     13 C11         3.3369   -4.6826    1.3836 C.2       1 <0>         0.4989
     14 O1          3.7355   -5.1279    0.3209 O.co2     1 <0>        -0.7011
     15 O2          3.7577   -5.1401    2.4325 O.co2     1 <0>        -0.7247
     16 C12        -1.1190   -3.4864   -0.0069 C.2       1 <0>         0.5408
     17 O3         -2.3433   -3.4997    0.0044 O.co2     1 <0>        -0.7017
     18 O4         -0.4953   -4.5400   -0.0183 O.co2     1 <0>        -0.6351
     19 Cl1         3.9618   -0.7649   -0.0425 Cl        1 <0>        -0.0477
     20 Cl2         1.1412    3.8252    0.0117 Cl        1 <0>        -0.0862
     21 H2         -0.9585    1.9160    0.0260 H         1 <0>         0.1268
     22 H3          3.3086    1.9864   -0.0197 H         1 <0>         0.1327
     23 H4          1.5461   -4.0451   -0.5504 H         1 <0>         0.0914
     24 H5          2.8640   -2.8488   -0.5573 H         1 <0>         0.0602
     25 H6          2.7444   -2.7026    1.9151 H         1 <0>         0.0412
     26 H7          1.4264   -3.8989    1.9220 H         1 <0>         0.0553
@<TRIPOS>BOND
     1    1    6 ar
     2    1    2 ar
     3    1   21 1
     4    2    3 ar
     5    2   20 1
     6    3    4 ar
     7    3   22 1
     8    4    5 ar
     9    4   19 1
    10    5   10 1
    11    5    6 ar
    12    6    7 1
    13    7    8 1
    14    7    9 1
    15    9   10 2
    16    9   16 1
    17   10   11 1
    18   11   12 1
    19   11   23 1
    20   11   24 1
    21   12   13 1
    22   12   25 1
    23   12   26 1
    24   13   14 2
    25   13   15 1
    26   16   17 2
    27   16   18 1
@<TRIPOS>MOLECULE
ZINC02572485
   42    44     0     0     0
SMALL
USER_CHARGES
N-(3-bromophenyl)-6,7-diethoxy-quinazolin-4-amine
@<TRIPOS>ATOM
      1 C1          7.0657    4.2294    0.4737 C.3       1 <0>        -0.1526
      2 C2          5.8725    3.2858    0.3104 C.3       1 <0>         0.0499
      3 O1          4.6759    4.0526    0.1608 O.3       1 <0>        -0.2987
      4 C3          3.5154    3.3614    0.0039 C.ar      1 <0>         0.1146
      5 C4          3.5385    1.9956   -0.0045 C.ar      1 <0>        -0.1500
      6 C5          2.3443    1.2830   -0.1660 C.ar      1 <0>        -0.1818
      7 C6          1.1206    1.9806   -0.3200 C.ar      1 <0>         0.2015
      8 C7          1.1201    3.3807   -0.3075 C.ar      1 <0>        -0.1846
      9 C8          2.3085    4.0583   -0.1471 C.ar      1 <0>         0.1670
     10 O2          2.3110    5.4167   -0.1347 O.3       1 <0>        -0.2958
     11 C9          1.0496    6.0693   -0.2931 C.3       1 <0>         0.0479
     12 C10         1.2511    7.5854   -0.2533 C.3       1 <0>        -0.1523
     13 N1         -0.0100    1.2732   -0.4726 N.ar      1 <0>        -0.5407
     14 C11         0.0218   -0.0382   -0.4786 C.ar      1 <0>         0.3428
     15 N2          1.1403   -0.7318   -0.3387 N.ar      1 <0>        -0.5799
     16 C12         2.3130   -0.1318   -0.1814 C.ar      1 <0>         0.4626
     17 N3          3.4719   -0.8679   -0.0362 N.pl3     1 <0>        -0.6400
     18 C13         3.4074   -2.2607    0.0624 C.ar      1 <0>         0.1594
     19 C14         4.4332   -3.0433   -0.4528 C.ar      1 <0>        -0.1340
     20 C15         4.3671   -4.4190   -0.3535 C.ar      1 <0>        -0.0917
     21 C16         3.2815   -5.0185    0.2584 C.ar      1 <0>        -0.1073
     22 C17         2.2581   -4.2425    0.7730 C.ar      1 <0>        -0.0705
     23 C18         2.3205   -2.8649    0.6807 C.ar      1 <0>        -0.0847
     24 Br1         0.7761   -5.0671    1.6093 Br        1 <0>        -0.0436
     25 H1          7.9785    3.6446    0.5877 H         1 <0>         0.0807
     26 H2          7.1494    4.8653   -0.4077 H         1 <0>         0.0686
     27 H3          6.9194    4.8506    1.3573 H         1 <0>         0.0687
     28 H4          5.7888    2.6500    1.1917 H         1 <0>         0.0634
     29 H5          6.0188    2.6646   -0.5733 H         1 <0>         0.0631
     30 H6          4.4735    1.4680    0.1133 H         1 <0>         0.1381
     31 H7          0.1948    3.9253   -0.4232 H         1 <0>         0.1554
     32 H8          0.6117    5.7859   -1.2503 H         1 <0>         0.0685
     33 H9          0.3818    5.7702    0.5147 H         1 <0>         0.0685
     34 H10         1.9190    7.8845   -1.0612 H         1 <0>         0.0680
     35 H11         0.2890    8.0831   -0.3742 H         1 <0>         0.0819
     36 H12         1.6890    7.8687    0.7038 H         1 <0>         0.0680
     37 H13        -0.9064   -0.5760   -0.6035 H         1 <0>         0.1983
     38 H14         4.3309   -0.4186   -0.0026 H         1 <0>         0.4206
     39 H15         5.2815   -2.5761   -0.9308 H         1 <0>         0.1310
     40 H16         5.1645   -5.0276   -0.7539 H         1 <0>         0.1370
     41 H17         3.2325   -6.0947    0.3350 H         1 <0>         0.1346
     42 H18         1.5236   -2.2591    1.0862 H         1 <0>         0.1484
@<TRIPOS>BOND
     1    1    2 1
     2    1   25 1
     3    1   26 1
     4    1   27 1
     5    2    3 1
     6    2   28 1
     7    2   29 1
     8    3    4 1
     9    4    9 ar
    10    4    5 ar
    11    5    6 ar
    12    5   30 1
    13    6   16 ar
    14    6    7 ar
    15    7    8 ar
    16    7   13 ar
    17    8    9 ar
    18    8   31 1
    19    9   10 1
    20   10   11 1
    21   11   12 1
    22   11   32 1
    23   11   33 1
    24   12   34 1
    25   12   35 1
    26   12   36 1
    27   13   14 ar
    28   14   15 ar
    29   14   37 1
    30   15   16 ar
    31   16   17 1
    32   17   18 1
    33   17   38 1
    34   18   23 ar
    35   18   19 ar
    36   19   20 ar
    37   19   39 1
    38   20   21 ar
    39   20   40 1
    40   21   22 ar
    41   21   41 1
    42   22   23 ar
    43   22   24 1
    44   23   42 1
@<TRIPOS>MOLECULE
ZINC36709982
   33    34     0     0     0
SMALL
USER_CHARGES

@<TRIPOS>ATOM
      1 C1         -0.0187    1.5258    0.0104 C.3       1 <0>        -0.1481
      2 C2          0.0021   -0.0041    0.0020 C.3       1 <0>        -0.0934
      3 C3          0.7421   -0.5109    1.2415 C.3       1 <0>        -0.1451
      4 C4         -1.4333   -0.5336    0.0129 C.3       1 <0>        -0.0206
      5 C5         -2.1247   -0.1373   -1.2662 C.2       1 <0>        -0.1669
      6 C6         -2.2033   -0.8041   -2.4582 C.2       1 <0>         0.1670
      7 N1         -2.8786   -0.2551   -3.4671 N.2       1 <0>        -0.5550
      8 C7         -3.4702    0.9174   -3.3343 C.2       1 <0>         0.3758
      9 S1         -3.0746    1.3302   -1.6411 S.3       1 <0>        -0.0156
     10 N2         -4.2071    1.6362   -4.2613 N.pl3     1 <0>        -0.7992
     11 C8         -1.5467   -2.1175   -2.6250 C.2       1 <0>         0.0237
     12 C9         -2.0112   -3.1523   -3.3747 C.2       1 <0>        -0.1754
     13 C10        -1.0743   -4.1986   -3.2477 C.2       1 <0>        -0.1680
     14 C11        -0.0956   -3.7554   -2.4358 C.2       1 <0>        -0.5213
     15 O1         -0.3814   -2.4952   -2.0654 O.3       1 <0>        -0.1383
     16 P1          1.3689   -4.6996   -1.9315 P.3       1 <0>         2.3157
     17 O2          0.9321   -5.9095   -1.0758 O.2       1 <0>        -1.0831
     18 O3          2.1165   -5.2002   -3.1875 O.3       1 <0>        -1.0838
     19 O4          2.3448   -3.7551   -1.0669 O.3       1 <0>        -0.8987
     20 H1          1.0039    1.9031    0.0027 H         1 <0>         0.0554
     21 H2         -0.5459    1.8868   -0.8726 H         1 <0>         0.0534
     22 H3         -0.5289    1.8773    0.9072 H         1 <0>         0.0520
     23 H4          0.5123   -0.3556   -0.8948 H         1 <0>         0.0797
     24 H5          0.2319   -0.1594    2.1383 H         1 <0>         0.0506
     25 H6          0.7568   -1.6008    1.2356 H         1 <0>         0.0645
     26 H7          1.7647   -0.1336    1.2338 H         1 <0>         0.0582
     27 H8         -1.4190   -1.6203    0.0965 H         1 <0>         0.0907
     28 H9         -1.9701   -0.1109    0.8621 H         1 <0>         0.0781
     29 H10        -4.3439    1.2803   -5.1533 H         1 <0>         0.4164
     30 H11        -4.5862    2.4954   -4.0186 H         1 <0>         0.4196
     31 H12        -2.9217   -3.1696   -3.9553 H         1 <0>         0.1453
     32 H13        -1.1310   -5.1714   -3.7133 H         1 <0>         0.1519
     33 H14         3.1504   -4.1953   -0.7629 H         1 <0>         0.4146
@<TRIPOS>BOND
     1    1    2 1
     2    1   20 1
     3    1   21 1
     4    1   22 1
     5    2    3 1
     6    2    4 1
     7    2   23 1
     8    3   24 1
     9    3   25 1
    10    3   26 1
    11    4    5 1
    12    4   27 1
    13    4   28 1
    14    5    9 1
    15    5    6 2
    16    6    7 1
    17    6   11 1
    18    7    8 2
    19    8    9 1
    20    8   10 1
    21   10   29 1
    22   10   30 1
    23   11   15 1
    24   11   12 2
    25   12   13 1
    26   12   31 1
    27   13   14 2
    28   13   32 1
    29   14   15 1
    30   14   16 1
    31   16   17 2
    32   16   18 1
    33   16   19 1
    34   19   33 1
@<TRIPOS>MOLECULE
ZINC03860156
   35    37     0     0     0
SMALL
USER_CHARGES

@<TRIPOS>ATOM
      1 C1         -0.0158    1.3119    0.0093 C.ar      1 <0>         0.3495
      2 N1          1.0888    2.0360    0.0026 N.ar      1 <0>        -0.5972
      3 C2          2.2875    1.4625   -0.0119 C.ar      1 <0>         0.5031
      4 C3          2.3582    0.0588   -0.0202 C.ar      1 <0>        -0.1045
      5 C4          1.1547   -0.6659   -0.0126 C.ar      1 <0>         0.3051
      6 N2          0.0021   -0.0041    0.0020 N.ar      1 <0>        -0.5415
      7 N3          1.5110   -1.9908   -0.0227 N.pl3     1 <0>        -0.4631
      8 C5          2.8729   -2.0476   -0.0358 C.2       1 <0>         0.2823
      9 N4          3.3680   -0.8441   -0.0343 N.2       1 <0>        -0.4721
     10 C6          0.5956   -3.1347   -0.0195 C.3       1 <0>         0.3051
     11 H1         -0.2832   -2.9148    0.5866 H         1 <0>         0.1193
     12 C7          0.1775   -3.4928   -1.4629 C.3       1 <0>         0.0373
     13 H2          0.9267   -3.1463   -2.1747 H         1 <0>         0.0793
     14 C8          0.1056   -5.0362   -1.4608 C.3       1 <0>         0.0465
     15 H3          0.8193   -5.4528   -2.1716 H         1 <0>         0.0902
     16 C9          0.4888   -5.4280   -0.0165 C.3       1 <0>         0.0898
     17 H4         -0.4066   -5.5617    0.5906 H         1 <0>         0.0982
     18 O1          1.2661   -4.3138    0.4763 O.3       1 <0>        -0.3330
     19 C10         1.3272   -6.7078   -0.0164 C.3       1 <0>         0.1401
     20 O2          1.5723   -7.1166    1.3308 O.3       1 <0>        -0.7498
     21 P1          2.4256   -8.4288    1.7075 P.3       1 <0>         2.1254
     22 O3          1.8087   -9.6769    0.9891 O.2       1 <0>        -1.1870
     23 O4          3.9092   -8.2385    1.2417 O.3       1 <0>        -1.1843
     24 O5          2.3892   -8.6480    3.2583 O.3       1 <0>        -1.1648
     25 O6         -1.2191   -5.4762   -1.7672 O.3       1 <0>        -0.5321
     26 O7         -1.0998   -2.9297   -1.7685 O.3       1 <0>        -0.5309
     27 N5          3.4393    2.2295   -0.0193 N.pl3     1 <0>        -0.8229
     28 H5         -0.9693    1.8187    0.0257 H         1 <0>         0.2009
     29 H6          3.4551   -2.9572   -0.0459 H         1 <0>         0.2313
     30 H7          0.7880   -7.4954   -0.5427 H         1 <0>         0.0627
     31 H8          2.2767   -6.5201   -0.5176 H         1 <0>         0.0452
     32 H9         -1.5313   -5.2049   -2.6412 H         1 <0>         0.3714
     33 H10        -1.4113   -3.1237   -2.6632 H         1 <0>         0.3765
     34 H11         3.3774    3.1975   -0.0138 H         1 <0>         0.4060
     35 H12         4.3085    1.7992   -0.0299 H         1 <0>         0.4181
@<TRIPOS>BOND
     1    1    6 ar
     2    1    2 ar
     3    1   28 1
     4    2    3 ar
     5    3    4 ar
     6    3   27 1
     7    4    9 1
     8    4    5 ar
     9    5    6 ar
    10    5    7 1
    11    7    8 1
    12    7   10 1
    13    8    9 2
    14    8   29 1
    15   10   11 1
    16   10   18 1
    17   10   12 1
    18   12   13 1
    19   12   14 1
    20   12   26 1
    21   14   15 1
    22   14   16 1
    23   14   25 1
    24   16   17 1
    25   16   18 1
    26   16   19 1
    27   19   20 1
    28   19   30 1
    29   19   31 1
    30   20   21 1
    31   21   22 2
    32   21   23 1
    33   21   24 1
    34   25   32 1
    35   26   33 1
    36   27   34 1
    37   27   35 1
@<TRIPOS>MOLECULE
ZINC03860156
   36    38     0     0     0
SMALL
USER_CHARGES

@<TRIPOS>ATOM
      1 C1         -0.0158    1.3119    0.0093 C.ar      1 <0>         0.3576
      2 N1          1.0888    2.0360    0.0026 N.ar      1 <0>        -0.5943
      3 C2          2.2875    1.4625   -0.0119 C.ar      1 <0>         0.5063
      4 C3          2.3582    0.0588   -0.0202 C.ar      1 <0>        -0.1070
      5 C4          1.1547   -0.6659   -0.0126 C.ar      1 <0>         0.3090
      6 N2          0.0021   -0.0041    0.0020 N.ar      1 <0>        -0.5459
      7 N3          1.5110   -1.9908   -0.0227 N.pl3     1 <0>        -0.4678
      8 C5          2.8729   -2.0476   -0.0358 C.2       1 <0>         0.2728
      9 N4          3.3680   -0.8441   -0.0343 N.2       1 <0>        -0.4661
     10 C6          0.5956   -3.1347   -0.0195 C.3       1 <0>         0.3106
     11 H1         -0.2832   -2.9148    0.5866 H         1 <0>         0.1217
     12 C7          0.1775   -3.4928   -1.4629 C.3       1 <0>         0.0369
     13 H2          0.9267   -3.1463   -2.1747 H         1 <0>         0.0829
     14 C8          0.1056   -5.0362   -1.4608 C.3       1 <0>         0.0468
     15 H3          0.8193   -5.4528   -2.1716 H         1 <0>         0.0920
     16 C9          0.4888   -5.4280   -0.0165 C.3       1 <0>         0.0876
     17 H4         -0.4066   -5.5617    0.5906 H         1 <0>         0.1032
     18 O1          1.2661   -4.3138    0.4763 O.3       1 <0>        -0.3404
     19 C10         1.3272   -6.7078   -0.0164 C.3       1 <0>         0.1463
     20 O2          1.5723   -7.1166    1.3308 O.3       1 <0>        -0.7534
     21 P1          2.4256   -8.4288    1.7075 P.3       1 <0>         2.2117
     22 O3          3.8133   -8.3520    1.0326 O.2       1 <0>        -1.1063
     23 O4          2.6094   -8.5091    3.3050 O.3       1 <0>        -0.8963
     24 O5          1.6804   -9.6878    1.2109 O.3       1 <0>        -1.1050
     25 O6         -1.2191   -5.4762   -1.7672 O.3       1 <0>        -0.5339
     26 O7         -1.0998   -2.9297   -1.7685 O.3       1 <0>        -0.5288
     27 N5          3.4393    2.2295   -0.0193 N.pl3     1 <0>        -0.8200
     28 H5         -0.9693    1.8187    0.0257 H         1 <0>         0.2035
     29 H6          3.4551   -2.9572   -0.0459 H         1 <0>         0.2281
     30 H7          0.7880   -7.4954   -0.5427 H         1 <0>         0.0791
     31 H8          2.2767   -6.5201   -0.5176 H         1 <0>         0.0672
     32 H9         -1.5313   -5.2049   -2.6412 H         1 <0>         0.3790
     33 H10        -1.4113   -3.1237   -2.6632 H         1 <0>         0.3804
     34 H11         3.3774    3.1975   -0.0138 H         1 <0>         0.4086
     35 H12         4.3085    1.7992   -0.0299 H         1 <0>         0.4187
     36 H13         3.1153   -9.2769    3.6046 H         1 <0>         0.4152
@<TRIPOS>BOND
     1    1    6 ar
     2    1    2 ar
     3    1   28 1
     4    2    3 ar
     5    3    4 ar
     6    3   27 1
     7    4    9 1
     8    4    5 ar
     9    5    6 ar
    10    5    7 1
    11    7    8 1
    12    7   10 1
    13    8    9 2
    14    8   29 1
    15   10   11 1
    16   10   18 1
    17   10   12 1
    18   12   13 1
    19   12   14 1
    20   12   26 1
    21   14   15 1
    22   14   16 1
    23   14   25 1
    24   16   17 1
    25   16   18 1
    26   16   19 1
    27   19   20 1
    28   19   30 1
    29   19   31 1
    30   20   21 1
    31   21   22 2
    32   21   23 1
    33   21   24 1
    34   23   36 1
    35   25   32 1
    36   26   33 1
    37   27   34 1
    38   27   35 1
@<TRIPOS>MOLECULE
ZINC00116937
   36    38     0     0     0
SMALL
USER_CHARGES

@<TRIPOS>ATOM
      1 C1         -0.7608    1.4205   -0.5123 C.3       1 <0>         0.0216
      2 O1         -0.7400   -0.0084   -0.5178 O.3       1 <0>        -0.3001
      3 C2          0.0526   -0.6107   -1.4441 C.ar      1 <0>         0.1111
      4 C3          0.7839    0.1547   -2.3076 C.ar      1 <0>        -0.1486
      5 C4          1.6002   -0.4643   -3.2616 C.ar      1 <0>        -0.1822
      6 C5          1.6637   -1.8784   -3.3265 C.ar      1 <0>         0.2012
      7 C6          0.9057   -2.6433   -2.4316 C.ar      1 <0>        -0.1835
      8 C7          0.1147   -2.0100   -1.4986 C.ar      1 <0>         0.1636
      9 O2         -0.6173   -2.7496   -0.6252 O.3       1 <0>        -0.2971
     10 C8         -0.5115   -4.1707   -0.7309 C.3       1 <0>         0.0200
     11 N1          2.4546   -2.4467   -4.2503 N.ar      1 <0>        -0.5412
     12 C9          3.1535   -1.7039   -5.0751 C.ar      1 <0>         0.3434
     13 N2          3.1262   -0.3808   -5.0513 N.ar      1 <0>        -0.5797
     14 C10         2.3780    0.2817   -4.1789 C.ar      1 <0>         0.4634
     15 N3          2.3589    1.6620   -4.1659 N.pl3     1 <0>        -0.6409
     16 C11         3.0380    2.3797   -5.1546 C.ar      1 <0>         0.1655
     17 C12         3.6590    3.5820   -4.8395 C.ar      1 <0>        -0.1427
     18 C13         4.3291    4.2891   -5.8181 C.ar      1 <0>        -0.0859
     19 C14         4.3829    3.8022   -7.1113 C.ar      1 <0>        -0.1252
     20 C15         3.7655    2.6051   -7.4292 C.ar      1 <0>        -0.0151
     21 C16         3.0980    1.8898   -6.4526 C.ar      1 <0>        -0.1024
     22 Cl1         3.8351    1.9980   -9.0541 Cl        1 <0>        -0.0632
     23 H1          0.2448    1.7978   -0.3271 H         1 <0>         0.0572
     24 H2         -1.1125    1.7824   -1.4785 H         1 <0>         0.0575
     25 H3         -1.4308    1.7711    0.2727 H         1 <0>         0.1071
     26 H4          0.7321    1.2322   -2.2548 H         1 <0>         0.1392
     27 H5          0.9444   -3.7219   -2.4697 H         1 <0>         0.1564
     28 H6         -1.1448   -4.6392    0.0225 H         1 <0>         0.1075
     29 H7         -0.8334   -4.4862   -1.7233 H         1 <0>         0.0623
     30 H8          0.5243   -4.4708   -0.5724 H         1 <0>         0.0623
     31 H9          3.7796   -2.1939   -5.8061 H         1 <0>         0.1983
     32 H10         1.8743    2.1338   -3.4706 H         1 <0>         0.4210
     33 H11         3.6174    3.9634   -3.8299 H         1 <0>         0.1309
     34 H12         4.8116    5.2238   -5.5733 H         1 <0>         0.1375
     35 H13         4.9074    4.3574   -7.8749 H         1 <0>         0.1354
     36 H14         2.6204    0.9532   -6.6996 H         1 <0>         0.1455
@<TRIPOS>BOND
     1    1    2 1
     2    1   23 1
     3    1   24 1
     4    1   25 1
     5    2    3 1
     6    3    8 ar
     7    3    4 ar
     8    4    5 ar
     9    4   26 1
    10    5   14 ar
    11    5    6 ar
    12    6    7 ar
    13    6   11 ar
    14    7    8 ar
    15    7   27 1
    16    8    9 1
    17    9   10 1
    18   10   28 1
    19   10   29 1
    20   10   30 1
    21   11   12 ar
    22   12   13 ar
    23   12   31 1
    24   13   14 ar
    25   14   15 1
    26   15   16 1
    27   15   32 1
    28   16   21 ar
    29   16   17 ar
    30   17   18 ar
    31   17   33 1
    32   18   19 ar
    33   18   34 1
    34   19   20 ar
    35   19   35 1
    36   20   21 ar
    37   20   22 1
    38   21   36 1
