@<TRIPOS>MOLECULE
ZINC04099011
   27    27     0     0     0
SMALL
USER_CHARGES

@<TRIPOS>ATOM
      1 C1          0.1488    1.0445    0.9238 C.3       1 <0>        -0.0260
      2 C2          0.0832   -0.4444    0.7004 C.2       1 <0>        -0.5174
      3 C3         -1.1258   -1.0289    0.4474 C.2       1 <0>         0.4032
      4 C4         -1.0864   -2.5327    0.2365 C.3       1 <0>        -0.0239
      5 S1          0.7119   -2.8593    0.4407 S.3       1 <0>        -0.3002
      6 C5          1.2445   -1.1843    0.7504 C.2       1 <0>         0.3948
      7 O1          2.4982   -0.7433    0.9829 O.3       1 <0>        -0.6001
      8 C6         -1.9051   -3.2620    1.3037 C.3       1 <0>        -0.1181
      9 C7         -1.5525   -2.9004   -1.1487 C.2       1 <0>        -0.1138
     10 C8         -2.7786   -2.5762   -1.5450 C.2       1 <0>        -0.0973
     11 C9         -3.6478   -1.7082   -0.6720 C.3       1 <0>        -0.1186
     12 C10        -3.2876   -3.0647   -2.8360 C.2       1 <0>        -0.1091
     13 C11        -4.5136   -2.7405   -3.2323 C.2       1 <0>        -0.1949
     14 O2         -2.1603   -0.3903    0.3952 O.2       1 <0>        -0.5250
     15 H1          1.1822    1.3394    1.1061 H         1 <0>         0.0456
     16 H2         -0.2261    1.5613    0.0403 H         1 <0>         0.0277
     17 H3         -0.4624    1.3097    1.7865 H         1 <0>         0.0284
     18 H4         -2.9088   -2.8389    1.3436 H         1 <0>         0.0792
     19 H5         -1.9668   -4.3211    1.0535 H         1 <0>         0.0617
     20 H6         -1.4228   -3.1454    2.2742 H         1 <0>         0.0660
     21 H7         -0.8899   -3.4274   -1.8192 H         1 <0>         0.1180
     22 H8         -3.5275   -0.6646   -0.9628 H         1 <0>         0.0831
     23 H9         -4.6908   -2.0010   -0.7922 H         1 <0>         0.0314
     24 H10        -3.3536   -1.8311    0.3703 H         1 <0>         0.0978
     25 H11        -2.6646   -3.6868   -3.4616 H         1 <0>         0.1094
     26 H12        -4.8873   -3.0991   -4.1800 H         1 <0>         0.0958
     27 H13        -5.1366   -2.1184   -2.6067 H         1 <0>         0.1023
@<TRIPOS>BOND
     1    1    2 1
     2    1   15 1
     3    1   16 1
     4    1   17 1
     5    2    6 2
     6    2    3 1
     7    3    4 1
     8    3   14 2
     9    4    5 1
    10    4    8 1
    11    4    9 1
    12    5    6 1
    13    6    7 1
    14    8   18 1
    15    8   19 1
    16    8   20 1
    17    9   10 2
    18    9   21 1
    19   10   11 1
    20   10   12 1
    21   11   22 1
    22   11   23 1
    23   11   24 1
    24   12   13 2
    25   12   25 1
    26   13   26 1
    27   13   27 1
@<TRIPOS>MOLECULE
ZINC38145872
   28    28     0     0     0
SMALL
USER_CHARGES

@<TRIPOS>ATOM
      1 C1          1.4897    1.1902   -1.2889 C.3       1 <0>        -0.1325
      2 C2          1.1745   -0.2772   -0.9917 C.3       1 <0>        -0.2353
      3 C3          1.9098   -1.1273   -1.9878 C.2       1 <0>         0.3517
      4 S1          2.8997   -2.1473   -1.1045 S.3       1 <0>        -0.0936
      5 C4          2.5193   -1.6403    0.6114 C.3       1 <0>        -0.0487
      6 C5          1.4946   -0.5429    0.4402 C.2       1 <0>         0.3944
      7 O1          0.9903    0.0530    1.3615 O.2       1 <0>        -0.3933
      8 C6          3.7730   -1.1024    1.3040 C.3       1 <0>        -0.1249
      9 C7          1.9365   -2.7930    1.3877 C.2       1 <0>        -0.1535
     10 C8          1.0963   -3.6352    0.7960 C.2       1 <0>        -0.0527
     11 C9          0.5892   -3.3426   -0.5926 C.3       1 <0>        -0.1523
     12 C10         0.6610   -4.8535    1.4965 C.2       1 <0>        -0.1320
     13 C11        -0.1792   -5.6957    0.9048 C.2       1 <0>        -0.1617
     14 O2          1.8062   -1.0834   -3.1959 O.2       1 <0>        -0.3917
     15 H1          2.5463    1.3803   -1.1001 H         1 <0>         0.0684
     16 H2          1.2625    1.4064   -2.3328 H         1 <0>         0.0833
     17 H3          0.8850    1.8292   -0.6455 H         1 <0>         0.0823
     18 H4          4.1637   -0.2546    0.7411 H         1 <0>         0.0733
     19 H5          3.5206   -0.7821    2.3148 H         1 <0>         0.0866
     20 H6          4.5280   -1.8873    1.3494 H         1 <0>         0.0869
     21 H7          2.2018   -2.9345    2.4250 H         1 <0>         0.1414
     22 H8          1.3093   -3.7049   -1.3262 H         1 <0>         0.0996
     23 H9         -0.3668   -3.8440   -0.7435 H         1 <0>         0.0742
     24 H10         0.4583   -2.2671   -0.7124 H         1 <0>         0.0504
     25 H11         1.0244   -5.0632    2.4917 H         1 <0>         0.1213
     26 H12        -0.5426   -5.4860   -0.0903 H         1 <0>         0.1047
     27 H13        -0.4988   -6.5901    1.4191 H         1 <0>         0.1075
     28 H14         0.1051   -0.4303   -1.1366 H         1 <0>         0.1462
@<TRIPOS>BOND
     1    1    2 1
     2    1   15 1
     3    1   16 1
     4    1   17 1
     5    2    6 1
     6    2    3 1
     7    2   28 1
     8    3    4 1
     9    3   14 2
    10    4    5 1
    11    5    6 1
    12    5    8 1
    13    5    9 1
    14    6    7 2
    15    8   18 1
    16    8   19 1
    17    8   20 1
    18    9   10 2
    19    9   21 1
    20   10   11 1
    21   10   12 1
    22   11   22 1
    23   11   23 1
    24   11   24 1
    25   12   13 2
    26   12   25 1
    27   13   26 1
    28   13   27 1
@<TRIPOS>MOLECULE
ZINC38145872
   28    28     0     0     0
SMALL
USER_CHARGES

@<TRIPOS>ATOM
      1 C1          0.1097    0.5736    0.7848 C.3       1 <0>        -0.1408
      2 C2          0.4385   -0.9080    0.5910 C.3       1 <0>        -0.2348
      3 C3          0.7883   -1.1251   -0.8421 C.2       1 <0>         0.3939
      4 C4          2.1756   -1.6971   -1.0202 C.3       1 <0>        -0.0495
      5 S1          2.7987   -1.8598    0.6919 S.3       1 <0>        -0.0919
      6 C5          1.5019   -1.2872    1.5814 C.2       1 <0>         0.3491
      7 O1          1.4342   -1.1960    2.7893 O.2       1 <0>        -0.3917
      8 C6          2.1100   -3.0656   -1.7013 C.3       1 <0>        -0.1254
      9 C7          3.0414   -0.7508   -1.8115 C.2       1 <0>        -0.1557
     10 C8          3.6790    0.2389   -1.1955 C.2       1 <0>        -0.0526
     11 C9          3.3920    0.5330    0.2543 C.3       1 <0>        -0.1497
     12 C10         4.6652    1.0476   -1.9290 C.2       1 <0>        -0.1328
     13 C11         5.3028    2.0373   -1.3130 C.2       1 <0>        -0.1614
     14 O2          0.0447   -0.8721   -1.7594 O.2       1 <0>        -0.3942
     15 H1          1.0124    1.1678    0.6428 H         1 <0>         0.0751
     16 H2         -0.6432    0.8769    0.0572 H         1 <0>         0.0824
     17 H3         -0.2746    0.7317    1.7925 H         1 <0>         0.0842
     18 H4          1.6422   -2.9621   -2.6803 H         1 <0>         0.0863
     19 H5          3.1188   -3.4608   -1.8205 H         1 <0>         0.0869
     20 H6          1.5223   -3.7487   -1.0881 H         1 <0>         0.0743
     21 H7          3.1436   -0.8771   -2.8792 H         1 <0>         0.1415
     22 H8          4.0503   -0.0658    0.8838 H         1 <0>         0.0991
     23 H9          3.5644    1.5911    0.4514 H         1 <0>         0.0700
     24 H10         2.3538    0.2865    0.4765 H         1 <0>         0.0574
     25 H11         4.8708    0.8368   -2.9680 H         1 <0>         0.1206
     26 H12         5.0971    2.2481   -0.2740 H         1 <0>         0.1049
     27 H13         6.0267    2.6309   -1.8514 H         1 <0>         0.1070
     28 H14        -0.4579   -1.4864    0.8144 H         1 <0>         0.1479
@<TRIPOS>BOND
     1    1    2 1
     2    1   15 1
     3    1   16 1
     4    1   17 1
     5    2    6 1
     6    2    3 1
     7    2   28 1
     8    3    4 1
     9    3   14 2
    10    4    5 1
    11    4    8 1
    12    4    9 1
    13    5    6 1
    14    6    7 2
    15    8   18 1
    16    8   19 1
    17    8   20 1
    18    9   10 2
    19    9   21 1
    20   10   11 1
    21   10   12 1
    22   11   22 1
    23   11   23 1
    24   11   24 1
    25   12   13 2
    26   12   25 1
    27   13   26 1
    28   13   27 1
@<TRIPOS>MOLECULE
ZINC01714192
   34    36     0     0     0
SMALL
USER_CHARGES
2-(p-tolylsulfonyl)naphthalene-1,4-dione
@<TRIPOS>ATOM
      1 C1          3.1840   -1.9264    5.1868 C.3       1 <0>        -0.1272
      2 C2          3.0843   -1.1707    3.8868 C.ar      1 <0>        -0.0222
      3 C3          2.4979   -1.7651    2.7851 C.ar      1 <0>        -0.1431
      4 C4          2.4065   -1.0720    1.5925 C.ar      1 <0>        -0.0010
      5 C5          2.9006    0.2158    1.5020 C.ar      1 <0>        -0.6673
      6 C6          3.4913    0.8084    2.6023 C.ar      1 <0>        -0.0173
      7 C7          3.5789    0.1169    3.7960 C.ar      1 <0>        -0.1441
      8 S1          2.7840    1.0993   -0.0181 S.o2      1 <0>         2.5800
      9 O1          2.6858    0.1249   -1.0477 O.2       1 <0>        -0.9091
     10 O2          3.8091    2.0832    0.0044 O.2       1 <0>        -0.9263
     11 C8          1.2514    1.9683    0.0007 C.2       1 <0>        -0.6947
     12 C9          1.2516    3.3080    0.0070 C.2       1 <0>         0.0155
     13 C10        -0.0139    4.0660    0.0227 C.2       1 <0>         0.4069
     14 O3          0.0031    5.2807    0.0279 O.2       1 <0>        -0.3934
     15 C11        -1.3031    3.3417    0.0315 C.ar      1 <0>        -0.1301
     16 C12        -2.5092    4.0320    0.0458 C.ar      1 <0>        -0.0614
     17 C13        -3.7045    3.3297    0.0367 C.ar      1 <0>        -0.0967
     18 C14        -3.7047    1.9481    0.0296 C.ar      1 <0>        -0.0924
     19 C15        -2.5097    1.2453    0.0206 C.ar      1 <0>        -0.0635
     20 C16        -1.3034    1.9354    0.0187 C.ar      1 <0>        -0.1170
     21 C17        -0.0144    1.2107    0.0087 C.2       1 <0>         0.4542
     22 O4          0.0021   -0.0041    0.0020 O.2       1 <0>        -0.4073
     23 H1          4.1224   -2.4802    5.2141 H         1 <0>         0.0820
     24 H2          3.1528   -1.2232    6.0191 H         1 <0>         0.0740
     25 H3          2.3489   -2.6222    5.2676 H         1 <0>         0.0743
     26 H4          2.1115   -2.7711    2.8559 H         1 <0>         0.1360
     27 H5          1.9487   -1.5365    0.7317 H         1 <0>         0.1494
     28 H6          3.8813    1.8130    2.5303 H         1 <0>         0.1434
     29 H7          4.0367    0.5814    4.6569 H         1 <0>         0.1357
     30 H8          2.1912    3.8404    0.0002 H         1 <0>         0.1828
     31 H9         -2.5153    5.1120    0.0510 H         1 <0>         0.1467
     32 H10        -4.6418    3.8661    0.0440 H         1 <0>         0.1422
     33 H11        -4.6422    1.4119    0.0314 H         1 <0>         0.1425
     34 H12        -2.5162    0.1653    0.0154 H         1 <0>         0.1484
@<TRIPOS>BOND
     1    1    2 1
     2    1   23 1
     3    1   24 1
     4    1   25 1
     5    2    7 ar
     6    2    3 ar
     7    3    4 ar
     8    3   26 1
     9    4    5 ar
    10    4   27 1
    11    5    6 ar
    12    5    8 1
    13    6    7 ar
    14    6   28 1
    15    7   29 1
    16    8    9 2
    17    8   10 2
    18    8   11 1
    19   11   21 1
    20   11   12 2
    21   12   13 1
    22   12   30 1
    23   13   14 2
    24   13   15 1
    25   15   20 ar
    26   15   16 ar
    27   16   17 ar
    28   16   31 1
    29   17   18 ar
    30   17   32 1
    31   18   19 ar
    32   18   33 1
    33   19   20 ar
    34   19   34 1
    35   20   21 1
    36   21   22 2
@<TRIPOS>MOLECULE
ZINC00036613
   30    31     0     0     0
SMALL
USER_CHARGES

@<TRIPOS>ATOM
      1 C1         -0.0184    1.5028    0.0103 C.3       1 <0>        -0.1275
      2 C2          0.0021   -0.0041    0.0020 C.ar      1 <0>        -0.0261
      3 C3          0.0057   -0.6887   -1.1989 C.ar      1 <0>        -0.1406
      4 C4          0.0245   -2.0709   -1.2065 C.ar      1 <0>        -0.0283
      5 C5          0.0400   -2.7685   -0.0132 C.ar      1 <0>        -0.6673
      6 C6          0.0373   -2.0839    1.1877 C.ar      1 <0>        -0.0151
      7 C7          0.0229   -0.7016    1.1953 C.ar      1 <0>        -0.1397
      8 S1          0.0628   -4.5303   -0.0229 S.o2      1 <0>         2.5859
      9 O1         -0.4759   -4.9503    1.2232 O.2       1 <0>        -0.9364
     10 O2         -0.4897   -4.9367   -1.2674 O.2       1 <0>        -0.9182
     11 C8          1.7525   -5.0294   -0.0350 C.ar      1 <0>        -0.6710
     12 C9          2.2762   -5.7209    1.0403 C.ar      1 <0>        -0.0347
     13 C10         3.6060   -6.1142    1.0306 C.ar      1 <0>         0.0825
     14 C11         4.4104   -5.8133   -0.0588 C.ar      1 <0>        -0.0732
     15 C12         3.8868   -5.1220   -1.1337 C.ar      1 <0>        -0.1448
     16 C13         2.5552   -4.7332   -1.1263 C.ar      1 <0>         0.1960
     17 O3          2.0383   -4.0575   -2.1871 O.3       1 <0>        -0.4860
     18 O4          4.1216   -6.7944    2.0891 O.3       1 <0>        -0.4922
     19 H1          1.0042    1.8801    0.0026 H         1 <0>         0.0809
     20 H2         -0.5455    1.8639   -0.8728 H         1 <0>         0.0748
     21 H3         -0.5286    1.8543    0.9071 H         1 <0>         0.0744
     22 H4         -0.0064   -0.1436   -2.1312 H         1 <0>         0.1365
     23 H5          0.0266   -2.6057   -2.1448 H         1 <0>         0.1497
     24 H6          0.0491   -2.6289    2.1200 H         1 <0>         0.1434
     25 H7          0.0245   -0.1667    2.1335 H         1 <0>         0.1354
     26 H8          1.6501   -5.9549    1.8886 H         1 <0>         0.1573
     27 H9          5.4461   -6.1192   -0.0662 H         1 <0>         0.1448
     28 H10         4.5133   -4.8871   -1.9816 H         1 <0>         0.1467
     29 H11         2.1177   -3.0963   -2.1177 H         1 <0>         0.3963
     30 H12         4.0420   -7.7554    2.0157 H         1 <0>         0.3966
@<TRIPOS>BOND
     1    1    2 1
     2    1   19 1
     3    1   20 1
     4    1   21 1
     5    2    7 ar
     6    2    3 ar
     7    3    4 ar
     8    3   22 1
     9    4    5 ar
    10    4   23 1
    11    5    6 ar
    12    5    8 1
    13    6    7 ar
    14    6   24 1
    15    7   25 1
    16    8    9 2
    17    8   10 2
    18    8   11 1
    19   11   16 ar
    20   11   12 ar
    21   12   13 ar
    22   12   26 1
    23   13   14 ar
    24   13   18 1
    25   14   15 ar
    26   14   27 1
    27   15   16 ar
    28   15   28 1
    29   16   17 1
    30   17   29 1
    31   18   30 1
@<TRIPOS>MOLECULE
ZINC00289034
   34    35     0     0     0
SMALL
USER_CHARGES

@<TRIPOS>ATOM
      1 C1         -2.1938    1.4701    0.6085 C.3       1 <0>        -0.1741
      2 C2         -2.1691   -0.0367    0.6077 C.2       1 <0>         0.5119
      3 O1         -3.0611   -0.6581    1.1455 O.2       1 <0>        -0.5173
      4 N1         -1.1558   -0.6938    0.0094 N.am      1 <0>        -0.6794
      5 C3         -1.0812   -2.0886    0.0915 C.ar      1 <0>         0.2023
      6 C4          0.1549   -2.7155    0.1777 C.ar      1 <0>        -0.1648
      7 C5          0.2252   -4.0924    0.2586 C.ar      1 <0>        -0.0122
      8 C6         -0.9337   -4.8468    0.2538 C.ar      1 <0>        -0.6776
      9 C7         -2.1662   -4.2257    0.1675 C.ar      1 <0>         0.0012
     10 C8         -2.2435   -2.8487    0.0926 C.ar      1 <0>        -0.1415
     11 S1         -0.8398   -6.6033    0.3571 S.o2      1 <0>         2.5880
     12 O2         -2.0382   -7.1084   -0.2156 O.2       1 <0>        -0.9358
     13 O3          0.4469   -6.9700   -0.1215 O.2       1 <0>        -0.9185
     14 C9         -0.8810   -7.0275    2.0668 C.ar      1 <0>        -0.6710
     15 C10        -1.9443   -7.7489    2.5741 C.ar      1 <0>        -0.0343
     16 C11        -1.9765   -8.0832    3.9196 C.ar      1 <0>         0.0827
     17 C12        -0.9409   -7.6932    4.7561 C.ar      1 <0>        -0.0733
     18 C13         0.1221   -6.9720    4.2489 C.ar      1 <0>        -0.1449
     19 C14         0.1569   -6.6421    2.9020 C.ar      1 <0>         0.1959
     20 O4          1.2063   -5.9368    2.4015 O.3       1 <0>        -0.4862
     21 O5         -3.0234   -8.7930    4.4190 O.3       1 <0>        -0.4920
     22 H1         -3.0822    1.8186    1.1352 H         1 <0>         0.1001
     23 H2         -1.3026    1.8478    1.1098 H         1 <0>         0.0947
     24 H3         -2.2144    1.8337   -0.4188 H         1 <0>         0.0950
     25 H4         -0.4782   -0.1997   -0.4782 H         1 <0>         0.4177
     26 H5          1.0605   -2.1269    0.1812 H         1 <0>         0.1404
     27 H6          1.1863   -4.5806    0.3253 H         1 <0>         0.1543
     28 H7         -3.0695   -4.8176    0.1637 H         1 <0>         0.1473
     29 H8         -3.2065   -2.3639    0.0305 H         1 <0>         0.1508
     30 H9         -2.7508   -8.0523    1.9229 H         1 <0>         0.1575
     31 H10        -0.9661   -7.9532    5.8040 H         1 <0>         0.1446
     32 H11         0.9280   -6.6677    4.9004 H         1 <0>         0.1464
     33 H12         1.0868   -4.9778    2.4339 H         1 <0>         0.3960
     34 H13        -2.8999   -9.7515    4.3865 H         1 <0>         0.3962
@<TRIPOS>BOND
     1    1    2 1
     2    1   22 1
     3    1   23 1
     4    1   24 1
     5    2    3 2
     6    2    4 am
     7    4    5 1
     8    4   25 1
     9    5   10 ar
    10    5    6 ar
    11    6    7 ar
    12    6   26 1
    13    7    8 ar
    14    7   27 1
    15    8    9 ar
    16    8   11 1
    17    9   10 ar
    18    9   28 1
    19   10   29 1
    20   11   12 2
    21   11   13 2
    22   11   14 1
    23   14   19 ar
    24   14   15 ar
    25   15   16 ar
    26   15   30 1
    27   16   17 ar
    28   16   21 1
    29   17   18 ar
    30   17   31 1
    31   18   19 ar
    32   18   32 1
    33   19   20 1
    34   20   33 1
    35   21   34 1
@<TRIPOS>MOLECULE
ZINC32149231
   34    36     0     0     0
SMALL
USER_CHARGES
2-(p-tolylsulfonyl)naphthalene
@<TRIPOS>ATOM
      1 C1          4.1847    0.0570   -5.8010 C.3       1 <0>        -0.1291
      2 C2          3.8115    0.2689   -4.3564 C.ar      1 <0>        -0.0266
      3 C3          4.2298    1.4080   -3.6944 C.ar      1 <0>        -0.1412
      4 C4          3.8867    1.6028   -2.3695 C.ar      1 <0>        -0.0160
      5 C5          3.1248    0.6587   -1.7069 C.ar      1 <0>        -0.6650
      6 C6          2.7109   -0.4829   -2.3674 C.ar      1 <0>        -0.0180
      7 C7          3.0504   -0.6756   -3.6935 C.ar      1 <0>        -0.1419
      8 S1          2.6874    0.9070   -0.0182 S.o2      1 <0>         2.5808
      9 O1          3.6599    1.7874    0.5280 O.2       1 <0>        -0.9337
     10 O2          2.4318   -0.3794    0.5285 O.2       1 <0>        -0.9364
     11 C8          1.1545    1.7758    0.0006 C.ar      1 <0>        -0.6530
     12 C9          1.1555    3.1695    0.0081 C.ar      1 <0>        -0.0466
     13 C10        -0.0107    3.8709    0.0231 C.ar      1 <0>        -0.1155
     14 C11        -1.2360    3.1827    0.0311 C.ar      1 <0>        -0.0124
     15 C12        -2.4604    3.8725    0.0471 C.ar      1 <0>        -0.1193
     16 C13        -3.6275    3.1725    0.0549 C.ar      1 <0>        -0.0929
     17 C14        -3.6285    1.7788    0.0467 C.ar      1 <0>        -0.1214
     18 C15        -2.4623    1.0774    0.0313 C.ar      1 <0>        -0.0900
     19 C16        -1.2370    1.7656    0.0175 C.ar      1 <0>        -0.0790
     20 C17        -0.0126    1.0758    0.0080 C.ar      1 <0>         0.0168
     21 H1          4.7866    0.9079   -6.1528 H         1 <0>         0.0723
     22 H2          3.2708   -0.0216   -6.4081 H         1 <0>         0.0790
     23 H3          4.7692   -0.8700   -5.8965 H         1 <0>         0.0797
     24 H4          4.8245    2.1459   -4.2123 H         1 <0>         0.1348
     25 H5          4.2135    2.4928   -1.8523 H         1 <0>         0.1431
     26 H6          2.1193   -1.2226   -1.8484 H         1 <0>         0.1424
     27 H7          2.7232   -1.5655   -4.2108 H         1 <0>         0.1346
     28 H8          2.0957    3.7008    0.0023 H         1 <0>         0.1420
     29 H9          0.0054    4.9508    0.0284 H         1 <0>         0.1380
     30 H10        -2.4751    4.9523    0.0528 H         1 <0>         0.1333
     31 H11        -4.5670    3.7050    0.0671 H         1 <0>         0.1291
     32 H12        -4.5687    1.2474    0.0524 H         1 <0>         0.1296
     33 H13        -2.4784   -0.0025    0.0251 H         1 <0>         0.1345
     34 H14         0.0021   -0.0041    0.0020 H         1 <0>         0.1481
@<TRIPOS>BOND
     1    1    2 1
     2    1   21 1
     3    1   22 1
     4    1   23 1
     5    2    7 ar
     6    2    3 ar
     7    3    4 ar
     8    3   24 1
     9    4    5 ar
    10    4   25 1
    11    5    6 ar
    12    5    8 1
    13    6    7 ar
    14    6   26 1
    15    7   27 1
    16    8    9 2
    17    8   10 2
    18    8   11 1
    19   11   20 ar
    20   11   12 ar
    21   12   13 ar
    22   12   28 1
    23   13   14 ar
    24   13   29 1
    25   14   19 ar
    26   14   15 ar
    27   15   16 ar
    28   15   30 1
    29   16   17 ar
    30   16   31 1
    31   17   18 ar
    32   17   32 1
    33   18   19 ar
    34   18   33 1
    35   19   20 ar
    36   20   34 1
