@<TRIPOS>MOLECULE
ZINC00119305
   32    33     0     0     0
SMALL
USER_CHARGES

@<TRIPOS>ATOM
      1 C1         -0.0046    1.4124   -0.0051 C.3       1 <0>         0.0367
      2 O1          0.0099   -0.0164   -0.0169 O.3       1 <0>        -0.3519
      3 C2         -1.1869   -0.6418   -0.0024 C.2       1 <0>         0.5600
      4 O2         -2.2146    0.0108    0.0198 O.2       1 <0>        -0.5065
      5 C3         -1.2465   -2.0520   -0.0128 C.2       1 <0>        -0.3069
      6 C4         -2.3700   -2.8831   -0.0068 C.2       1 <0>         0.2583
      7 C5         -2.1756   -4.2408   -0.0201 C.2       1 <0>        -0.1806
      8 C6         -0.8772   -4.7280   -0.0389 C.2       1 <0>        -0.0213
      9 S1          0.0938   -3.2305   -0.0449 S.3       1 <0>         0.1718
     10 C7         -0.4174   -6.1241   -0.0548 C.2       1 <0>        -0.0973
     11 C8          0.8751   -6.6164   -0.0679 C.2       1 <0>        -0.1283
     12 C9          1.0557   -7.9799   -0.0812 C.2       1 <0>        -0.1593
     13 C10        -0.0317   -8.7946   -0.0812 C.2       1 <0>        -0.1725
     14 S2         -1.3815   -7.6269   -0.0545 S.3       1 <0>         0.1177
     15 N1         -3.6558   -2.3459    0.0126 N.am      1 <0>        -0.6498
     16 C11        -4.6806   -3.0683    0.5070 C.2       1 <0>         0.5513
     17 O3         -4.4690   -4.1460    1.0273 O.2       1 <0>        -0.5221
     18 C12        -6.0615   -2.5498    0.4165 C.2       1 <0>        -0.2199
     19 C13        -7.0829   -3.2698    0.9092 C.2       1 <0>        -0.0782
     20 C14        -8.4601   -2.7528    0.8190 C.2       1 <0>         0.5034
     21 O4         -8.6730   -1.6683    0.2955 O.co2     1 <0>        -0.6778
     22 O5         -9.3899   -3.4082    1.2675 O.co2     1 <0>        -0.6789
     23 H1          1.0192    1.7863   -0.0189 H         1 <0>         0.1017
     24 H2         -0.5366    1.7777   -0.8836 H         1 <0>         0.0623
     25 H3         -0.5074    1.7633    0.8961 H         1 <0>         0.0622
     26 H4         -3.0174   -4.9174   -0.0157 H         1 <0>         0.1733
     27 H5          1.7221   -5.9464   -0.0679 H         1 <0>         0.1389
     28 H6          2.0512   -8.3984   -0.0920 H         1 <0>         0.1393
     29 H7         -0.0696   -9.8739   -0.0909 H         1 <0>         0.1907
     30 H8         -3.8131   -1.4520   -0.3296 H         1 <0>         0.4286
     31 H9         -6.2495   -1.5920   -0.0458 H         1 <0>         0.1396
     32 H10        -6.8949   -4.2276    1.3716 H         1 <0>         0.1153
@<TRIPOS>BOND
     1    1    2 1
     2    1   23 1
     3    1   24 1
     4    1   25 1
     5    2    3 1
     6    3    4 2
     7    3    5 1
     8    5    9 1
     9    5    6 2
    10    6    7 1
    11    6   15 1
    12    7    8 2
    13    7   26 1
    14    8    9 1
    15    8   10 1
    16   10   14 1
    17   10   11 2
    18   11   12 1
    19   11   27 1
    20   12   13 2
    21   12   28 1
    22   13   14 1
    23   13   29 1
    24   15   16 am
    25   15   30 1
    26   16   17 2
    27   16   18 1
    28   18   19 2
    29   18   31 1
    30   19   20 1
    31   19   32 1
    32   20   21 2
    33   20   22 1
@<TRIPOS>MOLECULE
ZINC00100791
   25    25     0     0     0
SMALL
USER_CHARGES
2-[(3,5-dichlorophenyl)carbamoylmethylsulfanyl]acetic acid
@<TRIPOS>ATOM
      1 C1          0.9084    3.1553    0.7489 C.ar      1 <0>        -0.1379
      2 C2         -0.0497    3.8441    0.0169 C.ar      1 <0>         0.1839
      3 C3         -0.9887    3.1422   -0.7272 C.ar      1 <0>        -0.1111
      4 C4         -0.9676    1.7600   -0.7375 C.ar      1 <0>        -0.0015
      5 C5         -0.0121    1.0759   -0.0068 C.ar      1 <0>        -0.1231
      6 C6          0.9213    1.7730    0.7401 C.ar      1 <0>        -0.0036
      7 Cl1         2.1135    0.9109    1.6615 Cl        1 <0>        -0.0555
      8 Cl2        -2.1411    0.8817   -1.6676 Cl        1 <0>        -0.0497
      9 N1         -0.0691    5.2431    0.0295 N.am      1 <0>        -0.6747
     10 C7         -1.2419    5.9016   -0.0575 C.2       1 <0>         0.5350
     11 O1         -2.2859    5.2844   -0.0502 O.2       1 <0>        -0.4832
     12 C8         -1.2559    7.4048   -0.1638 C.3       1 <0>        -0.1564
     13 S1         -2.9707    7.9878   -0.2643 S.3       1 <0>        -0.1333
     14 C9         -2.8148    9.7910   -0.3859 C.3       1 <0>        -0.1429
     15 C10        -4.1863   10.4089   -0.4769 C.2       1 <0>         0.4801
     16 O2         -5.1682    9.7050   -0.4614 O.co2     1 <0>        -0.6124
     17 H1          1.6400    3.6989    1.3282 H         1 <0>         0.1437
     18 H2         -1.7350    3.6756   -1.2971 H         1 <0>         0.1556
     19 H3          0.0025   -0.0039   -0.0160 H         1 <0>         0.1449
     20 H4          0.7615    5.7391    0.1008 H         1 <0>         0.4161
     21 H5         -0.7766    7.8357    0.7151 H         1 <0>         0.1077
     22 H6         -0.7151    7.7108   -1.0594 H         1 <0>         0.1089
     23 H7         -2.3026   10.1718    0.4978 H         1 <0>         0.0832
     24 H8         -2.2411   10.0468   -1.2767 H         1 <0>         0.0832
     25 O3         -4.3170   11.7411   -0.5752 O.co2     1 <0>        -0.7569
@<TRIPOS>BOND
     1    1    6 ar
     2    1    2 ar
     3    1   17 1
     4    2    3 ar
     5    2    9 1
     6    3    4 ar
     7    3   18 1
     8    4    5 ar
     9    4    8 1
    10    5    6 ar
    11    5   19 1
    12    6    7 1
    13    9   10 am
    14    9   20 1
    15   10   11 2
    16   10   12 1
    17   12   13 1
    18   12   21 1
    19   12   22 1
    20   13   14 1
    21   14   15 1
    22   14   23 1
    23   14   24 1
    24   15   16 2
    25   15   25 1
@<TRIPOS>MOLECULE
ZINC04324959
   39    40     0     0     0
SMALL
USER_CHARGES

@<TRIPOS>ATOM
      1 C1         -0.0119    1.3848    0.0705 C.ar      1 <0>        -0.1197
      2 C2          0.4452    0.7289    1.1986 C.ar      1 <0>        -0.1036
      3 C3          1.6494    0.0528    1.1656 C.ar      1 <0>        -0.1371
      4 C4          2.4004    0.0323   -0.0009 C.ar      1 <0>         0.0836
      5 C5          1.9394    0.6914   -1.1316 C.ar      1 <0>        -0.1190
      6 C6          0.7346    1.3660   -1.0933 C.ar      1 <0>        -0.1031
      7 O1          3.5855   -0.6316   -0.0359 O.3       1 <0>        -0.2446
      8 C7          3.5606   -1.9868    0.0617 C.ar      1 <0>         0.1541
      9 C8          2.3478   -2.6614    0.0626 C.ar      1 <0>        -0.1938
     10 C9          2.3245   -4.0388    0.1619 C.ar      1 <0>        -0.0616
     11 C10         3.5083   -4.7464    0.2610 C.ar      1 <0>        -0.1442
     12 C11         4.7192   -4.0768    0.2604 C.ar      1 <0>         0.0143
     13 C12         4.7477   -2.6984    0.1550 C.ar      1 <0>        -0.1273
     14 C13         6.0667   -1.9695    0.1476 C.3       1 <0>         0.1677
     15 N1          6.4462   -1.6328    1.5220 N.am      1 <0>        -0.7254
     16 C14         7.5974   -0.9740    1.7610 C.2       1 <0>         0.5365
     17 O2          8.3192   -0.6599    0.8383 O.2       1 <0>        -0.5098
     18 C15         7.9878   -0.6277    3.1748 C.3       1 <0>        -0.1576
     19 S1          9.5755    0.2497    3.1659 S.3       1 <0>        -0.1315
     20 C16         9.8986    0.5900    4.9182 C.3       1 <0>        -0.1685
     21 C17        11.2066    1.3260    5.0541 C.2       1 <0>         0.5117
     22 O3         11.8603    1.5960    4.0609 O.co2     1 <0>        -0.6695
     23 O4         11.6112    1.6515    6.1572 O.co2     1 <0>        -0.6906
     24 Cl1         6.2036   -4.9682    0.3855 Cl        1 <0>        -0.0441
     25 H1         -0.9557    1.9090    0.0970 H         1 <0>         0.1286
     26 H2         -0.1395    0.7454    2.1064 H         1 <0>         0.1307
     27 H3          2.0061   -0.4591    2.0472 H         1 <0>         0.1307
     28 H4          2.5221    0.6770   -2.0409 H         1 <0>         0.1343
     29 H5          0.3752    1.8789   -1.9731 H         1 <0>         0.1324
     30 H6          1.4226   -2.1095   -0.0140 H         1 <0>         0.1373
     31 H7          1.3806   -4.5637    0.1626 H         1 <0>         0.1378
     32 H8          3.4878   -5.8234    0.3393 H         1 <0>         0.1389
     33 H9          6.8319   -2.6074   -0.2947 H         1 <0>         0.0837
     34 H10         5.9731   -1.0549   -0.4379 H         1 <0>         0.0839
     35 H11         5.8689   -1.8840    2.2599 H         1 <0>         0.3980
     36 H12         7.2226    0.0103    3.6171 H         1 <0>         0.0988
     37 H13         8.0814   -1.5423    3.7603 H         1 <0>         0.0994
     38 H14         9.0933    1.2023    5.3239 H         1 <0>         0.0742
     39 H15         9.9520   -0.3502    5.4671 H         1 <0>         0.0744
@<TRIPOS>BOND
     1    1    6 ar
     2    1    2 ar
     3    1   25 1
     4    2    3 ar
     5    2   26 1
     6    3    4 ar
     7    3   27 1
     8    4    5 ar
     9    4    7 1
    10    5    6 ar
    11    5   28 1
    12    6   29 1
    13    7    8 1
    14    8   13 ar
    15    8    9 ar
    16    9   10 ar
    17    9   30 1
    18   10   11 ar
    19   10   31 1
    20   11   12 ar
    21   11   32 1
    22   12   13 ar
    23   12   24 1
    24   13   14 1
    25   14   15 1
    26   14   33 1
    27   14   34 1
    28   15   16 am
    29   15   35 1
    30   16   17 2
    31   16   18 1
    32   18   19 1
    33   18   36 1
    34   18   37 1
    35   19   20 1
    36   20   21 1
    37   20   38 1
    38   20   39 1
    39   21   22 2
    40   21   23 1
@<TRIPOS>MOLECULE
ZINC00100793
   25    25     0     0     0
SMALL
USER_CHARGES
2-[(3-chloro-4-fluoro-phenyl)carbamoylmethylsulfanyl]acetic acid
@<TRIPOS>ATOM
      1 C1         -3.4684    1.7039   -0.7694 C.ar      1 <0>        -0.1145
      2 C2         -4.6510    0.9977   -0.8764 C.ar      1 <0>        -0.1219
      3 C3         -4.7676   -0.2518   -0.2923 C.ar      1 <0>         0.0886
      4 C4         -3.6962   -0.7999    0.3954 C.ar      1 <0>        -0.0528
      5 C5         -2.5098   -0.0990    0.4992 C.ar      1 <0>        -0.0883
      6 C6         -2.3919    1.1547   -0.0860 C.ar      1 <0>         0.1563
      7 N1         -1.1906    1.8667    0.0178 N.am      1 <0>        -0.6745
      8 C7         -0.0143    1.2088    0.0070 C.2       1 <0>         0.5345
      9 O1          0.0022   -0.0038   -0.0082 O.2       1 <0>        -0.4861
     10 C8          1.2804    1.9801    0.0073 C.3       1 <0>        -0.1560
     11 S1          2.6751    0.8205   -0.0170 S.3       1 <0>        -0.1336
     12 C9          4.1379    1.8932   -0.0141 C.3       1 <0>        -0.1429
     13 C10         5.3831    1.0447   -0.0334 C.2       1 <0>         0.4799
     14 O2          5.2930   -0.1601   -0.0477 O.co2     1 <0>        -0.6123
     15 Cl1        -3.8447   -2.3676    1.1261 Cl        1 <0>        -0.0432
     16 F1         -5.9270   -0.9380   -0.3930 F         1 <0>        -0.1285
     17 H1         -3.3798    2.6808   -1.2213 H         1 <0>         0.1435
     18 H2         -5.4867    1.4230   -1.4121 H         1 <0>         0.1489
     19 H3         -1.6750   -0.5258    1.0353 H         1 <0>         0.1628
     20 H4         -1.2050    2.8333    0.0976 H         1 <0>         0.4155
     21 H5          1.3232    2.6185   -0.8752 H         1 <0>         0.1079
     22 H6          1.3359    2.5965    0.9046 H         1 <0>         0.1077
     23 H7          4.1207    2.5334   -0.8961 H         1 <0>         0.0831
     24 H8          4.1333    2.5114    0.8837 H         1 <0>         0.0831
     25 O3          6.5923    1.6274   -0.0348 O.co2     1 <0>        -0.7571
@<TRIPOS>BOND
     1    1    6 ar
     2    1    2 ar
     3    1   17 1
     4    2    3 ar
     5    2   18 1
     6    3    4 ar
     7    3   16 1
     8    4    5 ar
     9    4   15 1
    10    5    6 ar
    11    5   19 1
    12    6    7 1
    13    7    8 am
    14    7   20 1
    15    8    9 2
    16    8   10 1
    17   10   11 1
    18   10   21 1
    19   10   22 1
    20   11   12 1
    21   12   13 1
    22   12   23 1
    23   12   24 1
    24   13   14 2
    25   13   25 1
@<TRIPOS>MOLECULE
ZINC04474696
   53    52     0     0     0
SMALL
USER_CHARGES

@<TRIPOS>ATOM
      1 C1          1.4699    3.0103    1.6795 C.3       1 <0>        -0.1538
      2 C2          1.1470    1.5224    1.8304 C.3       1 <0>        -0.1261
      3 C3          2.2011    0.8593    2.7193 C.3       1 <0>        -0.1213
      4 C4          1.8782   -0.6286    2.8702 C.3       1 <0>        -0.1147
      5 C5          2.9323   -1.2916    3.7591 C.3       1 <0>        -0.1013
      6 C6          2.6142   -2.7572    3.9077 C.2       1 <0>        -0.1643
      7 C7          3.5316   -3.6560    3.6493 C.2       1 <0>        -0.1477
      8 C8          4.9477   -3.2268    3.3638 C.3       1 <0>        -0.0833
      9 C9          5.8898   -3.9597    4.2837 C.2       1 <0>        -0.1590
     10 C10         6.9144   -4.6095    3.7897 C.2       1 <0>        -0.1439
     11 C11         7.2468   -4.4906    2.3247 C.3       1 <0>        -0.0848
     12 C12         8.6877   -4.0777    2.1683 C.2       1 <0>        -0.1631
     13 C13         9.4920   -4.7809    1.4103 C.2       1 <0>        -0.1393
     14 C14         8.9417   -5.8950    0.5577 C.3       1 <0>        -0.0841
     15 C15         9.3779   -5.6965   -0.8711 C.2       1 <0>        -0.1735
     16 C16         9.9891   -6.6633   -1.5096 C.2       1 <0>        -0.1364
     17 C17        10.1105   -8.0256   -0.8767 C.3       1 <0>        -0.1061
     18 C18         9.5949   -9.0878   -1.8497 C.3       1 <0>        -0.0866
     19 C19         9.7182  -10.4708   -1.2070 C.3       1 <0>        -0.1839
     20 C20         9.2103  -11.5171   -2.1654 C.2       1 <0>         0.4876
     21 O1          8.7888  -11.1872   -3.2608 O.co2     1 <0>        -0.6995
     22 O2          9.2209  -12.6935   -1.8453 O.co2     1 <0>        -0.7093
     23 H1          2.4534    3.1242    1.2236 H         1 <0>         0.0536
     24 H2          0.7189    3.4826    1.0462 H         1 <0>         0.0527
     25 H3          1.4674    3.4840    2.6612 H         1 <0>         0.0526
     26 H4          0.1635    1.4084    2.2863 H         1 <0>         0.0599
     27 H5          1.1495    1.0487    0.8487 H         1 <0>         0.0612
     28 H6          3.1846    0.9733    2.2634 H         1 <0>         0.0615
     29 H7          2.1986    1.3330    3.7010 H         1 <0>         0.0604
     30 H8          0.8947   -0.7425    3.3261 H         1 <0>         0.0607
     31 H9          1.8807   -1.1023    1.8885 H         1 <0>         0.0628
     32 H10         3.9158   -1.1777    3.3032 H         1 <0>         0.0761
     33 H11         2.9298   -0.8179    4.7408 H         1 <0>         0.0669
     34 H12         1.6300   -3.0664    4.2272 H         1 <0>         0.1077
     35 H13         3.2730   -4.7045    3.6409 H         1 <0>         0.1094
     36 H14         5.1962   -3.4599    2.3284 H         1 <0>         0.0847
     37 H15         5.0419   -2.1533    3.5273 H         1 <0>         0.0820
     38 H16         5.7203   -3.9492    5.3503 H         1 <0>         0.1078
     39 H17         7.5209   -5.2304    4.4324 H         1 <0>         0.1100
     40 H18         7.0897   -5.4528    1.8372 H         1 <0>         0.0870
     41 H19         6.6022   -3.7411    1.8655 H         1 <0>         0.0813
     42 H20         9.0572   -3.2020    2.6812 H         1 <0>         0.1066
     43 H21        10.5496   -4.5623    1.3965 H         1 <0>         0.1084
     44 H22         9.3168   -6.8511    0.9226 H         1 <0>         0.0873
     45 H23         7.8529   -5.8882    0.6094 H         1 <0>         0.0803
     46 H24         9.1867   -4.7572   -1.3685 H         1 <0>         0.1044
     47 H25        10.4060   -6.4842   -2.4897 H         1 <0>         0.1075
     48 H26        11.1560   -8.2251   -0.6416 H         1 <0>         0.0642
     49 H27         9.5202   -8.0546    0.0392 H         1 <0>         0.0699
     50 H28         8.5494   -8.8883   -2.0848 H         1 <0>         0.0589
     51 H29        10.1852   -9.0588   -2.7655 H         1 <0>         0.0587
     52 H30        10.7637  -10.6704   -0.9719 H         1 <0>         0.0549
     53 H31         9.1279  -10.4999   -0.2912 H         1 <0>         0.0546
@<TRIPOS>BOND
     1    1    2 1
     2    1   23 1
     3    1   24 1
     4    1   25 1
     5    2    3 1
     6    2   26 1
     7    2   27 1
     8    3    4 1
     9    3   28 1
    10    3   29 1
    11    4    5 1
    12    4   30 1
    13    4   31 1
    14    5    6 1
    15    5   32 1
    16    5   33 1
    17    6    7 2
    18    6   34 1
    19    7    8 1
    20    7   35 1
    21    8    9 1
    22    8   36 1
    23    8   37 1
    24    9   10 2
    25    9   38 1
    26   10   11 1
    27   10   39 1
    28   11   12 1
    29   11   40 1
    30   11   41 1
    31   12   13 2
    32   12   42 1
    33   13   14 1
    34   13   43 1
    35   14   15 1
    36   14   44 1
    37   14   45 1
    38   15   16 2
    39   15   46 1
    40   16   17 1
    41   16   47 1
    42   17   18 1
    43   17   48 1
    44   17   49 1
    45   18   19 1
    46   18   50 1
    47   18   51 1
    48   19   20 1
    49   19   52 1
    50   19   53 1
    51   20   21 2
    52   20   22 1
@<TRIPOS>MOLECULE
ZINC20474370
   36    38     0     0     0
SMALL
USER_CHARGES
5-carbazol-9-ylpentanoic acid
@<TRIPOS>ATOM
      1 C1         -1.2260    1.7466    0.0174 C.ar      1 <0>        -0.1562
      2 C2         -0.0126    1.0758    0.0080 C.ar      1 <0>        -0.0854
      3 C3          1.1749    1.7750    0.0004 C.ar      1 <0>        -0.1403
      4 C4          1.1641    3.1667    0.0079 C.ar      1 <0>         0.1470
      5 C5         -0.0644    3.8435    0.0233 C.ar      1 <0>        -0.1088
      6 C6         -1.2573    3.1243    0.0308 C.ar      1 <0>        -0.0633
      7 C7          0.2514    5.2837    0.0275 C.ar      1 <0>        -0.1088
      8 C8         -0.5311    6.4360    0.0405 C.ar      1 <0>        -0.0633
      9 C9          0.0738    7.6743    0.0405 C.ar      1 <0>        -0.1562
     10 C10         1.4566    7.7758    0.0280 C.ar      1 <0>        -0.0854
     11 C11         2.2426    6.6439    0.0156 C.ar      1 <0>        -0.1403
     12 C12         1.6503    5.3844    0.0144 C.ar      1 <0>         0.1471
     13 N1          2.1795    4.1063    0.0028 N.pl3     1 <0>        -0.4998
     14 C13         3.6105    3.7926   -0.0122 C.3       1 <0>         0.1101
     15 C14         4.0950    3.6902   -1.4598 C.3       1 <0>        -0.1363
     16 C15         5.5894    3.3626   -1.4755 C.3       1 <0>        -0.0951
     17 C16         6.0740    3.2603   -2.9231 C.3       1 <0>        -0.1570
     18 C17         7.5459    2.9376   -2.9386 C.2       1 <0>         0.4581
     19 O1          8.1459    2.8032   -1.8984 O.co2     1 <0>        -0.6424
     20 O2          8.1905    2.7994   -4.1078 O.co2     1 <0>        -0.7768
     21 H1         -2.1500    1.1873    0.0184 H         1 <0>         0.1236
     22 H2          0.0021   -0.0041    0.0020 H         1 <0>         0.1268
     23 H3          2.1146    1.2427   -0.0118 H         1 <0>         0.1243
     24 H4         -2.2036    3.6446    0.0427 H         1 <0>         0.1218
     25 H5         -1.6083    6.3593    0.0510 H         1 <0>         0.1218
     26 H6         -0.5314    8.5688    0.0506 H         1 <0>         0.1236
     27 H7          1.9218    8.7505    0.0285 H         1 <0>         0.1268
     28 H8          3.3187    6.7342    0.0066 H         1 <0>         0.1243
     29 H9          4.1659    4.5890    0.5049 H         1 <0>         0.0891
     30 H10         3.7812    2.8344    0.5003 H         1 <0>         0.0891
     31 H11         3.5396    2.8938   -1.9769 H         1 <0>         0.0646
     32 H12         3.9243    4.6484   -1.9723 H         1 <0>         0.0646
     33 H13         6.1448    4.1589   -0.9584 H         1 <0>         0.0635
     34 H14         5.7601    2.4043   -0.9631 H         1 <0>         0.0635
     35 H15         5.5186    2.4640   -3.4403 H         1 <0>         0.0629
     36 H16         5.9033    4.2186   -3.4355 H         1 <0>         0.0629
@<TRIPOS>BOND
     1    1    6 ar
     2    1    2 ar
     3    1   21 1
     4    2    3 ar
     5    2   22 1
     6    3    4 ar
     7    3   23 1
     8    4   13 1
     9    4    5 ar
    10    5    6 ar
    11    5    7 1
    12    6   24 1
    13    7   12 ar
    14    7    8 ar
    15    8    9 ar
    16    8   25 1
    17    9   10 ar
    18    9   26 1
    19   10   11 ar
    20   10   27 1
    21   11   12 ar
    22   11   28 1
    23   12   13 1
    24   13   14 1
    25   14   15 1
    26   14   29 1
    27   14   30 1
    28   15   16 1
    29   15   31 1
    30   15   32 1
    31   16   17 1
    32   16   33 1
    33   16   34 1
    34   17   18 1
    35   17   35 1
    36   17   36 1
    37   18   19 2
    38   18   20 1
@<TRIPOS>MOLECULE
ZINC01841595
   30    32     0     0     0
SMALL
USER_CHARGES
3-carbazol-9-ylpropanoic acid
@<TRIPOS>ATOM
      1 C1         -1.2260    1.7466    0.0174 C.ar      1 <0>        -0.1593
      2 C2         -0.0126    1.0758    0.0080 C.ar      1 <0>        -0.0872
      3 C3          1.1749    1.7750    0.0004 C.ar      1 <0>        -0.1387
      4 C4          1.1641    3.1667    0.0079 C.ar      1 <0>         0.1486
      5 C5         -0.0644    3.8435    0.0233 C.ar      1 <0>        -0.1109
      6 C6         -1.2573    3.1243    0.0308 C.ar      1 <0>        -0.0640
      7 C7          0.2514    5.2837    0.0275 C.ar      1 <0>        -0.1109
      8 C8         -0.5311    6.4360    0.0405 C.ar      1 <0>        -0.0640
      9 C9          0.0738    7.6743    0.0405 C.ar      1 <0>        -0.1594
     10 C10         1.4566    7.7758    0.0280 C.ar      1 <0>        -0.0872
     11 C11         2.2426    6.6439    0.0156 C.ar      1 <0>        -0.1388
     12 C12         1.6503    5.3844    0.0144 C.ar      1 <0>         0.1487
     13 N1          2.1795    4.1063    0.0028 N.pl3     1 <0>        -0.4971
     14 C13         3.6105    3.7926   -0.0122 C.3       1 <0>         0.1294
     15 C14         4.0950    3.6902   -1.4598 C.3       1 <0>        -0.1732
     16 C15         5.5670    3.3675   -1.4752 C.2       1 <0>         0.4662
     17 O1          6.1669    3.2332   -0.4351 O.co2     1 <0>        -0.6399
     18 H1         -2.1500    1.1873    0.0184 H         1 <0>         0.1219
     19 H2          0.0021   -0.0041    0.0020 H         1 <0>         0.1255
     20 H3          2.1146    1.2427   -0.0118 H         1 <0>         0.1248
     21 H4         -2.2036    3.6446    0.0427 H         1 <0>         0.1204
     22 H5         -1.6083    6.3593    0.0510 H         1 <0>         0.1204
     23 H6         -0.5314    8.5688    0.0506 H         1 <0>         0.1219
     24 H7          1.9218    8.7505    0.0285 H         1 <0>         0.1255
     25 H8          3.3187    6.7342    0.0066 H         1 <0>         0.1248
     26 H9          4.1608    4.5816    0.5003 H         1 <0>         0.0892
     27 H10         3.7796    2.8430    0.4956 H         1 <0>         0.0892
     28 H11         3.5447    2.9012   -1.9722 H         1 <0>         0.0698
     29 H12         3.9259    4.6398   -1.9675 H         1 <0>         0.0698
     30 O2          6.2115    3.2294   -2.6445 O.co2     1 <0>        -0.7656
@<TRIPOS>BOND
     1    1    6 ar
     2    1    2 ar
     3    1   18 1
     4    2    3 ar
     5    2   19 1
     6    3    4 ar
     7    3   20 1
     8    4   13 1
     9    4    5 ar
    10    5    6 ar
    11    5    7 1
    12    6   21 1
    13    7   12 ar
    14    7    8 ar
    15    8    9 ar
    16    8   22 1
    17    9   10 ar
    18    9   23 1
    19   10   11 ar
    20   10   24 1
    21   11   12 ar
    22   11   25 1
    23   12   13 1
    24   13   14 1
    25   14   15 1
    26   14   26 1
    27   14   27 1
    28   15   16 1
    29   15   28 1
    30   15   29 1
    31   16   17 2
    32   16   30 1
@<TRIPOS>MOLECULE
ZINC28370627
   29    30     0     0     0
SMALL
USER_CHARGES
2-[(4-chlorophenyl)methylamino]-6-(trifluoromethyl)pyrimidin-4-ol
@<TRIPOS>ATOM
      1 C1          1.1707    2.0862    0.0021 C.ar      1 <0>        -0.0801
      2 C2          2.3773    1.4123   -0.0131 C.ar      1 <0>        -0.1116
      3 C3          2.3967    0.0290   -0.0208 C.ar      1 <0>        -0.0193
      4 C4          1.2081   -0.6790   -0.0132 C.ar      1 <0>        -0.1116
      5 C5          0.0021   -0.0041    0.0020 C.ar      1 <0>        -0.0802
      6 C6         -0.0167    1.3782    0.0096 C.ar      1 <0>        -0.1134
      7 C7         -1.3320    2.1136    0.0199 C.3       1 <0>         0.1473
      8 N1         -1.7517    2.3444    1.4043 N.pl3     1 <0>        -0.7038
      9 C8         -2.9381    3.0070    1.6665 C.2       1 <0>         0.6452
     10 N2         -3.3048    3.2022    2.9246 N.2       1 <0>        -0.5593
     11 C9         -4.4310    3.8362    3.2139 C.2       1 <0>         0.1519
     12 C10        -5.2353    4.2888    2.1847 C.2       1 <0>        -0.2589
     13 C11        -4.8252    4.0637    0.8716 C.2       1 <0>         0.4915
     14 N3         -3.6817    3.4255    0.6534 N.am      1 <0>        -0.6035
     15 O1         -5.5829    4.4907   -0.1677 O.2       1 <0>        -0.5916
     16 C12        -4.8339    4.0570    4.6491 C.3       1 <0>         0.5278
     17 F1         -5.6019    2.9739    5.0897 F         1 <0>        -0.1633
     18 F2         -3.6877    4.1696    5.4432 F         1 <0>        -0.1590
     19 F3         -5.5862    5.2325    4.7468 F         1 <0>        -0.1620
     20 Cl1         3.9119   -0.8181   -0.0393 Cl        1 <0>        -0.0583
     21 H1          1.1554    3.1661    0.0081 H         1 <0>         0.1369
     22 H2          3.3049    1.9655   -0.0187 H         1 <0>         0.1395
     23 H3          1.2226   -1.7589   -0.0187 H         1 <0>         0.1395
     24 H4         -0.9258   -0.5566    0.0083 H         1 <0>         0.1368
     25 H5         -1.2162    3.0793   -0.4939 H         1 <0>         0.0875
     26 H6         -2.0928    1.5115   -0.4983 H         1 <0>         0.0875
     27 H7         -1.1239    1.9910    2.2355 H         1 <0>         0.4617
     28 H8         -6.1605    4.8055    2.3933 H         1 <0>         0.1708
     29 H9         -3.3536    3.2453   -0.3809 H         1 <0>         0.4522
@<TRIPOS>BOND
     1    1    6 ar
     2    1    2 ar
     3    1   21 1
     4    2    3 ar
     5    2   22 1
     6    3    4 ar
     7    3   20 1
     8    4    5 ar
     9    4   23 1
    10    5    6 ar
    11    5   24 1
    12    6    7 1
    13    7    8 1
    14    7   25 1
    15    7   26 1
    16    8    9 1
    17    8   27 1
    18    9   14 1
    19    9   10 2
    20   10   11 1
    21   11   12 2
    22   11   16 1
    23   12   13 1
    24   12   28 1
    25   13   14 am
    26   13   15 2
    27   14   29 1
    28   16   17 1
    29   16   18 1
    30   16   19 1
@<TRIPOS>MOLECULE
ZINC28370627
   28    29     0     0     0
SMALL
USER_CHARGES
2-[(4-chlorophenyl)methylamino]-6-(trifluoromethyl)pyrimidin-4-ol
@<TRIPOS>ATOM
      1 C1          1.1707    2.0862    0.0021 C.ar      1 <0>        -0.0868
      2 C2          2.3773    1.4123   -0.0131 C.ar      1 <0>        -0.1142
      3 C3          2.3967    0.0290   -0.0208 C.ar      1 <0>        -0.0331
      4 C4          1.2081   -0.6790   -0.0132 C.ar      1 <0>        -0.1142
      5 C5          0.0021   -0.0041    0.0020 C.ar      1 <0>        -0.0868
      6 C6         -0.0167    1.3782    0.0096 C.ar      1 <0>        -0.0895
      7 C7         -1.3320    2.1136    0.0199 C.3       1 <0>         0.1881
      8 N1         -1.7517    2.3444    1.4043 N.pl3     1 <0>        -0.7191
      9 C8         -2.9381    3.0070    1.6665 C.ar      1 <0>         0.5930
     10 N2         -3.3048    3.2022    2.9246 N.ar      1 <0>        -0.6234
     11 C9         -4.4310    3.8362    3.2139 C.ar      1 <0>         0.1192
     12 C10        -5.2353    4.2888    2.1847 C.ar      1 <0>        -0.3149
     13 C11        -4.8252    4.0637    0.8716 C.ar      1 <0>         0.4679
     14 N3         -3.6817    3.4255    0.6534 N.ar      1 <0>        -0.6365
     15 O1         -5.5829    4.4907   -0.1677 O.3       1 <0>        -0.6904
     16 C12        -4.8339    4.0570    4.6491 C.3       1 <0>         0.5235
     17 F1         -5.6019    2.9739    5.0897 F         1 <0>        -0.1797
     18 F2         -3.6877    4.1696    5.4432 F         1 <0>        -0.1736
     19 F3         -5.5862    5.2325    4.7468 F         1 <0>        -0.1767
     20 Cl1         3.9119   -0.8181   -0.0393 Cl        1 <0>        -0.0775
     21 H1          1.1554    3.1661    0.0081 H         1 <0>         0.1349
     22 H2          3.3049    1.9655   -0.0187 H         1 <0>         0.1325
     23 H3          1.2226   -1.7589   -0.0187 H         1 <0>         0.1325
     24 H4         -0.9258   -0.5566    0.0083 H         1 <0>         0.1349
     25 H5         -1.2162    3.0793   -0.4939 H         1 <0>         0.0714
     26 H6         -2.0928    1.5115   -0.4983 H         1 <0>         0.0714
     27 H7         -1.1239    1.9910    2.2355 H         1 <0>         0.4234
     28 H8         -6.1605    4.8055    2.3933 H         1 <0>         0.1236
@<TRIPOS>BOND
     1    1    6 ar
     2    1    2 ar
     3    1   21 1
     4    2    3 ar
     5    2   22 1
     6    3    4 ar
     7    3   20 1
     8    4    5 ar
     9    4   23 1
    10    5    6 ar
    11    5   24 1
    12    6    7 1
    13    7    8 1
    14    7   25 1
    15    7   26 1
    16    8    9 1
    17    8   27 1
    18    9   14 ar
    19    9   10 ar
    20   10   11 ar
    21   11   12 ar
    22   11   16 1
    23   12   13 ar
    24   12   28 1
    25   13   14 ar
    26   13   15 1
    27   16   17 1
    28   16   18 1
    29   16   19 1
@<TRIPOS>MOLECULE
ZINC05939954
   33    35     0     0     0
SMALL
USER_CHARGES
4-carbazol-9-ylbutanoic acid
@<TRIPOS>ATOM
      1 C1         -1.2260    1.7466    0.0174 C.ar      1 <0>        -0.1574
      2 C2         -0.0126    1.0758    0.0080 C.ar      1 <0>        -0.0862
      3 C3          1.1749    1.7750    0.0004 C.ar      1 <0>        -0.1391
      4 C4          1.1641    3.1667    0.0079 C.ar      1 <0>         0.1486
      5 C5         -0.0644    3.8435    0.0233 C.ar      1 <0>        -0.1090
      6 C6         -1.2573    3.1243    0.0308 C.ar      1 <0>        -0.0634
      7 C7          0.2514    5.2837    0.0275 C.ar      1 <0>        -0.1090
      8 C8         -0.5311    6.4360    0.0405 C.ar      1 <0>        -0.0633
      9 C9          0.0738    7.6743    0.0405 C.ar      1 <0>        -0.1575
     10 C10         1.4566    7.7758    0.0280 C.ar      1 <0>        -0.0861
     11 C11         2.2426    6.6439    0.0156 C.ar      1 <0>        -0.1391
     12 C12         1.6503    5.3844    0.0144 C.ar      1 <0>         0.1487
     13 N1          2.1795    4.1063    0.0028 N.pl3     1 <0>        -0.4977
     14 C13         3.6105    3.7926   -0.0122 C.3       1 <0>         0.1099
     15 C14         4.0950    3.6902   -1.4598 C.3       1 <0>        -0.1138
     16 C15         5.5894    3.3626   -1.4755 C.3       1 <0>        -0.1552
     17 C16         6.0667    3.2618   -2.9014 C.2       1 <0>         0.4592
     18 O1          5.2911    3.4344   -3.8116 O.co2     1 <0>        -0.6387
     19 H1         -2.1500    1.1873    0.0184 H         1 <0>         0.1229
     20 H2          0.0021   -0.0041    0.0020 H         1 <0>         0.1262
     21 H3          2.1146    1.2427   -0.0118 H         1 <0>         0.1239
     22 H4         -2.2036    3.6446    0.0427 H         1 <0>         0.1213
     23 H5         -1.6083    6.3593    0.0510 H         1 <0>         0.1213
     24 H6         -0.5314    8.5688    0.0506 H         1 <0>         0.1229
     25 H7          1.9218    8.7505    0.0285 H         1 <0>         0.1262
     26 H8          3.3187    6.7342    0.0066 H         1 <0>         0.1239
     27 H9          4.1608    4.5816    0.5003 H         1 <0>         0.0846
     28 H10         3.7796    2.8430    0.4956 H         1 <0>         0.0846
     29 H11         3.5447    2.9012   -1.9722 H         1 <0>         0.0673
     30 H12         3.9259    4.6398   -1.9675 H         1 <0>         0.0673
     31 H13         6.1398    4.1517   -0.9630 H         1 <0>         0.0658
     32 H14         5.7586    2.4130   -0.9678 H         1 <0>         0.0657
     33 O2          7.3534    2.9804   -3.1601 O.co2     1 <0>        -0.7749
@<TRIPOS>BOND
     1    1    6 ar
     2    1    2 ar
     3    1   19 1
     4    2    3 ar
     5    2   20 1
     6    3    4 ar
     7    3   21 1
     8    4   13 1
     9    4    5 ar
    10    5    6 ar
    11    5    7 1
    12    6   22 1
    13    7   12 ar
    14    7    8 ar
    15    8    9 ar
    16    8   23 1
    17    9   10 ar
    18    9   24 1
    19   10   11 ar
    20   10   25 1
    21   11   12 ar
    22   11   26 1
    23   12   13 1
    24   13   14 1
    25   14   15 1
    26   14   27 1
    27   14   28 1
    28   15   16 1
    29   15   29 1
    30   15   30 1
    31   16   17 1
    32   16   31 1
    33   16   32 1
    34   17   18 2
    35   17   33 1
@<TRIPOS>MOLECULE
ZINC01549397
   61    65     0     0     0
SMALL
USER_CHARGES

@<TRIPOS>ATOM
      1 C1         -1.2141    7.4958   -4.3300 C.3       1 <0>        -0.1465
      2 C2         -2.2921    7.1322   -3.3069 C.3       1 <0>        -0.0637
      3 C3         -1.9963    5.7731   -2.7269 C.2       1 <0>         0.1067
      4 C4         -2.3377    4.5735   -3.2757 C.2       1 <0>        -0.1853
      5 C5         -1.8687    3.5566   -2.4057 C.2       1 <0>         0.1309
      6 N1         -1.2700    4.1371   -1.3885 N.2       1 <0>        -0.2461
      7 N2         -1.3419    5.5242   -1.5643 N.pl3     1 <0>        -0.3139
      8 C6         -0.8229    6.4884   -0.6935 C.ar      1 <0>         0.1538
      9 C7          0.0347    7.4688   -1.1713 C.ar      1 <0>        -0.1200
     10 C8          0.5500    8.4170   -0.3090 C.ar      1 <0>        -0.1073
     11 C9          0.2118    8.3984    1.0330 C.ar      1 <0>        -0.1093
     12 C10        -0.6440    7.4321    1.5214 C.ar      1 <0>        -0.0928
     13 C11        -1.1704    6.4708    0.6618 C.ar      1 <0>        -0.0193
     14 C12        -2.0900    5.4299    1.1817 C.ar      1 <0>        -0.0115
     15 C13        -3.3551    5.2698    0.6179 C.ar      1 <0>        -0.1438
     16 C14        -4.2065    4.2960    1.0991 C.ar      1 <0>        -0.0755
     17 C15        -3.8133    3.4853    2.1478 C.ar      1 <0>        -0.2070
     18 C16        -2.5558    3.6383    2.7150 C.ar      1 <0>         0.1448
     19 C17        -1.6923    4.6091    2.2342 C.ar      1 <0>        -0.1347
     20 O1         -2.1714    2.8355    3.7419 O.3       1 <0>        -0.2867
     21 C18        -3.1119    1.8559    4.1867 C.3       1 <0>         0.0190
     22 C19        -2.5150    1.0657    5.3227 C.2       1 <0>         0.4698
     23 O2         -1.3987    1.3158    5.7115 O.co2     1 <0>        -0.6136
     24 C20        -2.0208    2.0960   -2.6099 C.ar      1 <0>        -0.0129
     25 C21        -3.1739    1.5894   -3.2074 C.ar      1 <0>        -0.0875
     26 C22        -3.3077    0.2294   -3.3996 C.ar      1 <0>        -0.1223
     27 C23        -2.3054   -0.6316   -2.9903 C.ar      1 <0>        -0.1113
     28 C24        -1.1613   -0.1351   -2.3920 C.ar      1 <0>        -0.1208
     29 C25        -1.0140    1.2236   -2.1998 C.ar      1 <0>        -0.0888
     30 C26        -3.0677    4.3686   -4.5508 C.ar      1 <0>         0.0093
     31 C27        -4.3886    4.7946   -4.6768 C.ar      1 <0>        -0.1130
     32 C28        -5.0609    4.6070   -5.8674 C.ar      1 <0>        -0.1181
     33 C29        -4.4300    3.9863   -6.9305 C.ar      1 <0>        -0.1246
     34 C30        -3.1209    3.5563   -6.8092 C.ar      1 <0>        -0.1169
     35 C31        -2.4370    3.7443   -5.6253 C.ar      1 <0>        -0.1015
     36 H1         -1.3689    8.5188   -4.6729 H         1 <0>         0.0657
     37 H2         -0.2309    7.4126   -3.8669 H         1 <0>         0.0554
     38 H3         -1.2747    6.8150   -5.1791 H         1 <0>         0.0629
     39 H4         -3.2660    7.1144   -3.7961 H         1 <0>         0.0917
     40 H5         -2.3001    7.8741   -2.5084 H         1 <0>         0.0780
     41 H6          0.3026    7.4883   -2.2173 H         1 <0>         0.1324
     42 H7          1.2203    9.1764   -0.6838 H         1 <0>         0.1321
     43 H8          0.6189    9.1434    1.7006 H         1 <0>         0.1320
     44 H9         -0.9055    7.4214    2.5692 H         1 <0>         0.1370
     45 H10        -3.6668    5.9045   -0.1985 H         1 <0>         0.1072
     46 H11        -5.1843    4.1698    0.6583 H         1 <0>         0.1186
     47 H12        -4.4849    2.7276    2.5237 H         1 <0>         0.1283
     48 H13        -0.7132    4.7289    2.6742 H         1 <0>         0.1286
     49 H14        -4.0202    2.3527    4.5276 H         1 <0>         0.0658
     50 H15        -3.3528    1.1833    3.3634 H         1 <0>         0.0659
     51 H16        -3.9591    2.2604   -3.5230 H         1 <0>         0.1237
     52 H17        -4.1985   -0.1638   -3.8668 H         1 <0>         0.1230
     53 H18        -2.4165   -1.6956   -3.1387 H         1 <0>         0.1221
     54 H19        -0.3820   -0.8120   -2.0744 H         1 <0>         0.1248
     55 H20        -0.1201    1.6102   -1.7329 H         1 <0>         0.1247
     56 H21        -4.8838    5.2747   -3.8457 H         1 <0>         0.1195
     57 H22        -6.0831    4.9408   -5.9676 H         1 <0>         0.1203
     58 H23        -4.9614    3.8372   -7.8588 H         1 <0>         0.1183
     59 H24        -2.6332    3.0723   -7.6424 H         1 <0>         0.1197
     60 H25        -1.4148    3.4085   -5.5318 H         1 <0>         0.1183
     61 O3         -3.2235    0.0841    5.9025 O.co2     1 <0>        -0.7555
@<TRIPOS>BOND
     1    1    2 1
     2    1   36 1
     3    1   37 1
     4    1   38 1
     5    2    3 1
     6    2   39 1
     7    2   40 1
     8    3    7 1
     9    3    4 2
    10    4    5 1
    11    4   30 1
    12    5    6 2
    13    5   24 1
    14    6    7 1
    15    7    8 1
    16    8   13 ar
    17    8    9 ar
    18    9   10 ar
    19    9   41 1
    20   10   11 ar
    21   10   42 1
    22   11   12 ar
    23   11   43 1
    24   12   13 ar
    25   12   44 1
    26   13   14 1
    27   14   19 ar
    28   14   15 ar
    29   15   16 ar
    30   15   45 1
    31   16   17 ar
    32   16   46 1
    33   17   18 ar
    34   17   47 1
    35   18   19 ar
    36   18   20 1
    37   19   48 1
    38   20   21 1
    39   21   22 1
    40   21   49 1
    41   21   50 1
    42   22   23 2
    43   22   61 1
    44   24   29 ar
    45   24   25 ar
    46   25   26 ar
    47   25   51 1
    48   26   27 ar
    49   26   52 1
    50   27   28 ar
    51   27   53 1
    52   28   29 ar
    53   28   54 1
    54   29   55 1
    55   30   35 ar
    56   30   31 ar
    57   31   32 ar
    58   31   56 1
    59   32   33 ar
    60   32   57 1
    61   33   34 ar
    62   33   58 1
    63   34   35 ar
    64   34   59 1
    65   35   60 1
@<TRIPOS>MOLECULE
ZINC04474613
   51    50     0     0     0
SMALL
USER_CHARGES

@<TRIPOS>ATOM
      1 C1          0.1443    2.0146   -0.3291 C.3       1 <0>        -0.1543
      2 C2          0.3725    0.5057   -0.2196 C.3       1 <0>        -0.1254
      3 C3          0.8073   -0.0443   -1.5795 C.3       1 <0>        -0.1222
      4 C4          1.0355   -1.5532   -1.4700 C.3       1 <0>        -0.1137
      5 C5          1.4703   -2.1033   -2.8299 C.3       1 <0>        -0.1025
      6 C6          1.6951   -3.5895   -2.7220 C.2       1 <0>        -0.1627
      7 C7          1.1050   -4.4039   -3.5614 C.2       1 <0>        -0.1487
      8 C8          0.3399   -3.8508   -4.7360 C.3       1 <0>        -0.0838
      9 C9          0.8450   -4.4832   -6.0073 C.2       1 <0>        -0.1591
     10 C10         0.0027   -5.0429   -6.8399 C.2       1 <0>        -0.1520
     11 C11        -1.4813   -4.9077   -6.6152 C.3       1 <0>        -0.1030
     12 C12        -2.1412   -4.3593   -7.8820 C.3       1 <0>        -0.1136
     13 C13        -3.6478   -4.2220   -7.6537 C.3       1 <0>        -0.1192
     14 C14        -4.3076   -3.6736   -8.9206 C.3       1 <0>        -0.1191
     15 C15        -5.8143   -3.5363   -8.6923 C.3       1 <0>        -0.1205
     16 C16        -6.4741   -2.9879   -9.9591 C.3       1 <0>        -0.0935
     17 C17        -7.9807   -2.8506   -9.7309 C.3       1 <0>        -0.1840
     18 C18        -8.6306   -2.3105  -10.9787 C.2       1 <0>         0.4872
     19 O1         -7.9517   -2.0587  -11.9596 O.co2     1 <0>        -0.7000
     20 O2         -9.8354   -2.1253  -11.0073 O.co2     1 <0>        -0.7101
     21 H1          1.0695    2.5006   -0.6386 H         1 <0>         0.0528
     22 H2         -0.6340    2.2118   -1.0664 H         1 <0>         0.0546
     23 H3         -0.1654    2.4065    0.6397 H         1 <0>         0.0526
     24 H4          1.1508    0.3086    0.5177 H         1 <0>         0.0593
     25 H5         -0.5527    0.0198    0.0900 H         1 <0>         0.0609
     26 H6          0.0290    0.1528   -2.3168 H         1 <0>         0.0626
     27 H7          1.7325    0.4416   -1.8890 H         1 <0>         0.0608
     28 H8          1.8138   -1.7504   -0.7327 H         1 <0>         0.0601
     29 H9          0.1103   -2.0392   -1.1604 H         1 <0>         0.0622
     30 H10         0.6920   -1.9061   -3.5672 H         1 <0>         0.0770
     31 H11         2.3955   -1.6173   -3.1394 H         1 <0>         0.0676
     32 H12         2.3428   -3.9832   -1.9526 H         1 <0>         0.1071
     33 H13         1.1667   -5.4717   -3.4116 H         1 <0>         0.1076
     34 H14        -0.7205   -4.0729   -4.6161 H         1 <0>         0.0849
     35 H15         0.4816   -2.7712   -4.7861 H         1 <0>         0.0828
     36 H16         1.9013   -4.4749   -6.2318 H         1 <0>         0.1065
     37 H17         0.3718   -5.6013   -7.6875 H         1 <0>         0.1083
     38 H18        -1.9036   -5.8845   -6.3793 H         1 <0>         0.0683
     39 H19        -1.6624   -4.2238   -5.7860 H         1 <0>         0.0747
     40 H20        -1.7189   -3.3825   -8.1179 H         1 <0>         0.0614
     41 H21        -1.9601   -5.0432   -8.7112 H         1 <0>         0.0613
     42 H22        -4.0700   -5.1988   -7.4178 H         1 <0>         0.0592
     43 H23        -3.8288   -3.5381   -6.8246 H         1 <0>         0.0588
     44 H24        -3.8854   -2.6968   -9.1564 H         1 <0>         0.0596
     45 H25        -4.1266   -4.3576   -9.7497 H         1 <0>         0.0597
     46 H26        -6.2365   -4.5131   -8.4564 H         1 <0>         0.0537
     47 H27        -5.9953   -2.8524   -7.8631 H         1 <0>         0.0537
     48 H28        -6.0518   -2.0111  -10.1950 H         1 <0>         0.0571
     49 H29        -6.2930   -3.6719  -10.7883 H         1 <0>         0.0570
     50 H30        -8.4030   -3.8275   -9.4950 H         1 <0>         0.0540
     51 H31        -8.1618   -2.1667   -8.9017 H         1 <0>         0.0540
@<TRIPOS>BOND
     1    1    2 1
     2    1   21 1
     3    1   22 1
     4    1   23 1
     5    2    3 1
     6    2   24 1
     7    2   25 1
     8    3    4 1
     9    3   26 1
    10    3   27 1
    11    4    5 1
    12    4   28 1
    13    4   29 1
    14    5    6 1
    15    5   30 1
    16    5   31 1
    17    6    7 2
    18    6   32 1
    19    7    8 1
    20    7   33 1
    21    8    9 1
    22    8   34 1
    23    8   35 1
    24    9   10 2
    25    9   36 1
    26   10   11 1
    27   10   37 1
    28   11   12 1
    29   11   38 1
    30   11   39 1
    31   12   13 1
    32   12   40 1
    33   12   41 1
    34   13   14 1
    35   13   42 1
    36   13   43 1
    37   14   15 1
    38   14   44 1
    39   14   45 1
    40   15   16 1
    41   15   46 1
    42   15   47 1
    43   16   17 1
    44   16   48 1
    45   16   49 1
    46   17   18 1
    47   17   50 1
    48   17   51 1
    49   18   19 2
    50   18   20 1
@<TRIPOS>MOLECULE
ZINC01532216
   33    35     0     0     0
SMALL
USER_CHARGES

@<TRIPOS>ATOM
      1 C1          2.1093    1.5563    3.8225 C.ar      1 <0>        -0.1932
      2 C2          2.3956    2.1947    2.6296 C.ar      1 <0>        -0.0835
      3 C3          2.9191    1.4798    1.5704 C.ar      1 <0>        -0.1678
      4 C4          3.1581    0.1177    1.7042 C.ar      1 <0>         0.2862
      5 C5          2.8693   -0.5204    2.9041 C.ar      1 <0>        -0.1962
      6 C6          2.3459    0.2006    3.9592 C.ar      1 <0>        -0.0840
      7 N1          3.6872   -0.6086    0.6347 N.pl3     1 <0>        -0.6813
      8 C7          3.7618   -1.9982    0.7053 C.ar      1 <0>         0.1818
      9 C8          2.6418   -2.7404    1.0163 C.ar      1 <0>        -0.1539
     10 C9          2.7057   -4.1283    1.0888 C.ar      1 <0>        -0.0965
     11 C10         3.8721   -4.7916    0.8561 C.ar      1 <0>        -0.1358
     12 C11         5.0364   -4.0730    0.5362 C.ar      1 <0>        -0.0508
     13 C12         4.9831   -2.6597    0.4535 C.ar      1 <0>        -0.0037
     14 C13         6.1457   -1.9438    0.1286 C.ar      1 <0>        -0.6424
     15 C14         7.3066   -2.6149   -0.1080 C.ar      1 <0>        -0.0331
     16 C15         7.3589   -4.0053   -0.0330 C.ar      1 <0>        -0.1328
     17 C16         6.2541   -4.7313    0.2912 C.ar      1 <0>        -0.0867
     18 S1          6.1032   -0.1852    0.0268 S.o2      1 <0>         2.6887
     19 O1          5.4595    0.2927    1.2407 O.2       1 <0>        -1.0293
     20 O2          7.4827    0.2658   -0.0703 O.2       1 <0>        -1.0606
     21 O3          5.3366    0.1506   -1.1630 O.3       1 <0>        -1.0600
     22 H1          1.7041    2.1186    4.6508 H         1 <0>         0.1074
     23 H2          2.2093    3.2534    2.5262 H         1 <0>         0.1125
     24 H3          3.1422    1.9789    0.6390 H         1 <0>         0.1153
     25 H4          3.0535   -1.5791    3.0114 H         1 <0>         0.1154
     26 H5          2.1215   -0.2947    4.8923 H         1 <0>         0.1097
     27 H6          4.0026   -0.1456   -0.1572 H         1 <0>         0.4161
     28 H7          1.7045   -2.2384    1.2059 H         1 <0>         0.1271
     29 H8          1.8157   -4.6889    1.3340 H         1 <0>         0.1219
     30 H9          3.9022   -5.8695    0.9177 H         1 <0>         0.1222
     31 H10         8.1998   -2.0615   -0.3578 H         1 <0>         0.1369
     32 H11         8.2920   -4.5139   -0.2255 H         1 <0>         0.1240
     33 H12         6.3096   -5.8085    0.3468 H         1 <0>         0.1263
@<TRIPOS>BOND
     1    1    6 ar
     2    1    2 ar
     3    1   22 1
     4    2    3 ar
     5    2   23 1
     6    3    4 ar
     7    3   24 1
     8    4    5 ar
     9    4    7 1
    10    5    6 ar
    11    5   25 1
    12    6   26 1
    13    7    8 1
    14    7   27 1
    15    8   13 ar
    16    8    9 ar
    17    9   10 ar
    18    9   28 1
    19   10   11 ar
    20   10   29 1
    21   11   12 ar
    22   11   30 1
    23   12   17 ar
    24   12   13 ar
    25   13   14 ar
    26   14   15 ar
    27   14   18 1
    28   15   16 ar
    29   15   31 1
    30   16   17 ar
    31   16   32 1
    32   17   33 1
    33   18   19 2
    34   18   20 2
    35   18   21 1
@<TRIPOS>MOLECULE
ZINC12502951
   35    36     0     0     0
SMALL
USER_CHARGES
2-[2-oxo-2-(1-piperidyl)ethyl]sulfanyl-6-(trifluoromethyl)-3H-pyrimidin-4-one
@<TRIPOS>ATOM
      1 C1          2.3380   -0.0125   -0.0198 C.2       1 <0>        -0.2301
      2 C2          1.1476   -0.6807   -0.0125 C.2       1 <0>         0.1084
      3 N1          0.0021   -0.0041    0.0020 N.2       1 <0>        -0.5353
      4 C3         -0.0158    1.3150    0.0093 C.2       1 <0>         0.3683
      5 N2          1.1404    2.0345    0.0021 N.am      1 <0>        -0.6233
      6 H1          1.1041    3.1339    0.0079 H         1 <0>         0.4589
      7 C4          2.3286    1.3933   -0.0122 C.2       1 <0>         0.5379
      8 O1          3.3742    2.0220   -0.0188 O.2       1 <0>        -0.5125
      9 S1         -1.5618    2.1602    0.0211 S.3       1 <0>         0.1055
     10 C5         -2.6927    0.7469    0.0188 C.3       1 <0>        -0.1517
     11 C6         -4.1159    1.2423    0.0281 C.2       1 <0>         0.5337
     12 O2         -4.3432    2.4336    0.0357 O.2       1 <0>        -0.5263
     13 N3         -5.1360    0.3616    0.0281 N.am      1 <0>        -0.6020
     14 C7         -4.8765   -1.0845    0.0129 C.3       1 <0>         0.0979
     15 C8         -5.6310   -1.7287    1.1858 C.3       1 <0>        -0.1368
     16 C9         -7.1127   -1.3554    1.0983 C.3       1 <0>        -0.1234
     17 C10        -7.2649    0.1637    1.2043 C.3       1 <0>        -0.1361
     18 C11        -6.5288    0.8293    0.0372 C.3       1 <0>         0.1085
     19 C12         1.1309   -2.1876   -0.0205 C.3       1 <0>         0.5263
     20 F1          2.4446   -2.6684   -0.0356 F         1 <0>        -0.1634
     21 F2          0.4773   -2.6528    1.1256 F         1 <0>        -0.1629
     22 F3          0.4555   -2.6405   -1.1588 F         1 <0>        -0.1629
     23 H2          3.2718   -0.5550   -0.0316 H         1 <0>         0.1743
     24 H3         -2.5211    0.1415   -0.8834 H         1 <0>         0.1371
     25 H4         -2.5127    0.1318    0.9128 H         1 <0>         0.1372
     26 H5         -5.2284   -1.5102   -0.9384 H         1 <0>         0.0783
     27 H6         -3.7964   -1.2643    0.1178 H         1 <0>         0.0900
     28 H7         -5.5226   -2.8222    1.1352 H         1 <0>         0.0808
     29 H8         -5.2139   -1.3625    2.1355 H         1 <0>         0.0696
     30 H9         -7.5209   -1.6979    0.1360 H         1 <0>         0.0670
     31 H10        -7.6613   -1.8366    1.9214 H         1 <0>         0.0694
     32 H11        -8.3318    0.4289    1.1658 H         1 <0>         0.0796
     33 H12        -6.8352    0.5098    2.1559 H         1 <0>         0.0685
     34 H13        -6.5477    1.9224    0.1591 H         1 <0>         0.0969
     35 H14        -7.0130    0.5579   -0.9125 H         1 <0>         0.0731
@<TRIPOS>BOND
     1    1    7 1
     2    1    2 2
     3    1   23 1
     4    2    3 1
     5    2   19 1
     6    3    4 2
     7    4    5 1
     8    4    9 1
     9    5    6 1
    10    5    7 am
    11    7    8 2
    12    9   10 1
    13   10   11 1
    14   10   24 1
    15   10   25 1
    16   11   12 2
    17   11   13 am
    18   13   18 1
    19   13   14 1
    20   14   15 1
    21   14   26 1
    22   14   27 1
    23   15   16 1
    24   15   28 1
    25   15   29 1
    26   16   17 1
    27   16   30 1
    28   16   31 1
    29   17   18 1
    30   17   32 1
    31   17   33 1
    32   18   34 1
    33   18   35 1
    34   19   20 1
    35   19   21 1
    36   19   22 1
@<TRIPOS>MOLECULE
ZINC06072466
   49    48     0     0     0
SMALL
USER_CHARGES
palmitic acid
@<TRIPOS>ATOM
      1 H1          6.8090   11.4123   -0.8917 H         1 <0>         0.0599
      2 C1          7.3169   11.0245   -0.0086 C.3       1 <0>        -0.1203
      3 C2          8.7780   11.4783   -0.0201 C.3       1 <0>        -0.1206
      4 C3          8.8373   13.0071   -0.0125 C.3       1 <0>        -0.1205
      5 C4         10.2985   13.4608   -0.0240 C.3       1 <0>        -0.1212
      6 C5         10.3578   14.9897   -0.0163 C.3       1 <0>        -0.1212
      7 C6         11.8189   15.4434   -0.0279 C.3       1 <0>        -0.1262
      8 C7         11.8783   16.9722   -0.0202 C.3       1 <0>        -0.1538
      9 C8          7.2575    9.4957   -0.0162 C.3       1 <0>        -0.1206
     10 H2          7.7653    9.1080    0.8669 H         1 <0>         0.0601
     11 C9          5.7964    9.0420   -0.0047 C.3       1 <0>        -0.1200
     12 C10         5.7370    7.5131   -0.0124 C.3       1 <0>        -0.1205
     13 C11         4.2759    7.0594   -0.0009 C.3       1 <0>        -0.1193
     14 C12         4.2166    5.5306   -0.0085 C.3       1 <0>        -0.1194
     15 C13         2.7554    5.0768    0.0030 C.3       1 <0>        -0.1198
     16 C14         2.6961    3.5480   -0.0046 C.3       1 <0>        -0.0989
     17 C15         1.2350    3.0943    0.0069 C.3       1 <0>        -0.1583
     18 C16         1.1765    1.5884   -0.0006 C.2       1 <0>         0.4569
     19 O1          2.1986    0.9442   -0.0139 O.co2     1 <0>        -0.6426
     20 H3          6.8260   11.4027    0.8882 H         1 <0>         0.0599
     21 H4          9.2858   11.0905    0.8630 H         1 <0>         0.0602
     22 H5          9.2688   11.1001   -0.9169 H         1 <0>         0.0602
     23 H6          8.3295   13.3948   -0.8956 H         1 <0>         0.0602
     24 H7          8.3465   13.3853    0.8843 H         1 <0>         0.0601
     25 H8         10.8063   13.0731    0.8591 H         1 <0>         0.0604
     26 H9         10.7893   13.0826   -0.9207 H         1 <0>         0.0604
     27 H10         9.8500   15.3774   -0.8994 H         1 <0>         0.0604
     28 H11         9.8670   15.3678    0.8804 H         1 <0>         0.0604
     29 H12        12.3268   15.0556    0.8553 H         1 <0>         0.0602
     30 H13        12.3098   15.0652   -0.9246 H         1 <0>         0.0602
     31 H14        11.3704   17.3600   -0.9033 H         1 <0>         0.0531
     32 H15        11.3874   17.3504    0.8765 H         1 <0>         0.0531
     33 H16        12.9192   17.2955   -0.0284 H         1 <0>         0.0526
     34 H17         7.7483    9.1175   -0.9130 H         1 <0>         0.0601
     35 H18         5.2886    9.4297   -0.8878 H         1 <0>         0.0595
     36 H19         5.3056    9.4201    0.8920 H         1 <0>         0.0595
     37 H20         6.2449    7.1254    0.8707 H         1 <0>         0.0599
     38 H21         6.2279    7.1350   -0.9091 H         1 <0>         0.0599
     39 H22         3.7681    7.4471   -0.8840 H         1 <0>         0.0587
     40 H23         3.7851    7.4376    0.8959 H         1 <0>         0.0587
     41 H24         4.7244    5.1428    0.8746 H         1 <0>         0.0595
     42 H25         4.7074    5.1524   -0.9053 H         1 <0>         0.0595
     43 H26         2.2476    5.4646   -0.8801 H         1 <0>         0.0553
     44 H27         2.2646    5.4550    0.8998 H         1 <0>         0.0553
     45 H28         3.2039    3.1603    0.8785 H         1 <0>         0.0583
     46 H29         3.1869    3.1698   -0.9014 H         1 <0>         0.0583
     47 H30         0.7272    3.4820   -0.8762 H         1 <0>         0.0612
     48 H31         0.7441    3.4725    0.9036 H         1 <0>         0.0612
     49 O2         -0.0110    0.9628    0.0073 O.co2     1 <0>        -0.7801
@<TRIPOS>BOND
     1    1    2 1
     2    2    3 1
     3    2    9 1
     4    2   20 1
     5    3    4 1
     6    3   21 1
     7    3   22 1
     8    4    5 1
     9    4   23 1
    10    4   24 1
    11    5    6 1
    12    5   25 1
    13    5   26 1
    14    6    7 1
    15    6   27 1
    16    6   28 1
    17    7    8 1
    18    7   29 1
    19    7   30 1
    20    8   31 1
    21    8   32 1
    22    8   33 1
    23    9   10 1
    24    9   11 1
    25    9   34 1
    26   11   12 1
    27   11   35 1
    28   11   36 1
    29   12   13 1
    30   12   37 1
    31   12   38 1
    32   13   14 1
    33   13   39 1
    34   13   40 1
    35   14   15 1
    36   14   41 1
    37   14   42 1
    38   15   16 1
    39   15   43 1
    40   15   44 1
    41   16   17 1
    42   16   45 1
    43   16   46 1
    44   17   18 1
    45   17   47 1
    46   17   48 1
    47   18   19 2
    48   18   49 1
@<TRIPOS>MOLECULE
ZINC06845860
   53    52     0     0     0
SMALL
USER_CHARGES
(Z)-octadec-9-enoic acid
@<TRIPOS>ATOM
      1 C1          0.0625    2.5023   -8.6169 C.3       1 <0>        -0.1537
      2 C2          0.6195    1.7877   -7.3840 C.3       1 <0>        -0.1265
      3 C3         -0.1205    2.2727   -6.1358 C.3       1 <0>        -0.1208
      4 C4          0.4365    1.5582   -4.9028 C.3       1 <0>        -0.1217
      5 C5         -0.3035    2.0432   -3.6546 C.3       1 <0>        -0.1198
      6 C6          0.2535    1.3286   -2.4217 C.3       1 <0>        -0.1215
      7 C7         -0.4865    1.8136   -1.1734 C.3       1 <0>        -0.1127
      8 C8          0.0704    1.0991    0.0595 C.3       1 <0>        -0.1021
      9 C9         -0.6584    1.5768    1.2890 C.2       1 <0>        -0.1657
     10 C10        -1.1961    0.7092    2.1102 C.2       1 <0>        -0.1537
     11 C11        -0.9432   -0.7643    1.9210 C.3       1 <0>        -0.1025
     12 C12        -0.4114   -1.3620    3.2252 C.3       1 <0>        -0.1136
     13 C13        -0.1547   -2.8581    3.0332 C.3       1 <0>        -0.1192
     14 C14         0.3771   -3.4558    4.3373 C.3       1 <0>        -0.1193
     15 C15         0.6338   -4.9518    4.1453 C.3       1 <0>        -0.1197
     16 C16         1.1656   -5.5496    5.4494 C.3       1 <0>        -0.0989
     17 C17         1.4223   -7.0456    5.2574 C.3       1 <0>        -0.1582
     18 C18         1.9461   -7.6343    6.5420 C.2       1 <0>         0.4568
     19 O1          2.0984   -6.9297    7.5116 O.co2     1 <0>        -0.6425
     20 H1          0.2014    3.5778   -8.5072 H         1 <0>         0.0527
     21 H2          0.5897    2.1567   -9.5062 H         1 <0>         0.0528
     22 H3         -1.0002    2.2813   -8.7158 H         1 <0>         0.0530
     23 H4          1.6823    2.0087   -7.2852 H         1 <0>         0.0603
     24 H5          0.4807    0.7122   -7.4938 H         1 <0>         0.0607
     25 H6         -1.1833    2.0518   -6.2346 H         1 <0>         0.0603
     26 H7          0.0183    3.3483   -6.0260 H         1 <0>         0.0599
     27 H8          1.4993    1.7791   -4.8040 H         1 <0>         0.0607
     28 H9          0.2977    0.4826   -5.0126 H         1 <0>         0.0612
     29 H10        -1.3663    1.8222   -3.7534 H         1 <0>         0.0603
     30 H11        -0.1647    3.1187   -3.5449 H         1 <0>         0.0598
     31 H12         1.3162    1.5496   -2.3228 H         1 <0>         0.0611
     32 H13         0.1146    0.2531   -2.5314 H         1 <0>         0.0618
     33 H14        -1.5493    1.5927   -1.2723 H         1 <0>         0.0609
     34 H15        -0.3477    2.8892   -1.0637 H         1 <0>         0.0597
     35 H16        -0.0684    0.0235   -0.0502 H         1 <0>         0.0772
     36 H17         1.1332    1.3200    0.1583 H         1 <0>         0.0673
     37 H18        -0.7375    2.6344    1.4931 H         1 <0>         0.1055
     38 H19        -1.8206    1.0500    2.9228 H         1 <0>         0.1068
     39 H20        -1.8742   -1.2605    1.6470 H         1 <0>         0.0676
     40 H21        -0.2081   -0.9081    1.1292 H         1 <0>         0.0753
     41 H22         0.5196   -0.8659    3.4992 H         1 <0>         0.0612
     42 H23        -1.1465   -1.2183    4.0171 H         1 <0>         0.0609
     43 H24        -1.0857   -3.3543    2.7591 H         1 <0>         0.0595
     44 H25         0.5804   -3.0019    2.2413 H         1 <0>         0.0591
     45 H26         1.3081   -2.9596    4.6114 H         1 <0>         0.0598
     46 H27        -0.3580   -3.3120    5.1292 H         1 <0>         0.0598
     47 H28        -0.2972   -5.4480    3.8712 H         1 <0>         0.0555
     48 H29         1.3689   -5.0956    3.3534 H         1 <0>         0.0554
     49 H30         2.0966   -5.0534    5.7235 H         1 <0>         0.0584
     50 H31         0.4305   -5.4058    6.2413 H         1 <0>         0.0584
     51 H32         0.4913   -7.5418    4.9834 H         1 <0>         0.0612
     52 H33         2.1574   -7.1894    4.4655 H         1 <0>         0.0612
     53 O2          2.2434   -8.9416    6.6090 O.co2     1 <0>        -0.7802
@<TRIPOS>BOND
     1    1    2 1
     2    1   20 1
     3    1   21 1
     4    1   22 1
     5    2    3 1
     6    2   23 1
     7    2   24 1
     8    3    4 1
     9    3   25 1
    10    3   26 1
    11    4    5 1
    12    4   27 1
    13    4   28 1
    14    5    6 1
    15    5   29 1
    16    5   30 1
    17    6    7 1
    18    6   31 1
    19    6   32 1
    20    7    8 1
    21    7   33 1
    22    7   34 1
    23    8    9 1
    24    8   35 1
    25    8   36 1
    26    9   10 2
    27    9   37 1
    28   10   11 1
    29   10   38 1
    30   11   12 1
    31   11   39 1
    32   11   40 1
    33   12   13 1
    34   12   41 1
    35   12   42 1
    36   13   14 1
    37   13   43 1
    38   13   44 1
    39   14   15 1
    40   14   45 1
    41   14   46 1
    42   15   16 1
    43   15   47 1
    44   15   48 1
    45   16   17 1
    46   16   49 1
    47   16   50 1
    48   17   18 1
    49   17   51 1
    50   17   52 1
    51   18   19 2
    52   18   53 1
