@<TRIPOS>MOLECULE
ZINC05195818
   53    55     0     0     0
SMALL
USER_CHARGES

@<TRIPOS>ATOM
      1 C1          1.8494    1.5479    0.1386 C.3       1 <0>        -0.1235
      2 C2          2.1353    0.0688    0.1775 C.2       1 <0>        -0.1284
      3 C3          2.1550   -0.5646    1.3241 C.2       1 <0>        -0.1620
      4 C4          1.7739    0.1577    2.5906 C.3       1 <0>        -0.0432
      5 C5          0.5958   -0.5330    3.2278 C.ar      1 <0>        -0.1601
      6 C6         -0.6987   -0.1531    2.8909 C.ar      1 <0>         0.1965
      7 C7         -1.7934   -0.7752    3.4704 C.ar      1 <0>        -0.1813
      8 C8         -1.6098   -1.7922    4.3971 C.ar      1 <0>         0.1865
      9 C9         -0.3010   -2.1828    4.7300 C.ar      1 <0>        -0.2632
     10 C10         0.8018   -1.5487    4.1433 C.ar      1 <0>         0.2210
     11 O1          2.0626   -1.9248    4.4747 O.3       1 <0>        -0.4718
     12 C11        -0.1195   -3.2793    5.6981 C.2       1 <0>         0.4416
     13 O2          0.9620   -3.5236    6.2024 O.2       1 <0>        -0.4216
     14 C12        -1.3295   -4.0638    6.0200 C.ar      1 <0>        -0.2196
     15 C13        -2.5782   -3.5636    5.6159 C.ar      1 <0>         0.1695
     16 O3         -2.6788   -2.3866    4.9643 O.3       1 <0>        -0.2211
     17 C14        -3.7231   -4.2970    5.9014 C.ar      1 <0>        -0.1659
     18 C15        -3.6275   -5.4986    6.5806 C.ar      1 <0>         0.1549
     19 C16        -2.3844   -5.9886    6.9874 C.ar      1 <0>         0.0532
     20 C17        -1.2374   -5.2742    6.7080 C.ar      1 <0>         0.0073
     21 C18         0.1069   -5.7984    7.1429 C.3       1 <0>        -0.0612
     22 C19         0.4254   -5.2814    8.5222 C.2       1 <0>        -0.1450
     23 C20         0.6495   -6.1224    9.5013 C.2       1 <0>        -0.1258
     24 C21         0.5418   -7.6060    9.2598 C.3       1 <0>        -0.1235
     25 C22         1.0150   -5.6062   10.8691 C.3       1 <0>        -0.1171
     26 O4         -2.3045   -7.1693    7.6586 O.3       1 <0>        -0.4702
     27 O5         -4.7527   -6.2079    6.8546 O.3       1 <0>        -0.4784
     28 O6         -0.8925    0.8385    1.9847 O.3       1 <0>        -0.4833
     29 C23         2.3986   -0.6817   -1.1025 C.3       1 <0>        -0.1197
     30 H1          2.5480    2.0703    0.7923 H         1 <0>         0.0664
     31 H2          1.9641    1.9134   -0.8818 H         1 <0>         0.0609
     32 H3          0.8295    1.7298    0.4773 H         1 <0>         0.0724
     33 H4          2.4443   -1.6045    1.3616 H         1 <0>         0.1100
     34 H5          2.6171    0.1495    3.2813 H         1 <0>         0.0829
     35 H6          1.5072    1.1880    2.3551 H         1 <0>         0.0910
     36 H7         -2.7927   -0.4673    3.2003 H         1 <0>         0.1531
     37 H8          2.4324   -1.4419    5.2265 H         1 <0>         0.4029
     38 H9         -4.6900   -3.9285    5.5922 H         1 <0>         0.1546
     39 H10         0.0839   -6.8880    7.1597 H         1 <0>         0.0853
     40 H11         0.8719   -5.4618    6.4432 H         1 <0>         0.1055
     41 H12         0.4689   -4.2176    8.7034 H         1 <0>         0.1067
     42 H13         1.4812   -7.9765    8.8496 H         1 <0>         0.0631
     43 H14         0.3315   -8.1130   10.2015 H         1 <0>         0.0599
     44 H15        -0.2652   -7.8015    8.5537 H         1 <0>         0.0752
     45 H16         0.1079   -5.4508   11.4532 H         1 <0>         0.0656
     46 H17         1.6519   -6.3328   11.3735 H         1 <0>         0.0627
     47 H18         1.5496   -4.6614   10.7701 H         1 <0>         0.0610
     48 H19        -2.2000   -7.9412    7.0856 H         1 <0>         0.3846
     49 H20        -4.9960   -6.8412    6.1655 H         1 <0>         0.3980
     50 H21        -0.9542    0.5294    1.0705 H         1 <0>         0.4008
     51 H22         2.3406    0.0066   -1.9457 H         1 <0>         0.0626
     52 H23         3.3928   -1.1270   -1.0647 H         1 <0>         0.0654
     53 H24         1.6529   -1.4675   -1.2230 H         1 <0>         0.0648
@<TRIPOS>BOND
     1    1    2 1
     2    1   30 1
     3    1   31 1
     4    1   32 1
     5    2    3 2
     6    2   29 1
     7    3    4 1
     8    3   33 1
     9    4    5 1
    10    4   34 1
    11    4   35 1
    12    5   10 ar
    13    5    6 ar
    14    6    7 ar
    15    6   28 1
    16    7    8 ar
    17    7   36 1
    18    8   16 1
    19    8    9 ar
    20    9   10 ar
    21    9   12 1
    22   10   11 1
    23   11   37 1
    24   12   13 2
    25   12   14 1
    26   14   20 ar
    27   14   15 ar
    28   15   16 1
    29   15   17 ar
    30   17   18 ar
    31   17   38 1
    32   18   19 ar
    33   18   27 1
    34   19   20 ar
    35   19   26 1
    36   20   21 1
    37   21   22 1
    38   21   39 1
    39   21   40 1
    40   22   23 2
    41   22   41 1
    42   23   24 1
    43   23   25 1
    44   24   42 1
    45   24   43 1
    46   24   44 1
    47   25   45 1
    48   25   46 1
    49   25   47 1
    50   26   48 1
    51   27   49 1
    52   28   50 1
    53   29   51 1
    54   29   52 1
    55   29   53 1
@<TRIPOS>MOLECULE
ZINC05195818
   52    54     0     0     0
SMALL
USER_CHARGES

@<TRIPOS>ATOM
      1 C1         -0.8001    1.0338   -0.2881 C.3       1 <0>        -0.1180
      2 C2         -0.7065   -0.4686   -0.2173 C.2       1 <0>        -0.1428
      3 C3         -0.4244   -1.0545    0.9199 C.2       1 <0>        -0.1489
      4 C4         -0.3109   -0.2370    2.1808 C.3       1 <0>        -0.0380
      5 C5         -1.2269   -0.8070    3.2330 C.ar      1 <0>        -0.1827
      6 C6         -2.5400   -0.3554    3.3283 C.ar      1 <0>         0.1872
      7 C7         -3.3964   -0.8690    4.2905 C.ar      1 <0>        -0.1952
      8 C8         -2.9518   -1.8420    5.1717 C.ar      1 <0>         0.1931
      9 C9         -1.6232   -2.3040    5.0804 C.ar      1 <0>        -0.2271
     10 C10        -0.7630   -1.7793    4.0956 C.ar      1 <0>         0.2240
     11 O1          0.5149   -2.2234    3.9992 O.3       1 <0>        -0.4627
     12 C11        -1.1667   -3.2971    5.9789 C.2       1 <0>         0.3783
     13 C12        -2.0694   -3.7921    6.9428 C.2       1 <0>        -0.3009
     14 C13        -1.6617   -4.7809    7.8600 C.2       1 <0>         0.0111
     15 C14        -2.5392   -5.2517    8.7862 C.2       1 <0>        -0.0211
     16 C15        -3.8597   -4.7522    8.8322 C.2       1 <0>         0.3035
     17 O2         -4.7142   -5.2184    9.7428 O.2       1 <0>        -0.6636
     18 C16        -4.2739   -3.7712    7.9274 C.2       1 <0>        -0.3005
     19 C17        -3.3888   -3.2874    6.9824 C.2       1 <0>         0.1905
     20 O3         -3.7878   -2.3391    6.1078 O.3       1 <0>        -0.2256
     21 O4         -2.1441   -6.2069    9.6709 O.3       1 <0>        -0.4831
     22 C18        -0.2541   -5.3171    7.8143 C.3       1 <0>        -0.0611
     23 C19         0.6605   -4.3928    8.5761 C.2       1 <0>        -0.0927
     24 C20         1.4378   -4.8692    9.5168 C.2       1 <0>        -0.1774
     25 C21         1.5495   -6.3583    9.7196 C.3       1 <0>        -0.1127
     26 C22         2.2204   -3.9282   10.3961 C.3       1 <0>        -0.1040
     27 O5          0.0986   -3.7587    5.9149 O.3       1 <0>        -0.5481
     28 O6         -2.9864    0.5972    2.4714 O.3       1 <0>        -0.4876
     29 C23        -0.9376   -1.2970   -1.4548 C.3       1 <0>        -0.1158
     30 H1          0.1233    1.4735    0.0889 H         1 <0>         0.0633
     31 H2         -0.9523    1.3401   -1.3230 H         1 <0>         0.0567
     32 H3         -1.6390    1.3746    0.3188 H         1 <0>         0.0710
     33 H4         -0.2730   -2.1233    0.9537 H         1 <0>         0.1095
     34 H5          0.7176   -0.2650    2.5407 H         1 <0>         0.0798
     35 H6         -0.5948    0.7944    1.9720 H         1 <0>         0.0857
     36 H7         -4.4128   -0.5094    4.3537 H         1 <0>         0.1460
     37 H8          1.1458   -1.7258    4.5372 H         1 <0>         0.3950
     38 H9         -5.2844   -3.3920    7.9659 H         1 <0>         0.1222
     39 H10        -2.8350   -6.4791   10.2904 H         1 <0>         0.3894
     40 H11        -0.2279   -6.3083    8.2669 H         1 <0>         0.0722
     41 H12         0.0765   -5.3821    6.7777 H         1 <0>         0.1135
     42 H13         0.6750   -3.3375    8.3465 H         1 <0>         0.0987
     43 H14         0.9966   -6.8744    8.9347 H         1 <0>         0.0705
     44 H15         2.5982   -6.6529    9.6791 H         1 <0>         0.0509
     45 H16         1.1345   -6.6248   10.6916 H         1 <0>         0.0553
     46 H17         1.6252   -3.6697   11.2719 H         1 <0>         0.0576
     47 H18         3.1440   -4.4118   10.7143 H         1 <0>         0.0516
     48 H19         2.4580   -3.0225    9.8381 H         1 <0>         0.0539
     49 H20        -3.3730    0.2446    1.6582 H         1 <0>         0.3942
     50 H21        -1.1580   -0.6399   -2.2961 H         1 <0>         0.0591
     51 H22        -0.0432   -1.8802   -1.6739 H         1 <0>         0.0626
     52 H23        -1.7788   -1.9702   -1.2895 H         1 <0>         0.0635
@<TRIPOS>BOND
     1    1    2 1
     2    1   30 1
     3    1   31 1
     4    1   32 1
     5    2    3 2
     6    2   29 1
     7    3    4 1
     8    3   33 1
     9    4    5 1
    10    4   34 1
    11    4   35 1
    12    5   10 ar
    13    5    6 ar
    14    6    7 ar
    15    6   28 1
    16    7    8 ar
    17    7   36 1
    18    8   20 1
    19    8    9 ar
    20    9   10 ar
    21    9   12 1
    22   10   11 1
    23   11   37 1
    24   12   13 2
    25   12   27 1
    26   13   19 1
    27   13   14 1
    28   14   15 2
    29   14   22 1
    30   15   16 1
    31   15   21 1
    32   16   17 2
    33   16   18 1
    34   18   19 2
    35   18   38 1
    36   19   20 1
    37   21   39 1
    38   22   23 1
    39   22   40 1
    40   22   41 1
    41   23   24 2
    42   23   42 1
    43   24   25 1
    44   24   26 1
    45   25   43 1
    46   25   44 1
    47   25   45 1
    48   26   46 1
    49   26   47 1
    50   26   48 1
    51   28   49 1
    52   29   50 1
    53   29   51 1
    54   29   52 1
@<TRIPOS>MOLECULE
ZINC05430812
   56    58     0     0     0
SMALL
USER_CHARGES

@<TRIPOS>ATOM
      1 C1         -0.1716    1.4909    0.0169 C.3       1 <0>        -0.1226
      2 C2         -0.0710   -0.0127    0.0071 C.2       1 <0>        -0.1279
      3 C3          0.1206   -0.6637    1.1276 C.2       1 <0>        -0.1623
      4 C4          0.1232    0.0784    2.4392 C.3       1 <0>        -0.0426
      5 C5         -0.8640   -0.5621    3.3807 C.ar      1 <0>        -0.1608
      6 C6         -2.1862   -0.1320    3.3999 C.ar      1 <0>         0.1967
      7 C7         -3.1061   -0.7076    4.2624 C.ar      1 <0>        -0.1812
      8 C8         -2.7173   -1.7274    5.1200 C.ar      1 <0>         0.1863
      9 C9         -1.3828   -2.1686    5.0932 C.ar      1 <0>        -0.2628
     10 C10        -0.4565   -1.5815    4.2215 C.ar      1 <0>         0.2209
     11 O1          0.8319   -2.0064    4.2059 O.3       1 <0>        -0.4717
     12 C11        -0.9877   -3.2676    5.9925 C.2       1 <0>         0.4418
     13 O2          0.1800   -3.5529    6.1898 O.2       1 <0>        -0.4213
     14 C12        -2.0942   -4.0017    6.6403 C.ar      1 <0>        -0.2216
     15 C13        -3.3860   -3.4536    6.5807 C.ar      1 <0>         0.1729
     16 O3         -3.6148   -2.2762    5.9633 O.3       1 <0>        -0.2206
     17 C14        -4.4378   -4.1396    7.1752 C.ar      1 <0>        -0.1673
     18 C15        -4.2074   -5.3413    7.8210 C.ar      1 <0>         0.1618
     19 C16        -2.9198   -5.8789    7.8846 C.ar      1 <0>         0.0416
     20 C17        -1.8650   -5.2121    7.2956 C.ar      1 <0>         0.0152
     21 C18        -0.4738   -5.7879    7.3594 C.3       1 <0>        -0.0611
     22 C19         0.2246   -5.2785    8.5939 C.2       1 <0>        -0.1431
     23 C20         0.7360   -6.1246    9.4533 C.2       1 <0>        -0.1263
     24 C21         0.6260   -7.6074    9.2075 C.3       1 <0>        -0.1213
     25 C22         1.4344   -5.6152   10.6878 C.3       1 <0>        -0.1161
     26 O4         -2.7058   -7.0591    8.5266 O.3       1 <0>        -0.3115
     27 C23        -2.8128   -8.2511    7.7457 C.3       1 <0>         0.0270
     28 O5         -5.2424   -6.0039    8.3988 O.3       1 <0>        -0.4773
     29 O6         -2.5804    0.8628    2.5651 O.3       1 <0>        -0.4836
     30 C24        -0.1908   -0.7674   -1.2918 C.3       1 <0>        -0.1196
     31 H1          0.7134    1.9111    0.4947 H         1 <0>         0.0659
     32 H2         -0.2400    1.8572   -1.0074 H         1 <0>         0.0609
     33 H3         -1.0610    1.7919    0.5705 H         1 <0>         0.0718
     34 H4          0.2767   -1.7323    1.1114 H         1 <0>         0.1096
     35 H5          1.1206    0.0392    2.8769 H         1 <0>         0.0834
     36 H6         -0.1585    1.1176    2.2692 H         1 <0>         0.0911
     37 H7         -4.1290   -0.3611    4.2673 H         1 <0>         0.1531
     38 H8          1.4088   -1.5356    4.8229 H         1 <0>         0.4030
     39 H9         -5.4378   -3.7339    7.1329 H         1 <0>         0.1555
     40 H10        -0.5322   -6.8756    7.3978 H         1 <0>         0.0833
     41 H11         0.0857   -5.4850    6.4744 H         1 <0>         0.1055
     42 H12         0.3034   -4.2159    8.7700 H         1 <0>         0.1070
     43 H13         1.1178   -7.8573    8.2674 H         1 <0>         0.0624
     44 H14         1.1061   -8.1475   10.0235 H         1 <0>         0.0590
     45 H15        -0.4254   -7.8898    9.1538 H         1 <0>         0.0729
     46 H16         0.7118   -5.5112   11.4972 H         1 <0>         0.0663
     47 H17         2.2113   -6.3205   10.9828 H         1 <0>         0.0623
     48 H18         1.8851   -4.6456   10.4762 H         1 <0>         0.0608
     49 H19        -3.8170   -8.3229    7.3280 H         1 <0>         0.0451
     50 H20        -2.0837   -8.2218    6.9360 H         1 <0>         0.0484
     51 H21        -2.6194   -9.1180    8.3776 H         1 <0>         0.1002
     52 H22        -5.6863   -6.6297    7.8103 H         1 <0>         0.3971
     53 H23        -2.8982    0.5527    1.7061 H         1 <0>         0.4013
     54 H24        -0.3461   -0.0626   -2.1086 H         1 <0>         0.0626
     55 H25         0.7239   -1.3331   -1.4690 H         1 <0>         0.0653
     56 H26        -1.0369   -1.4525   -1.2373 H         1 <0>         0.0647
@<TRIPOS>BOND
     1    1    2 1
     2    1   31 1
     3    1   32 1
     4    1   33 1
     5    2    3 2
     6    2   30 1
     7    3    4 1
     8    3   34 1
     9    4    5 1
    10    4   35 1
    11    4   36 1
    12    5   10 ar
    13    5    6 ar
    14    6    7 ar
    15    6   29 1
    16    7    8 ar
    17    7   37 1
    18    8   16 1
    19    8    9 ar
    20    9   10 ar
    21    9   12 1
    22   10   11 1
    23   11   38 1
    24   12   13 2
    25   12   14 1
    26   14   20 ar
    27   14   15 ar
    28   15   16 1
    29   15   17 ar
    30   17   18 ar
    31   17   39 1
    32   18   19 ar
    33   18   28 1
    34   19   20 ar
    35   19   26 1
    36   20   21 1
    37   21   22 1
    38   21   40 1
    39   21   41 1
    40   22   23 2
    41   22   42 1
    42   23   24 1
    43   23   25 1
    44   24   43 1
    45   24   44 1
    46   24   45 1
    47   25   46 1
    48   25   47 1
    49   25   48 1
    50   26   27 1
    51   27   49 1
    52   27   50 1
    53   27   51 1
    54   28   52 1
    55   29   53 1
    56   30   54 1
    57   30   55 1
    58   30   56 1
@<TRIPOS>MOLECULE
ZINC05430812
   55    57     0     0     0
SMALL
USER_CHARGES

@<TRIPOS>ATOM
      1 C1         -0.8510    2.1659    0.2391 C.3       1 <0>        -0.1183
      2 C2         -0.1716    0.8232    0.1586 C.2       1 <0>        -0.1427
      3 C3          0.1514    0.1856    1.2565 C.2       1 <0>        -0.1488
      4 C4         -0.2428    0.7478    2.5980 C.3       1 <0>        -0.0384
      5 C5         -1.0453   -0.2778    3.3563 C.ar      1 <0>        -0.1820
      6 C6         -2.4298   -0.3155    3.2190 C.ar      1 <0>         0.1874
      7 C7         -3.1836   -1.2526    3.9095 C.ar      1 <0>        -0.1950
      8 C8         -2.5634   -2.1659    4.7475 C.ar      1 <0>         0.1936
      9 C9         -1.1615   -2.1333    4.8907 C.ar      1 <0>        -0.2270
     10 C10        -0.4046   -1.1805    4.1805 C.ar      1 <0>         0.2239
     11 O1          0.9451   -1.1473    4.3100 O.3       1 <0>        -0.4627
     12 C11        -0.5258   -3.0644    5.7457 C.2       1 <0>         0.3796
     13 C12        -1.3292   -4.0001    6.4300 C.2       1 <0>        -0.3196
     14 C13        -0.7429   -4.9469    7.2931 C.2       1 <0>         0.0475
     15 C14        -1.5258   -5.8448    7.9490 C.2       1 <0>        -0.0640
     16 C15        -2.9266   -5.8317    7.7678 C.2       1 <0>         0.3280
     17 O2         -3.6876   -6.7149    8.4141 O.2       1 <0>        -0.6453
     18 C16        -3.5180   -4.8966    6.9144 C.2       1 <0>        -0.3028
     19 C17        -2.7299   -3.9806    6.2434 C.2       1 <0>         0.2005
     20 O3         -3.3003   -3.0762    5.4187 O.3       1 <0>        -0.2269
     21 O4         -0.9581   -6.7587    8.7818 O.3       1 <0>        -0.3135
     22 C18        -1.0509   -8.1320    8.3978 C.3       1 <0>         0.0309
     23 C19         0.7512   -4.9649    7.4891 C.3       1 <0>        -0.0625
     24 C20         1.1359   -3.9297    8.5145 C.2       1 <0>        -0.1004
     25 C21         1.7524   -4.2925    9.6120 C.2       1 <0>        -0.1689
     26 C22         1.9983   -5.7529    9.8906 C.3       1 <0>        -0.1179
     27 C23         2.2156   -3.2493   10.5959 C.3       1 <0>        -0.1056
     28 O5          0.8135   -3.0575    5.9019 O.3       1 <0>        -0.5491
     29 O6         -3.0481    0.5738    2.4019 O.3       1 <0>        -0.4874
     30 C24         0.1364    0.2138   -1.1849 C.3       1 <0>        -0.1158
     31 H1         -0.2504    2.8410    0.8486 H         1 <0>         0.0635
     32 H2         -0.9579    2.5797   -0.7637 H         1 <0>         0.0566
     33 H3         -1.8361    2.0481    0.6904 H         1 <0>         0.0714
     34 H4          0.7000   -0.7429    1.2002 H         1 <0>         0.1095
     35 H5          0.6540    0.9989    3.1644 H         1 <0>         0.0797
     36 H6         -0.8442    1.6453    2.4533 H         1 <0>         0.0858
     37 H7         -4.2573   -1.2707    3.7941 H         1 <0>         0.1462
     38 H8          1.2577   -0.5756    5.0245 H         1 <0>         0.3950
     39 H9         -4.5894   -4.8900    6.7786 H         1 <0>         0.1220
     40 H10        -0.4964   -8.2889    7.4726 H         1 <0>         0.0274
     41 H11        -0.6301   -8.7585    9.1843 H         1 <0>         0.0750
     42 H12        -2.0971   -8.3963    8.2436 H         1 <0>         0.0573
     43 H13         1.0605   -5.9513    7.8348 H         1 <0>         0.0683
     44 H14         1.2444   -4.7402    6.5433 H         1 <0>         0.1148
     45 H15         0.9033   -2.8888    8.3446 H         1 <0>         0.1011
     46 H16         2.9186   -6.0668    9.3981 H         1 <0>         0.0518
     47 H17         2.0906   -5.9072   10.9656 H         1 <0>         0.0488
     48 H18         1.1635   -6.3411    9.5095 H         1 <0>         0.0846
     49 H19         1.3575   -2.6792   10.9520 H         1 <0>         0.0561
     50 H20         2.7034   -3.7370   11.4399 H         1 <0>         0.0532
     51 H21         2.9211   -2.5770   10.1075 H         1 <0>         0.0558
     52 H22        -3.1450    0.2681    1.4896 H         1 <0>         0.3941
     53 H23        -0.2031    0.8843   -1.9744 H         1 <0>         0.0591
     54 H24         1.2116    0.0601   -1.2762 H         1 <0>         0.0627
     55 H25        -0.3766   -0.7436   -1.2758 H         1 <0>         0.0635
@<TRIPOS>BOND
     1    1    2 1
     2    1   31 1
     3    1   32 1
     4    1   33 1
     5    2    3 2
     6    2   30 1
     7    3    4 1
     8    3   34 1
     9    4    5 1
    10    4   35 1
    11    4   36 1
    12    5   10 ar
    13    5    6 ar
    14    6    7 ar
    15    6   29 1
    16    7    8 ar
    17    7   37 1
    18    8   20 1
    19    8    9 ar
    20    9   10 ar
    21    9   12 1
    22   10   11 1
    23   11   38 1
    24   12   13 2
    25   12   28 1
    26   13   19 1
    27   13   14 1
    28   14   15 2
    29   14   23 1
    30   15   16 1
    31   15   21 1
    32   16   17 2
    33   16   18 1
    34   18   19 2
    35   18   39 1
    36   19   20 1
    37   21   22 1
    38   22   40 1
    39   22   41 1
    40   22   42 1
    41   23   24 1
    42   23   43 1
    43   23   44 1
    44   24   25 2
    45   24   45 1
    46   25   26 1
    47   25   27 1
    48   26   46 1
    49   26   47 1
    50   26   48 1
    51   27   49 1
    52   27   50 1
    53   27   51 1
    54   29   52 1
    55   30   53 1
    56   30   54 1
    57   30   55 1
@<TRIPOS>MOLECULE
ZINC13108877
   66    68     0     0     0
SMALL
USER_CHARGES

@<TRIPOS>ATOM
      1 C1         -1.6960   -0.3892   -0.4737 C.3       1 <0>        -0.1232
      2 C2         -2.0248   -1.8404   -0.2350 C.2       1 <0>        -0.1286
      3 C3         -1.4170   -2.5013    0.7189 C.2       1 <0>        -0.1613
      4 C4         -0.3892   -1.8104    1.5776 C.3       1 <0>        -0.0430
      5 C5         -0.7660   -1.9584    3.0292 C.ar      1 <0>        -0.1618
      6 C6         -1.5800   -1.0087    3.6367 C.ar      1 <0>         0.1967
      7 C7         -1.9329   -1.1274    4.9719 C.ar      1 <0>        -0.1821
      8 C8         -1.4780   -2.2030    5.7221 C.ar      1 <0>         0.1870
      9 C9         -0.6634   -3.1683    5.1048 C.ar      1 <0>        -0.2637
     10 C10        -0.3069   -3.0416    3.7559 C.ar      1 <0>         0.2207
     11 O1          0.4861   -3.9724    3.1682 O.3       1 <0>        -0.4716
     12 C11        -0.2068   -4.3185    5.9054 C.2       1 <0>         0.4421
     13 O2          0.6707   -5.0687    5.5169 O.2       1 <0>        -0.4230
     14 C12        -0.8781   -4.5058    7.2082 C.ar      1 <0>        -0.2155
     15 C13        -0.7254   -5.6908    7.9297 C.ar      1 <0>         0.0033
     16 C14        -1.3707   -5.8399    9.1399 C.ar      1 <0>         0.0574
     17 C15        -2.1717   -4.8077    9.6350 C.ar      1 <0>         0.1526
     18 C16        -2.3236   -3.6311    8.9237 C.ar      1 <0>        -0.1196
     19 C17        -1.6769   -3.4634    7.7050 C.ar      1 <0>         0.1699
     20 O3         -1.8169   -2.3079    7.0228 O.3       1 <0>        -0.2155
     21 C18        -3.1924   -2.5284    9.4717 C.3       1 <0>        -0.0471
     22 C19        -2.3583   -1.6094   10.3265 C.2       1 <0>        -0.1687
     23 C20        -2.3493   -0.3214   10.0878 C.2       1 <0>        -0.1170
     24 C21        -3.0600    0.2255    8.8767 C.3       1 <0>        -0.1272
     25 C22        -1.6283    0.6135   11.0244 C.3       1 <0>        -0.1198
     26 O4         -2.8074   -4.9612   10.8251 O.3       1 <0>        -0.4746
     27 O5         -1.2276   -6.9912    9.8504 O.3       1 <0>        -0.4733
     28 C23         0.1397   -6.8006    7.3903 C.3       1 <0>        -0.0652
     29 C24         1.5535   -6.6183    7.8791 C.2       1 <0>        -0.1441
     30 C25         2.1556   -7.5897    8.5194 C.2       1 <0>        -0.1339
     31 C26         1.4344   -8.8896    8.7670 C.3       1 <0>        -0.1222
     32 C27         3.5694   -7.4074    9.0082 C.3       1 <0>        -0.1166
     33 O6         -2.0337    0.0468    2.9141 O.3       1 <0>        -0.4838
     34 C28        -3.0526   -2.5313   -1.0936 C.3       1 <0>        -0.1194
     35 H1         -0.6383   -0.2918   -0.7184 H         1 <0>         0.0659
     36 H2         -2.2967   -0.0120   -1.3014 H         1 <0>         0.0605
     37 H3         -1.9153    0.1857    0.4259 H         1 <0>         0.0726
     38 H4         -1.6526   -3.5414    0.8900 H         1 <0>         0.1097
     39 H5          0.5884   -2.2617    1.4081 H         1 <0>         0.0837
     40 H6         -0.3509   -0.7525    1.3181 H         1 <0>         0.0911
     41 H7         -2.5644   -0.3806    5.4300 H         1 <0>         0.1518
     42 H8          1.4318   -3.7811    3.2331 H         1 <0>         0.4023
     43 H9         -3.6257   -1.9632    8.6465 H         1 <0>         0.0900
     44 H10        -3.9908   -2.9606   10.0748 H         1 <0>         0.0946
     45 H11        -1.7679   -2.0127   11.1359 H         1 <0>         0.1064
     46 H12        -4.1149    0.3711    9.1094 H         1 <0>         0.0671
     47 H13        -2.6152    1.1797    8.5944 H         1 <0>         0.0624
     48 H14        -2.9641   -0.4788    8.0503 H         1 <0>         0.0736
     49 H15        -0.5724    0.3456   11.0635 H         1 <0>         0.0644
     50 H16        -1.7302    1.6376   10.6652 H         1 <0>         0.0627
     51 H17        -2.0607    0.5335   12.0217 H         1 <0>         0.0667
     52 H18        -2.2923   -4.6633   11.5874 H         1 <0>         0.3954
     53 H19        -0.4863   -6.9806   10.4713 H         1 <0>         0.3862
     54 H20        -0.2434   -7.7606    7.7361 H         1 <0>         0.0907
     55 H21         0.1259   -6.7750    6.3006 H         1 <0>         0.1068
     56 H22         2.0703   -5.6867    7.7017 H         1 <0>         0.1071
     57 H23         1.1538   -9.3368    7.8134 H         1 <0>         0.0659
     58 H24         2.0898   -9.5712    9.3091 H         1 <0>         0.0599
     59 H25         0.5379   -8.7009    9.3575 H         1 <0>         0.0717
     60 H26         3.5546   -6.9963   10.0176 H         1 <0>         0.0651
     61 H27         4.0783   -8.3713    9.0159 H         1 <0>         0.0634
     62 H28         4.0978   -6.7228    8.3448 H         1 <0>         0.0611
     63 H29        -2.8800   -0.1124    2.4741 H         1 <0>         0.4009
     64 H30        -2.5631   -2.9736   -1.9614 H         1 <0>         0.0674
     65 H31        -3.5427   -3.3141   -0.5147 H         1 <0>         0.0615
     66 H32        -3.7953   -1.8060   -1.4259 H         1 <0>         0.0637
@<TRIPOS>BOND
     1    1    2 1
     2    1   35 1
     3    1   36 1
     4    1   37 1
     5    2    3 2
     6    2   34 1
     7    3    4 1
     8    3   38 1
     9    4    5 1
    10    4   39 1
    11    4   40 1
    12    5   10 ar
    13    5    6 ar
    14    6    7 ar
    15    6   33 1
    16    7    8 ar
    17    7   41 1
    18    8   20 1
    19    8    9 ar
    20    9   10 ar
    21    9   12 1
    22   10   11 1
    23   11   42 1
    24   12   13 2
    25   12   14 1
    26   14   19 ar
    27   14   15 ar
    28   15   16 ar
    29   15   28 1
    30   16   17 ar
    31   16   27 1
    32   17   18 ar
    33   17   26 1
    34   18   19 ar
    35   18   21 1
    36   19   20 1
    37   21   22 1
    38   21   43 1
    39   21   44 1
    40   22   23 2
    41   22   45 1
    42   23   24 1
    43   23   25 1
    44   24   46 1
    45   24   47 1
    46   24   48 1
    47   25   49 1
    48   25   50 1
    49   25   51 1
    50   26   52 1
    51   27   53 1
    52   28   29 1
    53   28   54 1
    54   28   55 1
    55   29   30 2
    56   29   56 1
    57   30   31 1
    58   30   32 1
    59   31   57 1
    60   31   58 1
    61   31   59 1
    62   32   60 1
    63   32   61 1
    64   32   62 1
    65   33   63 1
    66   34   64 1
    67   34   65 1
    68   34   66 1
@<TRIPOS>MOLECULE
ZINC04102315
   33    33     0     0     0
SMALL
USER_CHARGES

@<TRIPOS>ATOM
      1 C1         -0.4045    1.8595   -0.4074 C.3       1 <0>        -0.1279
      2 C2         -0.3029    0.3565   -0.3686 C.2       1 <0>        -0.1602
      3 C3         -1.3899   -0.3722   -0.3093 C.2       1 <0>        -0.1594
      4 C4         -1.2882   -1.8753   -0.2705 C.3       1 <0>        -0.0648
      5 C5         -2.0255   -2.3977    0.9356 C.2       1 <0>        -0.1445
      6 C6         -2.9648   -3.2990    0.7894 C.2       1 <0>        -0.1625
      7 C7         -3.7021   -3.8214    1.9955 C.3       1 <0>        -0.0838
      8 C8         -5.2070   -3.6324    1.7947 C.3       1 <0>        -0.1541
      9 C9         -5.9442   -4.1548    3.0008 C.2       1 <0>         0.3523
     10 O1         -5.3385   -4.7136    3.8835 O.2       1 <0>        -0.4149
     11 C10        -7.4374   -3.9798    3.1053 C.3       1 <0>        -0.0585
     12 H1         -7.9554   -3.7678    2.1700 H         1 <0>         0.1608
     13 C11        -7.9940   -3.3548    4.3861 C.3       1 <0>         0.0014
     14 H2         -8.8821   -2.7286    4.3013 H         1 <0>         0.1684
     15 O2         -8.1304   -4.7481    4.0910 O.3       1 <0>        -0.2903
     16 C12        -7.0117   -2.9548    5.4567 C.2       1 <0>         0.5305
     17 O3         -7.0097   -3.5311    6.5238 O.2       1 <0>        -0.5081
     18 N1         -6.1353   -1.9567    5.2282 N.am      1 <0>        -0.8427
     19 H3          0.5956    2.2902   -0.4552 H         1 <0>         0.0610
     20 H4         -0.9731    2.1627   -1.2866 H         1 <0>         0.0646
     21 H5         -0.9097    2.2128    0.4915 H         1 <0>         0.0645
     22 H6          0.6661   -0.1200   -0.3897 H         1 <0>         0.1075
     23 H7         -2.3589    0.1042   -0.2882 H         1 <0>         0.1087
     24 H8         -1.7299   -2.2928   -1.1753 H         1 <0>         0.0756
     25 H9         -0.2398   -2.1671   -0.2100 H         1 <0>         0.0755
     26 H10        -1.7794   -2.0290    1.9204 H         1 <0>         0.1094
     27 H11        -3.2109   -3.6677   -0.1954 H         1 <0>         0.1118
     28 H12        -3.4829   -4.8813    2.1243 H         1 <0>         0.0798
     29 H13        -3.3822   -3.2739    2.8821 H         1 <0>         0.0726
     30 H14        -5.4261   -2.5725    1.6659 H         1 <0>         0.1055
     31 H15        -5.5268   -4.1799    0.9081 H         1 <0>         0.1086
     32 H16        -6.0875   -1.5445    4.3515 H         1 <0>         0.4017
     33 H17        -5.5525   -1.6505    5.9406 H         1 <0>         0.4115
@<TRIPOS>BOND
     1    1    2 1
     2    1   19 1
     3    1   20 1
     4    1   21 1
     5    2    3 2
     6    2   22 1
     7    3    4 1
     8    3   23 1
     9    4    5 1
    10    4   24 1
    11    4   25 1
    12    5    6 2
    13    5   26 1
    14    6    7 1
    15    6   27 1
    16    7    8 1
    17    7   28 1
    18    7   29 1
    19    8    9 1
    20    8   30 1
    21    8   31 1
    22    9   10 2
    23    9   11 1
    24   11   12 1
    25   11   15 1
    26   11   13 1
    27   13   14 1
    28   13   15 1
    29   13   16 1
    30   16   17 2
    31   16   18 am
    32   18   32 1
    33   18   33 1
