@<TRIPOS>MOLECULE
ZINC13743792
   47    48     0     0     0
SMALL
USER_CHARGES
3-(2-benzylphenoxy)-N-isopropyl-propan-1-amine
@<TRIPOS>ATOM
      1 C1         -1.8090    0.5811    4.0473 C.3       1 <0>        -0.1846
      2 C2         -0.6791    1.5479    3.6874 C.3       1 <0>         0.0276
      3 C3          0.3397    1.5891    4.8281 C.3       1 <0>        -0.1860
      4 C4         -0.7288    1.5792    1.2668 C.3       1 <0>        -0.0020
      5 C5         -0.0127    1.0858    0.0080 C.3       1 <0>        -0.1517
      6 C6         -0.7527    1.5927   -1.2315 C.3       1 <0>         0.0617
      7 O1         -0.0838    1.1318   -2.4072 O.3       1 <0>        -0.3074
      8 C7         -0.6166    1.4964   -3.6031 C.ar      1 <0>         0.1264
      9 C8         -1.7598    2.2816   -3.6442 C.ar      1 <0>        -0.2055
     10 C9         -2.2994    2.6507   -4.8609 C.ar      1 <0>        -0.0827
     11 C10        -1.7009    2.2387   -6.0375 C.ar      1 <0>        -0.1441
     12 C11        -0.5616    1.4567   -5.9993 C.ar      1 <0>        -0.0754
     13 C12        -0.0152    1.0888   -4.7848 C.ar      1 <0>        -0.1008
     14 C13         1.2301    0.2410   -4.7438 C.3       1 <0>        -0.0342
     15 C14         0.8458   -1.2098   -4.6082 C.ar      1 <0>        -0.0770
     16 C15         0.7062   -1.7735   -3.3538 C.ar      1 <0>        -0.1109
     17 C16         0.3490   -3.1031   -3.2293 C.ar      1 <0>        -0.1242
     18 C17         0.1413   -3.8716   -4.3594 C.ar      1 <0>        -0.1218
     19 C18         0.2865   -3.3094   -5.6139 C.ar      1 <0>        -0.1157
     20 C19         0.6385   -1.9785   -5.7383 C.ar      1 <0>        -0.1132
     21 H1         -1.3978   -0.4162    4.2034 H         1 <0>         0.0828
     22 H2         -2.2993    0.9190    4.9603 H         1 <0>         0.1070
     23 H3         -2.5348    0.5518    3.2346 H         1 <0>         0.0798
     24 H4         -1.0903    2.5453    3.5313 H         1 <0>         0.1386
     25 H5          1.1446    2.2779    4.5717 H         1 <0>         0.0824
     26 H6         -0.1506    1.9269    5.7411 H         1 <0>         0.1074
     27 H7          0.7508    0.5917    4.9842 H         1 <0>         0.0824
     28 H8         -0.7436    2.6691    1.2728 H         1 <0>         0.1347
     29 H9         -1.7514    1.2020    1.2746 H         1 <0>         0.1338
     30 H10         0.0021   -0.0041    0.0020 H         1 <0>         0.0989
     31 H11         1.0099    1.4631    0.0003 H         1 <0>         0.0997
     32 H12        -1.7753    1.2154   -1.2238 H         1 <0>         0.0713
     33 H13        -0.7675    2.6825   -1.2255 H         1 <0>         0.0716
     34 H14        -2.2272    2.6042   -2.7255 H         1 <0>         0.1243
     35 H15        -3.1892    3.2619   -4.8933 H         1 <0>         0.1276
     36 H16        -2.1241    2.5287   -6.9879 H         1 <0>         0.1291
     37 H17        -0.0958    1.1365   -6.9196 H         1 <0>         0.1326
     38 H18         1.7963    0.3824   -5.6645 H         1 <0>         0.0837
     39 H19         1.8425    0.5359   -3.8917 H         1 <0>         0.0832
     40 H20         0.8725   -1.1741   -2.4709 H         1 <0>         0.1186
     41 H21         0.2360   -3.5424   -2.2492 H         1 <0>         0.1173
     42 H22        -0.1341   -4.9114   -4.2622 H         1 <0>         0.1217
     43 H23         0.1245   -3.9100   -6.4968 H         1 <0>         0.1240
     44 H24         0.7519   -1.5392   -6.7184 H         1 <0>         0.1219
     45 N1         -0.0095    1.0865    2.4566 N.4       1 <0>        -0.5178
     46 H25         0.0043    0.0599    2.4431 H         1 <0>         0.4321
     47 H26         0.9536    1.4420    2.4415 H         1 <0>         0.4330
@<TRIPOS>BOND
     1    1    2 1
     2    1   21 1
     3    1   22 1
     4    1   23 1
     5    2    3 1
     6    2   24 1
     7    2   45 1
     8    3   25 1
     9    3   26 1
    10    3   27 1
    11    4    5 1
    12    4   28 1
    13    4   29 1
    14    4   45 1
    15    5    6 1
    16    5   30 1
    17    5   31 1
    18    6    7 1
    19    6   32 1
    20    6   33 1
    21    7    8 1
    22    8   13 ar
    23    8    9 ar
    24    9   10 ar
    25    9   34 1
    26   10   11 ar
    27   10   35 1
    28   11   12 ar
    29   11   36 1
    30   12   13 ar
    31   12   37 1
    32   13   14 1
    33   14   15 1
    34   14   38 1
    35   14   39 1
    36   15   20 ar
    37   15   16 ar
    38   16   17 ar
    39   16   40 1
    40   17   18 ar
    41   17   41 1
    42   18   19 ar
    43   18   42 1
    44   19   20 ar
    45   19   43 1
    46   20   44 1
    47   45   46 1
    48   45   47 1
@<TRIPOS>MOLECULE
ZINC13743789
   41    41     0     0     0
SMALL
USER_CHARGES
3-(2-allylphenoxy)-N-isopropyl-propan-1-amine
@<TRIPOS>ATOM
      1 C1         -4.5518   -6.5643    2.4785 C.3       1 <0>        -0.1845
      2 C2         -5.3125   -5.3606    3.0383 C.3       1 <0>         0.0275
      3 C3         -5.6743   -5.6216    4.5019 C.3       1 <0>        -0.1860
      4 C4         -4.5787   -3.5371    1.6245 C.3       1 <0>        -0.0018
      5 C5         -3.6863   -2.2955    1.5701 C.3       1 <0>        -0.1512
      6 C6         -3.8024   -1.6441    0.1905 C.3       1 <0>         0.0620
      7 O1         -2.9689   -0.4844    0.1396 O.3       1 <0>        -0.3090
      8 C7         -2.9562    0.2156   -1.0251 C.ar      1 <0>         0.1215
      9 C8         -3.7305   -0.2048   -2.0970 C.ar      1 <0>        -0.2054
     10 C9         -3.7162    0.5087   -3.2796 C.ar      1 <0>        -0.0837
     11 C10        -2.9310    1.6412   -3.3958 C.ar      1 <0>        -0.1437
     12 C11        -2.1627    2.0650   -2.3275 C.ar      1 <0>        -0.0759
     13 C12        -2.1695    1.3518   -1.1442 C.ar      1 <0>        -0.1022
     14 C13        -1.3278    1.8115    0.0182 C.3       1 <0>        -0.0467
     15 C14        -0.0126    1.0758    0.0080 C.2       1 <0>        -0.1509
     16 C15         1.1129    1.7462    0.0008 C.2       1 <0>        -0.1866
     17 H1         -5.1790   -7.4533    2.5448 H         1 <0>         0.1070
     18 H2         -4.2941   -6.3783    1.4359 H         1 <0>         0.0798
     19 H3         -3.6404   -6.7187    3.0561 H         1 <0>         0.0828
     20 H4         -6.2239   -5.2061    2.4608 H         1 <0>         0.1386
     21 H5         -6.2162   -4.7641    4.9007 H         1 <0>         0.0824
     22 H6         -6.3015   -6.5106    4.5681 H         1 <0>         0.1074
     23 H7         -4.7629   -5.7761    5.0794 H         1 <0>         0.0824
     24 H8         -5.6143   -3.2483    1.4450 H         1 <0>         0.1346
     25 H9         -4.2616   -4.2463    0.8600 H         1 <0>         0.1338
     26 H10        -2.6507   -2.5842    1.7495 H         1 <0>         0.0991
     27 H11        -4.0035   -1.5862    2.3346 H         1 <0>         0.0994
     28 H12        -4.8380   -1.3553    0.0110 H         1 <0>         0.0716
     29 H13        -3.4852   -2.3533   -0.5740 H         1 <0>         0.0714
     30 H14        -4.3441   -1.0889   -2.0067 H         1 <0>         0.1246
     31 H15        -4.3190    0.1821   -4.1141 H         1 <0>         0.1280
     32 H16        -2.9212    2.1977   -4.3213 H         1 <0>         0.1294
     33 H17        -1.5535    2.9520   -2.4194 H         1 <0>         0.1330
     34 H18        -1.8525    1.6048    0.9510 H         1 <0>         0.0823
     35 H19        -1.1455    2.8828   -0.0664 H         1 <0>         0.0784
     36 H20         0.0021   -0.0041    0.0020 H         1 <0>         0.1048
     37 H21         1.0982    2.8261    0.0067 H         1 <0>         0.0989
     38 H22         2.0554    1.2190   -0.0110 H         1 <0>         0.0994
     39 N1         -4.4611   -4.1588    2.9571 N.4       1 <0>        -0.5177
     40 H23        -3.4832   -4.4248    3.1216 H         1 <0>         0.4322
     41 H24        -4.7576   -3.4848    3.6726 H         1 <0>         0.4331
@<TRIPOS>BOND
     1    1    2 1
     2    1   17 1
     3    1   18 1
     4    1   19 1
     5    2    3 1
     6    2   20 1
     7    2   39 1
     8    3   21 1
     9    3   22 1
    10    3   23 1
    11    4    5 1
    12    4   24 1
    13    4   25 1
    14    4   39 1
    15    5    6 1
    16    5   26 1
    17    5   27 1
    18    6    7 1
    19    6   28 1
    20    6   29 1
    21    7    8 1
    22    8   13 ar
    23    8    9 ar
    24    9   10 ar
    25    9   30 1
    26   10   11 ar
    27   10   31 1
    28   11   12 ar
    29   11   32 1
    30   12   13 ar
    31   12   33 1
    32   13   14 1
    33   14   15 1
    34   14   34 1
    35   14   35 1
    36   15   16 2
    37   15   36 1
    38   16   37 1
    39   16   38 1
    40   39   40 1
    41   39   41 1
@<TRIPOS>MOLECULE
ZINC24613787
   46    45     0     0     0
SMALL
USER_CHARGES
[(1R,2E,6E)-1-hydroxy-3,7,11-trimethyl-dodeca-2,6,10-trienyl]phosphonic acid
@<TRIPOS>ATOM
      1 C1          2.9327   -1.9440   -7.8366 C.3       1 <0>        -0.1197
      2 C2          3.9804   -3.0245   -7.9127 C.2       1 <0>        -0.1392
      3 C3          4.6172   -3.3968   -6.8302 C.2       1 <0>        -0.1625
      4 C4          4.4084   -2.6493   -5.5384 C.3       1 <0>        -0.0913
      5 C5          3.7955   -3.5894   -4.4985 C.3       1 <0>        -0.0733
      6 C6          3.5867   -2.8419   -3.2067 C.2       1 <0>        -0.1327
      7 C7          2.4232   -2.3001   -2.9442 C.2       1 <0>        -0.1568
      8 C8          2.2379   -1.4832   -1.6915 C.3       1 <0>        -0.0992
      9 C9          1.6755   -0.1082   -2.0578 C.3       1 <0>        -0.0678
     10 C10         1.4902    0.7087   -0.8050 C.2       1 <0>        -0.1427
     11 C11         2.4264    1.5406   -0.4210 C.2       1 <0>        -0.1308
     12 C12         2.2948    2.2695    0.8914 C.3       1 <0>        -0.4567
     13 H1          1.2371    2.1626    1.1741 H         1 <0>         0.0688
     14 O1          2.3842    3.6776    0.6652 O.3       1 <0>        -0.5829
     15 P1          3.6338    1.7479    2.0131 P.3       1 <0>         2.2676
     16 O2          4.9428    2.0671    1.4007 O.2       1 <0>        -1.0748
     17 O3          3.4931    2.5266    3.4152 O.3       1 <0>        -1.1117
     18 O4          3.5330    0.1614    2.2679 O.3       1 <0>        -0.9330
     19 C13         0.2277    0.5686    0.0060 C.3       1 <0>        -0.1280
     20 C14         4.7163   -2.7176   -2.2170 C.3       1 <0>        -0.1350
     21 C15         4.2956   -3.6768   -9.2342 C.3       1 <0>        -0.1171
     22 H2          2.5119   -1.7701   -8.8380 H         1 <0>         0.0577
     23 H3          3.3901   -1.0153   -7.4647 H         1 <0>         0.0672
     24 H4          2.1313   -2.2579   -7.1516 H         1 <0>         0.0661
     25 H5          5.3044   -4.2551   -6.8641 H         1 <0>         0.1084
     26 H6          5.3755   -2.2760   -5.1704 H         1 <0>         0.0727
     27 H7          3.7296   -1.8011   -5.7111 H         1 <0>         0.0724
     28 H8          2.8285   -3.9627   -4.8665 H         1 <0>         0.0639
     29 H9          4.4743   -4.4376   -4.3257 H         1 <0>         0.0662
     30 H10         1.5815   -2.4415   -3.6382 H         1 <0>         0.1056
     31 H11         1.5372   -1.9984   -1.0181 H         1 <0>         0.0701
     32 H12         3.2077   -1.3602   -1.1871 H         1 <0>         0.0865
     33 H13         2.3763    0.4070   -2.7312 H         1 <0>         0.0658
     34 H14         0.7057   -0.2312   -2.5622 H         1 <0>         0.0637
     35 H15         3.3087    1.7071   -1.0565 H         1 <0>         0.1154
     36 H16         2.3093    4.3764    1.5114 H         1 <0>         0.4034
     37 H17         4.2618   -0.3378    2.9234 H         1 <0>         0.4442
     38 H18         0.2749    1.2393    0.8766 H         1 <0>         0.0712
     39 H19         0.1261   -0.4715    0.3494 H         1 <0>         0.0649
     40 H20        -0.6393    0.8357   -0.6161 H         1 <0>         0.0592
     41 H21         4.3764   -2.1427   -1.3429 H         1 <0>         0.0807
     42 H22         5.5630   -2.1989   -2.6903 H         1 <0>         0.0639
     43 H23         5.0340   -3.7204   -1.8954 H         1 <0>         0.0635
     44 H24         5.0796   -4.4350   -9.0911 H         1 <0>         0.0594
     45 H25         4.6480   -2.9144   -9.9446 H         1 <0>         0.0649
     46 H26         3.3892   -4.1571   -9.6314 H         1 <0>         0.0621
@<TRIPOS>BOND
     1    1    2 1
     2    1   22 1
     3    1   23 1
     4    1   24 1
     5    2    3 2
     6    2   21 1
     7    3    4 1
     8    3   25 1
     9    4    5 1
    10    4   26 1
    11    4   27 1
    12    5    6 1
    13    5   28 1
    14    5   29 1
    15    6    7 2
    16    6   20 1
    17    7    8 1
    18    7   30 1
    19    8    9 1
    20    8   31 1
    21    8   32 1
    22    9   10 1
    23    9   33 1
    24    9   34 1
    25   10   11 2
    26   10   19 1
    27   11   12 1
    28   11   35 1
    29   12   13 1
    30   12   14 1
    31   12   15 1
    32   14   36 1
    33   15   16 2
    34   15   17 1
    35   15   18 1
    36   18   37 1
    37   19   38 1
    38   19   39 1
    39   19   40 1
    40   20   41 1
    41   20   42 1
    42   20   43 1
    43   21   44 1
    44   21   45 1
    45   21   46 1
@<TRIPOS>MOLECULE
ZINC24789264
   46    45     0     0     0
SMALL
USER_CHARGES
[(1S,2E,6E)-1-hydroxy-3,7,11-trimethyl-dodeca-2,6,10-trienyl]phosphonic acid
@<TRIPOS>ATOM
      1 C1         -4.4551    4.0734    8.6477 C.3       1 <0>        -0.1210
      2 C2         -5.8732    4.1537    8.1442 C.2       1 <0>        -0.1368
      3 C3         -6.1116    4.1600    6.8561 C.2       1 <0>        -0.1645
      4 C4         -4.9659    4.1250    5.8777 C.3       1 <0>        -0.0919
      5 C5         -5.0353    2.8356    5.0570 C.3       1 <0>        -0.0718
      6 C6         -3.8897    2.8006    4.0786 C.2       1 <0>        -0.1355
      7 C7         -2.7821    2.1738    4.3890 C.2       1 <0>        -0.1536
      8 C8         -1.5965    2.2342    3.4606 C.3       1 <0>        -0.0965
      9 C9         -0.3890    2.7989    4.2115 C.3       1 <0>        -0.0695
     10 C10         0.7965    2.8593    3.2831 C.2       1 <0>        -0.1366
     11 C11         1.0709    3.9685    2.6424 C.2       1 <0>        -0.1125
     12 C12         2.3396    4.0792    1.8366 C.3       1 <0>        -0.4602
     13 H1          2.7726    3.0680    1.8429 H         1 <0>         0.0691
     14 O1          2.0136    4.2366    0.4542 O.3       1 <0>        -0.5906
     15 P1          3.2957    5.5239    2.4039 P.3       1 <0>         2.2623
     16 O2          2.4884    6.7513    2.2241 O.2       1 <0>        -1.0734
     17 O3          3.6629    5.3466    3.9614 O.3       1 <0>        -1.1036
     18 O4          4.6511    5.6422    1.5430 O.3       1 <0>        -0.9393
     19 C13         1.6664    1.6437    3.0918 C.3       1 <0>        -0.1248
     20 C14        -4.0183    3.4867    2.7430 C.3       1 <0>        -0.1325
     21 C15        -7.0171    4.2267    9.1226 C.3       1 <0>        -0.1172
     22 H2         -4.4557    4.0800    9.7477 H         1 <0>         0.0582
     23 H3         -3.8846    4.9374    8.2761 H         1 <0>         0.0692
     24 H4         -3.9900    3.1442    8.2868 H         1 <0>         0.0668
     25 H5         -7.1480    4.1908    6.4887 H         1 <0>         0.1071
     26 H6         -5.0322    4.9923    5.2043 H         1 <0>         0.0711
     27 H7         -4.0135    4.1592    6.4270 H         1 <0>         0.0749
     28 H8         -4.9690    1.9683    5.7304 H         1 <0>         0.0645
     29 H9         -5.9877    2.8013    4.5078 H         1 <0>         0.0644
     30 H10        -2.7174    1.6034    5.3273 H         1 <0>         0.1079
     31 H11        -1.3626    1.2223    3.0983 H         1 <0>         0.0656
     32 H12        -1.8332    2.8842    2.6053 H         1 <0>         0.0797
     33 H13        -0.6230    3.8108    4.5738 H         1 <0>         0.0720
     34 H14        -0.1523    2.1489    5.0667 H         1 <0>         0.0677
     35 H15         0.3753    4.8191    2.6926 H         1 <0>         0.1164
     36 H16         2.8156    4.3343   -0.2923 H         1 <0>         0.3894
     37 H17         5.3605    6.4586    1.7435 H         1 <0>         0.4469
     38 H18         2.4745    1.8789    2.3835 H         1 <0>         0.0686
     39 H19         1.0592    0.8172    2.6940 H         1 <0>         0.0578
     40 H20         2.1005    1.3477    4.0582 H         1 <0>         0.0644
     41 H21        -3.0881    3.3532    2.1712 H         1 <0>         0.0762
     42 H22        -4.2024    4.5600    2.8984 H         1 <0>         0.0640
     43 H23        -4.8582    3.0476    2.1846 H         1 <0>         0.0615
     44 H24        -7.9678    4.2793    8.5719 H         1 <0>         0.0585
     45 H25        -6.9065    5.1236    9.7497 H         1 <0>         0.0645
     46 H26        -7.0118    3.3305    9.7604 H         1 <0>         0.0631
@<TRIPOS>BOND
     1    1    2 1
     2    1   22 1
     3    1   23 1
     4    1   24 1
     5    2    3 2
     6    2   21 1
     7    3    4 1
     8    3   25 1
     9    4    5 1
    10    4   26 1
    11    4   27 1
    12    5    6 1
    13    5   28 1
    14    5   29 1
    15    6    7 2
    16    6   20 1
    17    7    8 1
    18    7   30 1
    19    8    9 1
    20    8   31 1
    21    8   32 1
    22    9   10 1
    23    9   33 1
    24    9   34 1
    25   10   11 2
    26   10   19 1
    27   11   12 1
    28   11   35 1
    29   12   13 1
    30   12   14 1
    31   12   15 1
    32   14   36 1
    33   15   16 2
    34   15   17 1
    35   15   18 1
    36   18   37 1
    37   19   38 1
    38   19   39 1
    39   19   40 1
    40   20   41 1
    41   20   42 1
    42   20   43 1
    43   21   44 1
    44   21   45 1
    45   21   46 1
@<TRIPOS>MOLECULE
ZINC03630928
   45    46     0     0     0
SMALL
USER_CHARGES
1-isopropylamino-3-(4-phenylphenoxy)-propan-2-ol
@<TRIPOS>ATOM
      1 C1          0.1711   -1.8683   -4.0345 C.3       1 <0>        -0.1849
      2 C2          0.6685   -0.4662   -3.6774 C.3       1 <0>         0.0273
      3 C3          0.3400    0.4977   -4.8193 C.3       1 <0>        -0.1861
      4 C4          0.7182   -0.4975   -1.2568 C.3       1 <0>        -0.0385
      5 C5          0.0021   -0.0041    0.0020 C.3       1 <0>         0.0856
      6 H1         -1.0205   -0.3814    0.0098 H         1 <0>         0.1353
      7 C6          0.7421   -0.5109    1.2415 C.3       1 <0>         0.0293
      8 O1          0.0101   -0.1492    2.4144 O.3       1 <0>        -0.3014
      9 C7          0.5345   -0.5268    3.6096 C.ar      1 <0>         0.1175
     10 C8          1.7271   -1.2363    3.6498 C.ar      1 <0>        -0.2037
     11 C9          2.2646   -1.6160    4.8618 C.ar      1 <0>        -0.0719
     12 C10         1.6035   -1.2965    6.0464 C.ar      1 <0>        -0.0668
     13 C11         0.4034   -0.5890    6.0026 C.ar      1 <0>        -0.0694
     14 C12        -0.1264   -0.2072    4.7880 C.ar      1 <0>        -0.1384
     15 C13         2.1757   -1.7092    7.3515 C.ar      1 <0>        -0.0506
     16 C14         1.5184   -1.3859    8.5370 C.ar      1 <0>        -0.1114
     17 C15         2.0531   -1.7761    9.7480 C.ar      1 <0>        -0.1145
     18 C16         3.2444   -2.4781    9.7870 C.ar      1 <0>        -0.1148
     19 C17         3.9035   -2.7976    8.6136 C.ar      1 <0>        -0.1158
     20 C18         3.3755   -2.4167    7.3967 C.ar      1 <0>        -0.1129
     21 O2         -0.0173    1.4248    0.0099 O.3       1 <0>        -0.5436
     22 H2          0.6614   -2.2062   -4.9475 H         1 <0>         0.1076
     23 H3          0.4051   -2.5550   -3.2209 H         1 <0>         0.0795
     24 H4         -0.9075   -1.8427   -4.1894 H         1 <0>         0.0837
     25 H5          1.7471   -0.4918   -3.5224 H         1 <0>         0.1380
     26 H6          0.6944    1.4966   -4.5649 H         1 <0>         0.0827
     27 H7          0.8303    0.1598   -5.7323 H         1 <0>         0.1078
     28 H8         -0.7386    0.5233   -4.9742 H         1 <0>         0.0832
     29 H9          1.7408   -0.1202   -1.2645 H         1 <0>         0.1383
     30 H10         0.7330   -1.5874   -1.2628 H         1 <0>         0.1448
     31 H11         0.8346   -1.5958    1.1912 H         1 <0>         0.0815
     32 H12         1.7350   -0.0630    1.2804 H         1 <0>         0.0767
     33 H13         2.2365   -1.4877    2.7313 H         1 <0>         0.1259
     34 H14         3.1945   -2.1644    4.8926 H         1 <0>         0.1316
     35 H15        -0.1109   -0.3398    6.9190 H         1 <0>         0.1378
     36 H16        -1.0564    0.3408    4.7534 H         1 <0>         0.1361
     37 H17         0.5904   -0.8342    8.5079 H         1 <0>         0.1255
     38 H18         1.5425   -1.5296   10.6672 H         1 <0>         0.1272
     39 H19         3.6615   -2.7776   10.7371 H         1 <0>         0.1259
     40 H20         4.8333   -3.3459    8.6498 H         1 <0>         0.1262
     41 H21         3.8914   -2.6660    6.4812 H         1 <0>         0.1231
     42 H22         0.8606    1.8301    0.0037 H         1 <0>         0.3900
     43 N1         -0.0011   -0.0048   -2.4466 N.4       1 <0>        -0.5131
     44 H23        -0.9643   -0.3603   -2.4315 H         1 <0>         0.4332
     45 H24        -0.0150    1.0217   -2.4331 H         1 <0>         0.4367
@<TRIPOS>BOND
     1    1    2 1
     2    1   22 1
     3    1   23 1
     4    1   24 1
     5    2    3 1
     6    2   25 1
     7    2   43 1
     8    3   26 1
     9    3   27 1
    10    3   28 1
    11    4    5 1
    12    4   29 1
    13    4   30 1
    14    4   43 1
    15    5    6 1
    16    5    7 1
    17    5   21 1
    18    7    8 1
    19    7   31 1
    20    7   32 1
    21    8    9 1
    22    9   14 ar
    23    9   10 ar
    24   10   11 ar
    25   10   33 1
    26   11   12 ar
    27   11   34 1
    28   12   13 ar
    29   12   15 1
    30   13   14 ar
    31   13   35 1
    32   14   36 1
    33   15   20 ar
    34   15   16 ar
    35   16   17 ar
    36   16   37 1
    37   17   18 ar
    38   17   38 1
    39   18   19 ar
    40   18   39 1
    41   19   20 ar
    42   19   40 1
    43   20   41 1
    44   21   42 1
    45   43   44 1
    46   43   45 1
@<TRIPOS>MOLECULE
ZINC03630929
   45    46     0     0     0
SMALL
USER_CHARGES
1-isopropylamino-3-(4-phenylphenoxy)-propan-2-ol
@<TRIPOS>ATOM
      1 C1          3.6124    2.8589    1.8821 C.3       1 <0>        -0.1844
      2 C2          3.5536    1.5205    1.1430 C.3       1 <0>         0.0270
      3 C3          4.4411    0.5019    1.8611 C.3       1 <0>        -0.1861
      4 C4          1.4227    1.6154   -0.0028 C.3       1 <0>        -0.0384
      5 C5         -0.0127    1.0858    0.0080 C.3       1 <0>         0.0858
      6 H1          0.0021   -0.0041    0.0020 H         1 <0>         0.1346
      7 C6         -0.7527    1.5927   -1.2315 C.3       1 <0>         0.0292
      8 O1         -2.0545    1.0054   -1.2824 O.3       1 <0>        -0.3014
      9 C7         -2.8475    1.3532   -2.3294 C.ar      1 <0>         0.1175
     10 C8         -2.3817    2.2467   -3.2845 C.ar      1 <0>        -0.2037
     11 C9         -3.1823    2.5971   -4.3514 C.ar      1 <0>        -0.0719
     12 C10        -4.4644    2.0622   -4.4641 C.ar      1 <0>        -0.0669
     13 C11        -4.9314    1.1698   -3.5006 C.ar      1 <0>        -0.0694
     14 C12        -4.1242    0.8187   -2.4390 C.ar      1 <0>        -0.1384
     15 C13        -5.3305    2.4423   -5.6070 C.ar      1 <0>        -0.0505
     16 C14        -6.6106    1.9041   -5.7237 C.ar      1 <0>        -0.1114
     17 C15        -7.4136    2.2646   -6.7867 C.ar      1 <0>        -0.1145
     18 C16        -6.9462    3.1506   -7.7407 C.ar      1 <0>        -0.1148
     19 C17        -5.6747    3.6842   -7.6324 C.ar      1 <0>        -0.1158
     20 C18        -4.8648    3.3344   -6.5710 C.ar      1 <0>        -0.1129
     21 O2         -0.6816    1.5467    1.1837 O.3       1 <0>        -0.5429
     22 H2          4.6406    3.2203    1.8980 H         1 <0>         0.1075
     23 H3          2.9801    3.5846    1.3705 H         1 <0>         0.0786
     24 H4          3.2583    2.7253    2.9043 H         1 <0>         0.0837
     25 H5          3.9076    1.6541    0.1208 H         1 <0>         0.1384
     26 H6          4.3992   -0.4515    1.3345 H         1 <0>         0.0828
     27 H7          5.4693    0.8633    1.8770 H         1 <0>         0.1079
     28 H8          4.0870    0.3683    2.8833 H         1 <0>         0.0833
     29 H9          1.9050    1.3387   -0.9404 H         1 <0>         0.1450
     30 H10         1.4101    2.7011    0.0927 H         1 <0>         0.1382
     31 H11        -0.8452    2.6775   -1.1811 H         1 <0>         0.0768
     32 H12        -0.1944    1.3168   -2.1261 H         1 <0>         0.0813
     33 H13        -1.3899    2.6645   -3.1941 H         1 <0>         0.1259
     34 H14        -2.8179    3.2891   -5.0962 H         1 <0>         0.1316
     35 H15        -5.9243    0.7535   -3.5855 H         1 <0>         0.1378
     36 H16        -4.4856    0.1276   -1.6920 H         1 <0>         0.1361
     37 H17        -6.9750    1.2091   -4.9817 H         1 <0>         0.1255
     38 H18        -8.4074    1.8513   -6.8760 H         1 <0>         0.1272
     39 H19        -7.5763    3.4264   -8.5733 H         1 <0>         0.1259
     40 H20        -5.3148    4.3755   -8.3801 H         1 <0>         0.1262
     41 H21        -3.8719    3.7511   -6.4878 H         1 <0>         0.1231
     42 H22        -0.7322    2.5097    1.2555 H         1 <0>         0.3903
     43 N1          2.1637    1.0266    1.1286 N.4       1 <0>        -0.5137
     44 H23         1.7024    1.2875    2.0080 H         1 <0>         0.4364
     45 H24         2.1685    0.0042    1.0349 H         1 <0>         0.4337
@<TRIPOS>BOND
     1    1    2 1
     2    1   22 1
     3    1   23 1
     4    1   24 1
     5    2    3 1
     6    2   25 1
     7    2   43 1
     8    3   26 1
     9    3   27 1
    10    3   28 1
    11    4    5 1
    12    4   29 1
    13    4   30 1
    14    4   43 1
    15    5    6 1
    16    5    7 1
    17    5   21 1
    18    7    8 1
    19    7   31 1
    20    7   32 1
    21    8    9 1
    22    9   14 ar
    23    9   10 ar
    24   10   11 ar
    25   10   33 1
    26   11   12 ar
    27   11   34 1
    28   12   13 ar
    29   12   15 1
    30   13   14 ar
    31   13   35 1
    32   14   36 1
    33   15   20 ar
    34   15   16 ar
    35   16   17 ar
    36   16   37 1
    37   17   18 ar
    38   17   38 1
    39   18   19 ar
    40   18   39 1
    41   19   20 ar
    42   19   40 1
    43   20   41 1
    44   21   42 1
    45   43   44 1
    46   43   45 1
@<TRIPOS>MOLECULE
ZINC00000023
   42    42     0     0     0
SMALL
USER_CHARGES

@<TRIPOS>ATOM
      1 C1         -0.0187    1.5258    0.0104 C.3       1 <0>        -0.1863
      2 C2          0.0021   -0.0041    0.0020 C.3       1 <0>         0.0237
      3 C3         -1.4333   -0.5336    0.0129 C.3       1 <0>        -0.1853
      4 N1          0.6897   -0.4778   -1.2066 N.4       1 <0>        -0.5024
      5 C4          2.1002   -0.0703   -1.1590 C.3       1 <0>        -0.0456
      6 C5          2.8163   -0.5637   -2.4178 C.3       1 <0>         0.0870
      7 H1          2.6781   -1.6404   -2.5160 H         1 <0>         0.1342
      8 C6          4.3098   -0.2489   -2.3115 C.3       1 <0>         0.0292
      9 O1          4.9962   -0.8116   -3.4314 O.3       1 <0>        -0.2974
     10 C7          6.3406   -0.6217   -3.4901 C.ar      1 <0>         0.1193
     11 C8          6.9868    0.0868   -2.4873 C.ar      1 <0>        -0.2066
     12 C9          8.3533    0.2781   -2.5491 C.ar      1 <0>        -0.0839
     13 C10         9.0774   -0.2360   -3.6092 C.ar      1 <0>        -0.1431
     14 C11         8.4358   -0.9419   -4.6098 C.ar      1 <0>        -0.0755
     15 C12         7.0699   -1.1408   -4.5497 C.ar      1 <0>        -0.0997
     16 C13         6.3721   -1.9158   -5.6376 C.3       1 <0>        -0.0468
     17 C14         5.8306   -0.9586   -6.6680 C.2       1 <0>        -0.1491
     18 C15         6.1568   -1.1001   -7.9288 C.2       1 <0>        -0.1878
     19 O2          2.2715    0.0930   -3.5641 O.3       1 <0>        -0.5421
     20 H2          1.0039    1.9031    0.0027 H         1 <0>         0.0795
     21 H3         -0.5459    1.8868   -0.8726 H         1 <0>         0.0834
     22 H4         -0.5289    1.8773    0.9072 H         1 <0>         0.1079
     23 H5          0.5293   -0.3651    0.8851 H         1 <0>         0.1397
     24 H6         -1.9605   -0.1726   -0.8702 H         1 <0>         0.0829
     25 H7         -1.4185   -1.6235    0.0069 H         1 <0>         0.0831
     26 H8         -1.9435   -0.1821    0.9097 H         1 <0>         0.1083
     27 H9          0.6317   -1.4840   -1.2540 H         1 <0>         0.4304
     28 H10         2.1628    1.0167   -1.1079 H         1 <0>         0.1406
     29 H11         2.5740   -0.5034   -0.2781 H         1 <0>         0.1458
     30 H12         4.4536    0.8316   -2.3027 H         1 <0>         0.0758
     31 H13         4.7064   -0.6757   -1.3903 H         1 <0>         0.0803
     32 H14         6.4217    0.4888   -1.6594 H         1 <0>         0.1233
     33 H15         8.8567    0.8298   -1.7690 H         1 <0>         0.1280
     34 H16        10.1458   -0.0853   -3.6557 H         1 <0>         0.1296
     35 H17         9.0035   -1.3420   -5.4369 H         1 <0>         0.1335
     36 H18         7.0803   -2.5962   -6.1105 H         1 <0>         0.0781
     37 H19         5.5508   -2.4882   -5.2064 H         1 <0>         0.0827
     38 H20         5.1735   -0.1561   -6.3669 H         1 <0>         0.1060
     39 H21         6.8138   -1.9026   -8.2298 H         1 <0>         0.0984
     40 H22         5.7687   -0.4141   -8.6672 H         1 <0>         0.0994
     41 H23         2.3595    1.0558   -3.5447 H         1 <0>         0.3897
     42 H24         0.2511   -0.0769   -2.0221 H         1 <0>         0.4317
@<TRIPOS>BOND
     1    1    2 1
     2    1   20 1
     3    1   21 1
     4    1   22 1
     5    2    3 1
     6    2    4 1
     7    2   23 1
     8    3   24 1
     9    3   25 1
    10    3   26 1
    11    4    5 1
    12    4   27 1
    13    4   42 1
    14    5    6 1
    15    5   28 1
    16    5   29 1
    17    6    7 1
    18    6    8 1
    19    6   19 1
    20    8    9 1
    21    8   30 1
    22    8   31 1
    23    9   10 1
    24   10   15 ar
    25   10   11 ar
    26   11   12 ar
    27   11   32 1
    28   12   13 ar
    29   12   33 1
    30   13   14 ar
    31   13   34 1
    32   14   15 ar
    33   14   35 1
    34   15   16 1
    35   16   17 1
    36   16   36 1
    37   16   37 1
    38   17   18 2
    39   17   38 1
    40   18   39 1
    41   18   40 1
    42   19   41 1
@<TRIPOS>MOLECULE
ZINC00086599
   42    42     0     0     0
SMALL
USER_CHARGES

@<TRIPOS>ATOM
      1 C1         -0.0187    1.5258    0.0104 C.3       1 <0>        -0.1867
      2 C2          0.0021   -0.0041    0.0020 C.3       1 <0>         0.0240
      3 C3         -1.4333   -0.5336    0.0129 C.3       1 <0>        -0.1852
      4 N1          0.6897   -0.4778   -1.2066 N.4       1 <0>        -0.5018
      5 C4          2.1002   -0.0703   -1.1590 C.3       1 <0>        -0.0456
      6 C5          2.8163   -0.5637   -2.4178 C.3       1 <0>         0.0868
      7 H1          2.3425   -0.1306   -3.2988 H         1 <0>         0.1350
      8 C6          4.2854   -0.1392   -2.3683 C.3       1 <0>         0.0293
      9 O1          4.9264   -0.4976   -3.5942 O.3       1 <0>        -0.2974
     10 C7          6.2443   -0.1886   -3.7147 C.ar      1 <0>         0.1193
     11 C8          6.9085    0.4413   -2.6719 C.ar      1 <0>        -0.2066
     12 C9          8.2481    0.7538   -2.7966 C.ar      1 <0>        -0.0839
     13 C10         8.9274    0.4394   -3.9595 C.ar      1 <0>        -0.1431
     14 C11         8.2677   -0.1877   -5.0000 C.ar      1 <0>        -0.0756
     15 C12         6.9292   -0.5076   -4.8780 C.ar      1 <0>        -0.0995
     16 C13         6.2123   -1.1969   -6.0102 C.3       1 <0>        -0.0478
     17 C14         5.5240   -0.1679   -6.8695 C.2       1 <0>        -0.1501
     18 C15         5.7643   -0.1225   -8.1565 C.2       1 <0>        -0.1869
     19 O2          2.7343   -1.9888   -2.4849 O.3       1 <0>        -0.5431
     20 H2          1.0039    1.9031    0.0027 H         1 <0>         0.0802
     21 H3         -0.5459    1.8868   -0.8726 H         1 <0>         0.0835
     22 H4         -0.5289    1.8773    0.9072 H         1 <0>         0.1080
     23 H5          0.5293   -0.3651    0.8851 H         1 <0>         0.1392
     24 H6         -1.9605   -0.1726   -0.8702 H         1 <0>         0.0829
     25 H7         -1.4185   -1.6235    0.0069 H         1 <0>         0.0831
     26 H8         -1.9435   -0.1821    0.9097 H         1 <0>         0.1083
     27 H9          0.6317   -1.4840   -1.2540 H         1 <0>         0.4333
     28 H10         2.1628    1.0167   -1.1079 H         1 <0>         0.1470
     29 H11         2.5740   -0.5034   -0.2781 H         1 <0>         0.1393
     30 H12         4.3473    0.9399   -2.2279 H         1 <0>         0.0804
     31 H13         4.7813   -0.6427   -1.5384 H         1 <0>         0.0758
     32 H14         6.3784    0.6873   -1.7637 H         1 <0>         0.1233
     33 H15         8.7655    1.2444   -1.9854 H         1 <0>         0.1280
     34 H16         9.9748    0.6846   -4.0550 H         1 <0>         0.1296
     35 H17         8.8003   -0.4319   -5.9073 H         1 <0>         0.1334
     36 H18         6.9324   -1.7505   -6.6128 H         1 <0>         0.0784
     37 H19         5.4714   -1.8862   -5.6051 H         1 <0>         0.0845
     38 H20         4.8325    0.5322   -6.4243 H         1 <0>         0.1043
     39 H21         6.4557   -0.8226   -8.6017 H         1 <0>         0.0990
     40 H22         5.2710    0.6149   -8.7723 H         1 <0>         0.0994
     41 H23         3.1369   -2.4418   -1.7314 H         1 <0>         0.3897
     42 H24         0.2511   -0.0769   -2.0221 H         1 <0>         0.4286
@<TRIPOS>BOND
     1    1    2 1
     2    1   20 1
     3    1   21 1
     4    1   22 1
     5    2    3 1
     6    2    4 1
     7    2   23 1
     8    3   24 1
     9    3   25 1
    10    3   26 1
    11    4    5 1
    12    4   27 1
    13    4   42 1
    14    5    6 1
    15    5   28 1
    16    5   29 1
    17    6    7 1
    18    6    8 1
    19    6   19 1
    20    8    9 1
    21    8   30 1
    22    8   31 1
    23    9   10 1
    24   10   15 ar
    25   10   11 ar
    26   11   12 ar
    27   11   32 1
    28   12   13 ar
    29   12   33 1
    30   13   14 ar
    31   13   34 1
    32   14   15 ar
    33   14   35 1
    34   15   16 1
    35   16   17 1
    36   16   36 1
    37   16   37 1
    38   17   18 2
    39   17   38 1
    40   18   39 1
    41   18   40 1
    42   19   41 1
@<TRIPOS>MOLECULE
ZINC03792165
   42    45     0     0     0
SMALL
USER_CHARGES
3-(4-phenylphenyl)quinuclidine
@<TRIPOS>ATOM
      1 C1         -0.0132    1.0758    0.0079 C.ar      1 <0>        -0.1074
      2 C2         -1.1854    1.7508   -0.2814 C.ar      1 <0>        -0.1172
      3 C3         -1.2110    3.1307   -0.2696 C.ar      1 <0>        -0.1066
      4 C4         -0.0503    3.8440    0.0232 C.ar      1 <0>        -0.0660
      5 C5          1.1290    3.1589    0.3082 C.ar      1 <0>        -0.1053
      6 C6          1.1419    1.7788    0.2992 C.ar      1 <0>        -0.1160
      7 C7         -0.0703    5.3277    0.0318 C.ar      1 <0>        -0.0207
      8 C8          1.0888    6.0409    0.3306 C.ar      1 <0>        -0.1032
      9 C9          1.0659    7.4209    0.3316 C.ar      1 <0>        -0.0975
     10 C10        -0.1078    8.0959    0.0483 C.ar      1 <0>        -0.1030
     11 C11        -1.2626    7.3929   -0.2438 C.ar      1 <0>        -0.1251
     12 C12        -1.2497    6.0128   -0.2532 C.ar      1 <0>        -0.1072
     13 C13        -0.1282    9.6027    0.0576 C.3       1 <0>        -0.0529
     14 H1          0.7161    9.9759    0.6373 H         1 <0>         0.1145
     15 C14        -1.4371   10.0943    0.6824 C.3       1 <0>        -0.0023
     16 C15        -2.5300   10.1039   -1.4796 C.3       1 <0>        -0.0048
     17 C16        -1.2473    9.6118   -2.1682 C.3       1 <0>        -0.1439
     18 C17        -0.0357   10.1268   -1.3810 C.3       1 <0>        -0.0909
     19 C18        -0.0926   11.6594   -1.3478 C.3       1 <0>        -0.1374
     20 C19        -1.4026   12.0941   -0.6846 C.3       1 <0>        -0.0010
     21 H2          0.0012   -0.0041    0.0019 H         1 <0>         0.1281
     22 H3         -2.0833    1.1970   -0.5125 H         1 <0>         0.1282
     23 H4         -2.1278    3.6567   -0.4912 H         1 <0>         0.1239
     24 H5          2.0314    3.7068    0.5361 H         1 <0>         0.1259
     25 H6          2.0554    1.2468    0.5203 H         1 <0>         0.1290
     26 H7          2.0045    5.5148    0.5569 H         1 <0>         0.1330
     27 H8          1.9649    7.9747    0.5586 H         1 <0>         0.1295
     28 H9         -2.1762    7.9249   -0.4645 H         1 <0>         0.1169
     29 H10        -2.1520    5.4649   -0.4814 H         1 <0>         0.1308
     30 H11        -2.0442    9.2379    0.9757 H         1 <0>         0.1325
     31 H12        -1.2155   10.7011    1.5603 H         1 <0>         0.1324
     32 H13        -3.1299    9.2478   -1.1708 H         1 <0>         0.1258
     33 H14        -3.1026   10.7180   -2.1746 H         1 <0>         0.1302
     34 H15        -1.2085    9.9927   -3.1887 H         1 <0>         0.1012
     35 H16        -1.2371    8.5220   -2.1825 H         1 <0>         0.1068
     36 H17         0.8944    9.7942   -1.8420 H         1 <0>         0.1175
     37 H18        -0.0517   12.0485   -2.3651 H         1 <0>         0.1021
     38 H19         0.7516   12.0438   -0.7755 H         1 <0>         0.1009
     39 H20        -1.9845   12.6919   -1.3861 H         1 <0>         0.1283
     40 H21        -1.1820   12.6872    0.2029 H         1 <0>         0.1284
     41 N1         -2.1971   10.9122   -0.2873 N.4       1 <0>        -0.3908
     42 H22        -3.0681   11.2291    0.1544 H         1 <0>         0.4334
@<TRIPOS>BOND
     1    1    6 ar
     2    1    2 ar
     3    1   21 1
     4    2    3 ar
     5    2   22 1
     6    3    4 ar
     7    3   23 1
     8    4    5 ar
     9    4    7 1
    10    5    6 ar
    11    5   24 1
    12    6   25 1
    13    7   12 ar
    14    7    8 ar
    15    8    9 ar
    16    8   26 1
    17    9   10 ar
    18    9   27 1
    19   10   11 ar
    20   10   13 1
    21   11   12 ar
    22   11   28 1
    23   12   29 1
    24   13   14 1
    25   13   18 1
    26   13   15 1
    27   15   30 1
    28   15   31 1
    29   15   41 1
    30   16   17 1
    31   16   32 1
    32   16   33 1
    33   16   41 1
    34   17   18 1
    35   17   34 1
    36   17   35 1
    37   18   19 1
    38   18   36 1
    39   19   20 1
    40   19   37 1
    41   19   38 1
    42   20   39 1
    43   20   40 1
    44   20   41 1
    45   41   42 1
@<TRIPOS>MOLECULE
ZINC13757089
   42    45     0     0     0
SMALL
USER_CHARGES
(3S)-3-(4-phenylphenyl)quinuclidine
@<TRIPOS>ATOM
      1 C1          1.1424    6.3386    0.0243 C.ar      1 <0>        -0.1074
      2 C2          2.3454    5.6602    0.1017 C.ar      1 <0>        -0.1172
      3 C3          2.3641    4.2802    0.0950 C.ar      1 <0>        -0.1066
      4 C4          1.1682    3.5703    0.0096 C.ar      1 <0>        -0.0660
      5 C5         -0.0403    4.2587   -0.0744 C.ar      1 <0>        -0.1053
      6 C6         -0.0477    5.6388   -0.0611 C.ar      1 <0>        -0.1160
      7 C7          1.1820    2.0864    0.0020 C.ar      1 <0>        -0.0208
      8 C8         -0.0139    1.3765   -0.0834 C.ar      1 <0>        -0.1032
      9 C9          0.0048   -0.0035   -0.0906 C.ar      1 <0>        -0.0975
     10 C10         1.2078   -0.6818   -0.0127 C.ar      1 <0>        -0.1030
     11 C11         2.3979    0.0179    0.0723 C.ar      1 <0>        -0.1251
     12 C12         2.3909    1.3980    0.0802 C.ar      1 <0>        -0.1072
     13 C13         1.2218   -2.1888   -0.0209 C.3       1 <0>        -0.0529
     14 H1          0.2886   -2.5604   -0.4441 H         1 <0>         0.1144
     15 C14         2.4008   -2.6864   -0.8620 C.3       1 <0>        -0.0023
     16 C15         3.8525   -2.6945    1.0773 C.3       1 <0>        -0.0046
     17 C16         2.7103   -2.1965    1.9767 C.3       1 <0>        -0.1441
     18 C17         1.3789   -2.7091    1.4134 C.3       1 <0>        -0.0909
     19 C18         1.4247   -4.2420    1.3753 C.3       1 <0>        -0.1374
     20 C19         2.5983   -4.6827    0.4960 C.3       1 <0>        -0.0011
     21 H2          1.1324    7.4185    0.0303 H         1 <0>         0.1281
     22 H3          3.2718    6.2115    0.1679 H         1 <0>         0.1282
     23 H4          3.3039    3.7516    0.1555 H         1 <0>         0.1239
     24 H5         -0.9698    3.7134   -0.1456 H         1 <0>         0.1259
     25 H6         -0.9841    6.1735   -0.1217 H         1 <0>         0.1289
     26 H7         -0.9534    1.9052   -0.1484 H         1 <0>         0.1330
     27 H8         -0.9215   -0.5548   -0.1568 H         1 <0>         0.1295
     28 H9          3.3343   -0.5167    0.1329 H         1 <0>         0.1169
     29 H10         3.3207    1.9434    0.1473 H         1 <0>         0.1308
     30 H11         2.0284   -3.2945   -1.6864 H         1 <0>         0.1324
     31 H12         2.9504   -1.8328   -1.2588 H         1 <0>         0.1325
     32 H13         4.5352   -3.3090    1.6642 H         1 <0>         0.1302
     33 H14         4.3922   -1.8413    0.6666 H         1 <0>         0.1258
     34 H15         2.7060   -1.1065    1.9895 H         1 <0>         0.1066
     35 H16         2.8471   -2.5730    2.9905 H         1 <0>         0.1013
     36 H17         0.5440   -2.3723    2.0279 H         1 <0>         0.1175
     37 H18         0.4925   -4.6230    0.9581 H         1 <0>         0.1007
     38 H19         1.5587   -4.6305    2.3849 H         1 <0>         0.1022
     39 H20         2.2248   -5.2769   -0.3380 H         1 <0>         0.1284
     40 H21         3.2915   -5.2811    1.0872 H         1 <0>         0.1284
     41 N1          3.3152   -3.5046   -0.0367 N.4       1 <0>        -0.3907
     42 H22         4.0953   -3.8256   -0.6220 H         1 <0>         0.4334
@<TRIPOS>BOND
     1    1    6 ar
     2    1    2 ar
     3    1   21 1
     4    2    3 ar
     5    2   22 1
     6    3    4 ar
     7    3   23 1
     8    4    5 ar
     9    4    7 1
    10    5    6 ar
    11    5   24 1
    12    6   25 1
    13    7   12 ar
    14    7    8 ar
    15    8    9 ar
    16    8   26 1
    17    9   10 ar
    18    9   27 1
    19   10   11 ar
    20   10   13 1
    21   11   12 ar
    22   11   28 1
    23   12   29 1
    24   13   14 1
    25   13   18 1
    26   13   15 1
    27   15   30 1
    28   15   31 1
    29   15   41 1
    30   16   17 1
    31   16   32 1
    32   16   33 1
    33   16   41 1
    34   17   18 1
    35   17   34 1
    36   17   35 1
    37   18   19 1
    38   18   36 1
    39   19   20 1
    40   19   37 1
    41   19   38 1
    42   20   39 1
    43   20   40 1
    44   20   41 1
    45   41   42 1
@<TRIPOS>MOLECULE
ZINC20477217
   47    50     0     0     0
SMALL
USER_CHARGES

@<TRIPOS>ATOM
      1 C1         -0.0167    1.3790    0.0096 C.ar      1 <0>        -0.1115
      2 C2          1.1687    2.0919    0.0021 C.ar      1 <0>        -0.1174
      3 C3          2.3774    1.4258   -0.0129 C.ar      1 <0>        -0.1085
      4 C4          2.4022    0.0327   -0.0206 C.ar      1 <0>        -0.0593
      5 C5          1.2051   -0.6804   -0.0130 C.ar      1 <0>        -0.1074
      6 C6          0.0021   -0.0041    0.0020 C.ar      1 <0>        -0.1166
      7 C7          3.6987   -0.6889   -0.0373 C.ar      1 <0>        -0.0271
      8 C8          4.8958    0.0241   -0.0395 C.ar      1 <0>        -0.1124
      9 C9          6.0988   -0.6522   -0.0546 C.ar      1 <0>        -0.1100
     10 C10         6.1176   -2.0352   -0.0680 C.ar      1 <0>        -0.1019
     11 C11         4.9322   -2.7481   -0.0663 C.ar      1 <0>        -0.0882
     12 C12         3.7235   -2.0821   -0.0450 C.ar      1 <0>        -0.1111
     13 C13         7.4343   -2.7680   -0.0849 C.3       1 <0>         0.0984
     14 N1          7.8725   -3.0194    1.2945 N.3       1 <0>        -0.6685
     15 C14         9.1559   -3.7339    1.3172 C.3       1 <0>         0.0773
     16 H1          9.2017   -4.4291    0.4789 H         1 <0>         0.1156
     17 C15        10.3046   -2.7282    1.2128 C.3       1 <0>        -0.0422
     18 N2         11.1622   -2.8216    2.3967 N.4       1 <0>        -0.3725
     19 C16        10.4051   -2.4987    3.6084 C.3       1 <0>        -0.0098
     20 C17         9.2596   -3.4966    3.7924 C.3       1 <0>        -0.1392
     21 C18         9.2902   -4.5079    2.6351 C.3       1 <0>        -0.0881
     22 C19        10.6533   -5.2124    2.6458 C.3       1 <0>        -0.1383
     23 C20        11.7555   -4.1569    2.4996 C.3       1 <0>        -0.0076
     24 H2         -0.9603    1.9042    0.0260 H         1 <0>         0.1265
     25 H3          1.1483    3.1717    0.0077 H         1 <0>         0.1269
     26 H4          3.3023    1.9834   -0.0191 H         1 <0>         0.1241
     27 H5          1.2186   -1.7603   -0.0193 H         1 <0>         0.1256
     28 H6         -0.9264   -0.5558    0.0082 H         1 <0>         0.1275
     29 H7          4.8823    1.1040   -0.0299 H         1 <0>         0.1274
     30 H8          7.0273   -0.1005   -0.0564 H         1 <0>         0.1176
     31 H9          4.9525   -3.8278   -0.0771 H         1 <0>         0.1263
     32 H10         2.7986   -2.6396   -0.0392 H         1 <0>         0.1292
     33 H11         7.3150   -3.7174   -0.6069 H         1 <0>         0.0905
     34 H12         8.1807   -2.1622   -0.5986 H         1 <0>         0.0438
     35 H13         7.9284   -2.1590    1.8186 H         1 <0>         0.3468
     36 H14        10.8939   -2.9435    0.3215 H         1 <0>         0.1325
     37 H15         9.8971   -1.7199    1.1400 H         1 <0>         0.1255
     38 H16        11.0681   -2.5458    4.4724 H         1 <0>         0.1310
     39 H17         9.9971   -1.4916    3.5223 H         1 <0>         0.1264
     40 H18         9.3817   -4.0223    4.7394 H         1 <0>         0.1004
     41 H19         8.3079   -2.9653    3.7873 H         1 <0>         0.1048
     42 H20         8.4767   -5.2265    2.7357 H         1 <0>         0.1247
     43 H21        10.7805   -5.7474    3.5869 H         1 <0>         0.1037
     44 H22        10.7082   -5.9144    1.8138 H         1 <0>         0.1006
     45 H23        12.3366   -4.3647    1.6011 H         1 <0>         0.1291
     46 H24        12.4115   -4.1952    3.3693 H         1 <0>         0.1308
     47 H25        11.9072   -2.1474    2.3053 H         1 <0>         0.4247
@<TRIPOS>BOND
     1    1    6 ar
     2    1    2 ar
     3    1   24 1
     4    2    3 ar
     5    2   25 1
     6    3    4 ar
     7    3   26 1
     8    4    5 ar
     9    4    7 1
    10    5    6 ar
    11    5   27 1
    12    6   28 1
    13    7   12 ar
    14    7    8 ar
    15    8    9 ar
    16    8   29 1
    17    9   10 ar
    18    9   30 1
    19   10   11 ar
    20   10   13 1
    21   11   12 ar
    22   11   31 1
    23   12   32 1
    24   13   14 1
    25   13   33 1
    26   13   34 1
    27   14   15 1
    28   14   35 1
    29   15   16 1
    30   15   21 1
    31   15   17 1
    32   17   18 1
    33   17   36 1
    34   17   37 1
    35   18   23 1
    36   18   19 1
    37   18   47 1
    38   19   20 1
    39   19   38 1
    40   19   39 1
    41   20   21 1
    42   20   40 1
    43   20   41 1
    44   21   22 1
    45   21   42 1
    46   22   23 1
    47   22   43 1
    48   22   44 1
    49   23   45 1
    50   23   46 1
@<TRIPOS>MOLECULE
ZINC20477219
   47    50     0     0     0
SMALL
USER_CHARGES

@<TRIPOS>ATOM
      1 C1         -0.0167    1.3790    0.0096 C.ar      1 <0>        -0.1116
      2 C2          1.1687    2.0919    0.0021 C.ar      1 <0>        -0.1168
      3 C3          2.3774    1.4258   -0.0129 C.ar      1 <0>        -0.1080
      4 C4          2.4022    0.0327   -0.0206 C.ar      1 <0>        -0.0592
      5 C5          1.2051   -0.6804   -0.0130 C.ar      1 <0>        -0.1081
      6 C6          0.0021   -0.0041    0.0020 C.ar      1 <0>        -0.1171
      7 C7          3.6987   -0.6889   -0.0373 C.ar      1 <0>        -0.0276
      8 C8          4.8958    0.0241   -0.0395 C.ar      1 <0>        -0.1105
      9 C9          6.0988   -0.6522   -0.0546 C.ar      1 <0>        -0.1066
     10 C10         6.1176   -2.0352   -0.0680 C.ar      1 <0>        -0.1003
     11 C11         4.9322   -2.7481   -0.0663 C.ar      1 <0>        -0.0923
     12 C12         3.7235   -2.0821   -0.0450 C.ar      1 <0>        -0.1128
     13 C13         7.4343   -2.7680   -0.0849 C.3       1 <0>         0.0979
     14 N1          7.8725   -3.0194    1.2945 N.3       1 <0>        -0.6785
     15 C14         9.1559   -3.7339    1.3172 C.3       1 <0>         0.0714
     16 H1          9.7747   -3.3997    0.4844 H         1 <0>         0.0833
     17 C15         8.9069   -5.2392    1.1994 C.3       1 <0>        -0.0023
     18 N2          9.4321   -5.9283    2.3805 N.4       1 <0>        -0.3732
     19 C16        10.8791   -5.7305    2.4920 C.3       1 <0>        -0.0083
     20 C17        11.1937   -4.2414    2.6526 C.3       1 <0>        -0.1368
     21 C18         9.8786   -3.4509    2.6408 C.3       1 <0>        -0.1037
     22 C19         9.0002   -3.9617    3.7905 C.3       1 <0>        -0.1312
     23 C20         8.7529   -5.4645    3.5926 C.3       1 <0>        -0.0020
     24 H2         -0.9603    1.9042    0.0260 H         1 <0>         0.1265
     25 H3          1.1483    3.1717    0.0077 H         1 <0>         0.1272
     26 H4          3.3023    1.9834   -0.0191 H         1 <0>         0.1249
     27 H5          1.2186   -1.7603   -0.0193 H         1 <0>         0.1247
     28 H6         -0.9264   -0.5558    0.0082 H         1 <0>         0.1271
     29 H7          4.8823    1.1040   -0.0299 H         1 <0>         0.1283
     30 H8          7.0273   -0.1005   -0.0564 H         1 <0>         0.1213
     31 H9          4.9525   -3.8278   -0.0771 H         1 <0>         0.1221
     32 H10         2.7986   -2.6396   -0.0392 H         1 <0>         0.1279
     33 H11         7.3150   -3.7174   -0.6069 H         1 <0>         0.0827
     34 H12         8.1807   -2.1622   -0.5986 H         1 <0>         0.0496
     35 H13         7.9284   -2.1590    1.8186 H         1 <0>         0.3592
     36 H14         7.8355   -5.4234    1.1197 H         1 <0>         0.1398
     37 H15         9.4050   -5.6195    0.3075 H         1 <0>         0.1274
     38 H16        11.2528   -6.2746    3.3594 H         1 <0>         0.1305
     39 H17        11.3661   -6.1080    1.5929 H         1 <0>         0.1292
     40 H18        11.7102   -4.0771    3.5983 H         1 <0>         0.1034
     41 H19        11.8241   -3.9102    1.8275 H         1 <0>         0.0992
     42 H20        10.0762   -2.3838    2.7425 H         1 <0>         0.1154
     43 H21         9.5081   -3.7944    4.7403 H         1 <0>         0.0971
     44 H22         8.0474   -3.4322    3.7853 H         1 <0>         0.1069
     45 H23         7.6824   -5.6471    3.4998 H         1 <0>         0.1311
     46 H24         9.1378   -6.0102    4.4541 H         1 <0>         0.1268
     47 H25         9.2595   -6.9170    2.2763 H         1 <0>         0.4263
@<TRIPOS>BOND
     1    1    6 ar
     2    1    2 ar
     3    1   24 1
     4    2    3 ar
     5    2   25 1
     6    3    4 ar
     7    3   26 1
     8    4    5 ar
     9    4    7 1
    10    5    6 ar
    11    5   27 1
    12    6   28 1
    13    7   12 ar
    14    7    8 ar
    15    8    9 ar
    16    8   29 1
    17    9   10 ar
    18    9   30 1
    19   10   11 ar
    20   10   13 1
    21   11   12 ar
    22   11   31 1
    23   12   32 1
    24   13   14 1
    25   13   33 1
    26   13   34 1
    27   14   15 1
    28   14   35 1
    29   15   16 1
    30   15   21 1
    31   15   17 1
    32   17   18 1
    33   17   36 1
    34   17   37 1
    35   18   23 1
    36   18   19 1
    37   18   47 1
    38   19   20 1
    39   19   38 1
    40   19   39 1
    41   20   21 1
    42   20   40 1
    43   20   41 1
    44   21   22 1
    45   21   42 1
    46   22   23 1
    47   22   43 1
    48   22   44 1
    49   23   45 1
    50   23   46 1
@<TRIPOS>MOLECULE
ZINC27730947
   42    43     0     0     0
SMALL
USER_CHARGES
(1S)-4-(3-phenoxyphenyl)-1-phosphono-butane-1-sulfonic acid
@<TRIPOS>ATOM
      1 C1          1.6500    1.2129    3.5828 C.ar      1 <0>        -0.1617
      2 C2          2.2525    1.5675    2.3899 C.ar      1 <0>        -0.0859
      3 C3          1.7028    1.1614    1.1895 C.ar      1 <0>        -0.1522
      4 C4          0.5449    0.3968    1.1815 C.ar      1 <0>         0.1298
      5 C5         -0.0610    0.0471    2.3798 C.ar      1 <0>        -0.1929
      6 C6          0.4958    0.4515    3.5776 C.ar      1 <0>        -0.0822
      7 O1          0.0021   -0.0041    0.0020 O.3       1 <0>        -0.2577
      8 C7         -1.1374   -0.7433    0.0427 C.ar      1 <0>         0.0718
      9 C8         -2.3747   -0.1151    0.0207 C.ar      1 <0>        -0.1389
     10 C9         -3.5313   -0.8688    0.0616 C.ar      1 <0>        -0.1046
     11 C10        -3.4573   -2.2483    0.1240 C.ar      1 <0>        -0.1041
     12 C11        -2.2260   -2.8766    0.1456 C.ar      1 <0>        -0.0455
     13 C12        -1.0660   -2.1276    0.1005 C.ar      1 <0>        -0.1243
     14 C13        -2.1491   -4.3802    0.2127 C.3       1 <0>        -0.0840
     15 C14        -2.1309   -4.9537   -1.2056 C.3       1 <0>        -0.1538
     16 C15        -2.0528   -6.4802   -1.1376 C.3       1 <0>        -0.0657
     17 C16        -2.0346   -7.0537   -2.5559 C.3       1 <0>        -1.2269
     18 H1         -1.1812   -6.5063   -2.9825 H         1 <0>         0.1067
     19 P1         -1.7923   -8.8588   -2.4784 P.3       1 <0>         2.2850
     20 O2         -2.8998   -9.4728   -1.7122 O.2       1 <0>        -1.0668
     21 O3         -1.7731   -9.4623   -3.9708 O.3       1 <0>        -1.1057
     22 O4         -0.3929   -9.1818   -1.7508 O.3       1 <0>        -0.9403
     23 S1         -3.6114   -6.6898   -3.3756 S.o2      1 <0>         2.6464
     24 O5         -3.9005   -5.3014   -3.2862 O.2       1 <0>        -1.0766
     25 O6         -3.6815   -7.3656   -4.6237 O.2       1 <0>        -1.0321
     26 O7         -4.6668   -7.3628   -2.5097 O.3       1 <0>        -1.0575
     27 H2          2.0814    1.5315    4.5202 H         1 <0>         0.1211
     28 H3          3.1536    2.1629    2.3966 H         1 <0>         0.1271
     29 H4          2.1736    1.4389    0.2580 H         1 <0>         0.1302
     30 H5         -0.9650   -0.5438    2.3762 H         1 <0>         0.1311
     31 H6          0.0268    0.1764    4.5108 H         1 <0>         0.1238
     32 H7         -2.4330    0.9622   -0.0281 H         1 <0>         0.1244
     33 H8         -4.4944   -0.3804    0.0445 H         1 <0>         0.1292
     34 H9         -4.3629   -2.8359    0.1556 H         1 <0>         0.1350
     35 H10        -0.1044   -2.6191    0.1132 H         1 <0>         0.1276
     36 H11        -1.2306   -4.6772    0.7401 H         1 <0>         0.0658
     37 H12        -3.0245   -4.7683    0.7540 H         1 <0>         0.0797
     38 H13        -3.0494   -4.6567   -1.7330 H         1 <0>         0.1238
     39 H14        -1.2555   -4.5655   -1.7469 H         1 <0>         0.0469
     40 H15        -1.1343   -6.7772   -0.6102 H         1 <0>         0.0455
     41 H16        -2.9282   -6.8684   -0.5963 H         1 <0>         0.0790
     42 H17        -0.0734  -10.2251   -1.6115 H         1 <0>         0.4293
@<TRIPOS>BOND
     1    1    6 ar
     2    1    2 ar
     3    1   27 1
     4    2    3 ar
     5    2   28 1
     6    3    4 ar
     7    3   29 1
     8    4    5 ar
     9    4    7 1
    10    5    6 ar
    11    5   30 1
    12    6   31 1
    13    7    8 1
    14    8   13 ar
    15    8    9 ar
    16    9   10 ar
    17    9   32 1
    18   10   11 ar
    19   10   33 1
    20   11   12 ar
    21   11   34 1
    22   12   13 ar
    23   12   14 1
    24   13   35 1
    25   14   15 1
    26   14   36 1
    27   14   37 1
    28   15   16 1
    29   15   38 1
    30   15   39 1
    31   16   17 1
    32   16   40 1
    33   16   41 1
    34   17   18 1
    35   17   19 1
    36   17   23 1
    37   19   20 2
    38   19   21 1
    39   19   22 1
    40   22   42 1
    41   23   24 2
    42   23   25 2
    43   23   26 1
@<TRIPOS>MOLECULE
ZINC12494625
   49    48     0     0     0
SMALL
USER_CHARGES

@<TRIPOS>ATOM
      1 C1         -0.0930    1.3680   -0.0355 C.3       1 <0>        -0.1175
      2 C2          0.1712   -0.1134    0.0459 C.2       1 <0>        -0.1451
      3 C3          0.3911   -0.6767    1.2079 C.2       1 <0>        -0.1572
      4 C4          0.2651    0.1321    2.4732 C.3       1 <0>        -0.0924
      5 C5         -0.7088   -0.5622    3.4274 C.3       1 <0>        -0.0696
      6 C6         -0.8349    0.2466    4.6927 C.2       1 <0>        -0.1402
      7 C7         -1.8114    1.1098    4.8238 C.2       1 <0>        -0.1483
      8 C8         -1.9933    1.8502    6.1237 C.3       1 <0>        -0.1000
      9 C9         -2.0250    3.3557    5.8530 C.3       1 <0>        -0.0601
     10 C10        -2.2069    4.0961    7.1530 C.2       1 <0>        -0.1694
     11 C11        -1.1623    4.5509    7.7995 C.2       1 <0>        -0.1155
     12 C12        -1.3442    5.2912    9.0994 C.3       1 <0>         0.1485
     13 O1         -0.3953    4.8147   10.0558 O.3       1 <0>        -0.7651
     14 P1         -0.3030    5.3851   11.5585 P.3       1 <0>         2.2799
     15 O2         -0.1236    6.9191   11.5170 O.2       1 <0>        -1.1176
     16 O3         -1.6010    5.0388   12.3215 O.3       1 <0>        -1.1292
     17 O4          0.9552    4.7178   12.3095 O.3       1 <0>        -1.0909
     18 P2          1.7637    5.0619   13.6585 P.3       1 <0>         2.2111
     19 O5          1.9355    6.6141   13.7829 O.2       1 <0>        -1.1924
     20 O6          0.9678    4.5238   14.8960 O.3       1 <0>        -1.2037
     21 O7          3.1746    4.3826   13.6095 O.3       1 <0>        -1.2038
     22 C13        -3.5906    4.3132    7.7092 C.3       1 <0>        -0.1166
     23 C14         0.1625    0.0623    5.8073 C.3       1 <0>        -0.1247
     24 C15         0.1823   -0.9468   -1.2097 C.3       1 <0>        -0.1137
     25 H1          0.7227    1.9094    0.4438 H         1 <0>         0.0667
     26 H2         -0.1631    1.6677   -1.0811 H         1 <0>         0.0557
     27 H3         -1.0297    1.5984    0.4721 H         1 <0>         0.0669
     28 H4          0.6628   -1.7207    1.2592 H         1 <0>         0.1055
     29 H5          1.2420    0.2166    2.9493 H         1 <0>         0.0727
     30 H6         -0.1092    1.1271    2.2327 H         1 <0>         0.0726
     31 H7         -1.6857   -0.6468    2.9514 H         1 <0>         0.0624
     32 H8         -0.3345   -1.5573    3.6680 H         1 <0>         0.0653
     33 H9         -2.4862    1.2910    4.0002 H         1 <0>         0.1024
     34 H10        -2.9311    1.5446    6.5877 H         1 <0>         0.0719
     35 H11        -1.1646    1.6187    6.7927 H         1 <0>         0.0807
     36 H12        -1.0872    3.6613    5.3891 H         1 <0>         0.0624
     37 H13        -2.8538    3.5873    5.1840 H         1 <0>         0.0589
     38 H14        -0.1707    4.3953    7.4009 H         1 <0>         0.1104
     39 H15        -1.1900    6.3576    8.9349 H         1 <0>         0.0573
     40 H16        -2.3537    5.1238    9.4747 H         1 <0>         0.0556
     41 H17        -3.8565    3.4786    8.3579 H         1 <0>         0.0651
     42 H18        -3.6103    5.2399    8.2828 H         1 <0>         0.0706
     43 H19        -4.3057    4.3782    6.8892 H         1 <0>         0.0507
     44 H20         0.9474    0.8136    5.7205 H         1 <0>         0.0690
     45 H21        -0.3413    0.1724    6.7676 H         1 <0>         0.0748
     46 H22         0.6028   -0.9326    5.7401 H         1 <0>         0.0551
     47 H23        -0.0186   -0.3094   -2.0707 H         1 <0>         0.0581
     48 H24         1.1592   -1.4165   -1.3253 H         1 <0>         0.0610
     49 H25        -0.5855   -1.7175   -1.1410 H         1 <0>         0.0618
@<TRIPOS>BOND
     1    1    2 1
     2    1   25 1
     3    1   26 1
     4    1   27 1
     5    2    3 2
     6    2   24 1
     7    3    4 1
     8    3   28 1
     9    4    5 1
    10    4   29 1
    11    4   30 1
    12    5    6 1
    13    5   31 1
    14    5   32 1
    15    6    7 2
    16    6   23 1
    17    7    8 1
    18    7   33 1
    19    8    9 1
    20    8   34 1
    21    8   35 1
    22    9   10 1
    23    9   36 1
    24    9   37 1
    25   10   11 2
    26   10   22 1
    27   11   12 1
    28   11   38 1
    29   12   13 1
    30   12   39 1
    31   12   40 1
    32   13   14 1
    33   14   15 2
    34   14   16 1
    35   14   17 1
    36   17   18 1
    37   18   19 2
    38   18   20 1
    39   18   21 1
    40   22   41 1
    41   22   42 1
    42   22   43 1
    43   23   44 1
    44   23   45 1
    45   23   46 1
    46   24   47 1
    47   24   48 1
    48   24   49 1
@<TRIPOS>MOLECULE
ZINC12494625
   50    49     0     0     0
SMALL
USER_CHARGES

@<TRIPOS>ATOM
      1 C1         -0.0930    1.3680   -0.0355 C.3       1 <0>        -0.1181
      2 C2          0.1712   -0.1134    0.0459 C.2       1 <0>        -0.1412
      3 C3          0.3911   -0.6767    1.2079 C.2       1 <0>        -0.1610
      4 C4          0.2651    0.1321    2.4732 C.3       1 <0>        -0.0908
      5 C5         -0.7088   -0.5622    3.4274 C.3       1 <0>        -0.0715
      6 C6         -0.8349    0.2466    4.6927 C.2       1 <0>        -0.1376
      7 C7         -1.8114    1.1098    4.8238 C.2       1 <0>        -0.1510
      8 C8         -1.9933    1.8502    6.1237 C.3       1 <0>        -0.0974
      9 C9         -2.0250    3.3557    5.8531 C.3       1 <0>        -0.0648
     10 C10        -2.2069    4.0961    7.1530 C.2       1 <0>        -0.1538
     11 C11        -1.1623    4.5509    7.7995 C.2       1 <0>        -0.1296
     12 C12        -1.3442    5.2912    9.0994 C.3       1 <0>         0.1517
     13 O1         -0.3953    4.8147   10.0558 O.3       1 <0>        -0.7690
     14 P1         -0.3029    5.3851   11.5586 P.3       1 <0>         2.2964
     15 O2         -0.1236    6.9191   11.5171 O.2       1 <0>        -1.1093
     16 O3         -1.6010    5.0388   12.3215 O.3       1 <0>        -1.1070
     17 O4          0.9552    4.7177   12.3095 O.3       1 <0>        -1.0895
     18 P2          1.7637    5.0619   13.6585 P.3       1 <0>         2.2771
     19 O5          0.7629    5.3758   14.7929 O.2       1 <0>        -1.1133
     20 O6          2.6709    3.7994   14.0774 O.3       1 <0>        -0.9094
     21 O7          2.6699    6.2896   13.4169 O.3       1 <0>        -1.1136
     22 C13        -3.5906    4.3132    7.7092 C.3       1 <0>        -0.1208
     23 C14         0.1625    0.0622    5.8073 C.3       1 <0>        -0.1235
     24 C15         0.1823   -0.9468   -1.2097 C.3       1 <0>        -0.1151
     25 H1          0.7227    1.9094    0.4438 H         1 <0>         0.0661
     26 H2         -0.1631    1.6678   -1.0811 H         1 <0>         0.0570
     27 H3         -1.0296    1.5985    0.4721 H         1 <0>         0.0670
     28 H4          0.6628   -1.7207    1.2592 H         1 <0>         0.1061
     29 H5          1.2420    0.2167    2.9492 H         1 <0>         0.0710
     30 H6         -0.1093    1.1271    2.2327 H         1 <0>         0.0723
     31 H7         -1.6857   -0.6468    2.9514 H         1 <0>         0.0640
     32 H8         -0.3345   -1.5573    3.6680 H         1 <0>         0.0660
     33 H9         -2.4862    1.2910    4.0002 H         1 <0>         0.1043
     34 H10        -2.9311    1.5446    6.5877 H         1 <0>         0.0721
     35 H11        -1.1646    1.6186    6.7927 H         1 <0>         0.0784
     36 H12        -1.0872    3.6613    5.3891 H         1 <0>         0.0641
     37 H13        -2.8538    3.5873    5.1840 H         1 <0>         0.0627
     38 H14        -0.1707    4.3952    7.4009 H         1 <0>         0.1113
     39 H15        -1.1899    6.3576    8.9349 H         1 <0>         0.0615
     40 H16        -2.3537    5.1238    9.4747 H         1 <0>         0.0605
     41 H17        -3.8565    3.4786    8.3579 H         1 <0>         0.0669
     42 H18        -3.6103    5.2399    8.2828 H         1 <0>         0.0706
     43 H19        -4.3057    4.3782    6.8892 H         1 <0>         0.0554
     44 H20         0.9474    0.8136    5.7205 H         1 <0>         0.0676
     45 H21        -0.3413    0.1724    6.7676 H         1 <0>         0.0724
     46 H22         0.6028   -0.9326    5.7401 H         1 <0>         0.0561
     47 H23         1.1922   -0.9740   -1.6188 H         1 <0>         0.0628
     48 H24        -0.1424   -1.9607   -0.9756 H         1 <0>         0.0598
     49 H25        -0.4950   -0.5086   -1.9427 H         1 <0>         0.0610
     50 H26         3.1870    3.9362   14.8836 H         1 <0>         0.4049
@<TRIPOS>BOND
     1    1    2 1
     2    1   25 1
     3    1   26 1
     4    1   27 1
     5    2    3 2
     6    2   24 1
     7    3    4 1
     8    3   28 1
     9    4    5 1
    10    4   29 1
    11    4   30 1
    12    5    6 1
    13    5   31 1
    14    5   32 1
    15    6    7 2
    16    6   23 1
    17    7    8 1
    18    7   33 1
    19    8    9 1
    20    8   34 1
    21    8   35 1
    22    9   10 1
    23    9   36 1
    24    9   37 1
    25   10   11 2
    26   10   22 1
    27   11   12 1
    28   11   38 1
    29   12   13 1
    30   12   39 1
    31   12   40 1
    32   13   14 1
    33   14   15 2
    34   14   16 1
    35   14   17 1
    36   17   18 1
    37   18   19 2
    38   18   20 1
    39   18   21 1
    40   20   50 1
    41   22   41 1
    42   22   42 1
    43   22   43 1
    44   23   44 1
    45   23   45 1
    46   23   46 1
    47   24   47 1
    48   24   48 1
    49   24   49 1
@<TRIPOS>MOLECULE
ZINC06920374
   66    65     0     0     0
SMALL
USER_CHARGES

@<TRIPOS>ATOM
      1 C1          2.3916   -0.5323   -1.2062 C.3       1 <0>        -0.1532
      2 C2          2.1669   -2.0457   -1.2006 C.3       1 <0>        -0.1262
      3 C3          0.6716   -2.3388   -1.0628 C.3       1 <0>        -0.1211
      4 C4          0.4470   -3.8522   -1.0572 C.3       1 <0>        -0.1210
      5 C5         -1.0484   -4.1454   -0.9194 C.3       1 <0>        -0.1205
      6 C6         -1.2730   -5.6588   -0.9137 C.3       1 <0>        -0.1204
      7 C7         -2.7683   -5.9519   -0.7759 C.3       1 <0>        -0.1202
      8 C8         -2.9930   -7.4653   -0.7703 C.3       1 <0>        -0.1202
      9 C9         -4.4883   -7.7584   -0.6325 C.3       1 <0>        -0.1199
     10 C10        -4.7129   -9.2718   -0.6269 C.3       1 <0>        -0.1199
     11 C11        -6.2082   -9.5649   -0.4891 C.3       1 <0>        -0.1194
     12 C12        -6.4329  -11.0784   -0.4835 C.3       1 <0>        -0.1190
     13 C13        -7.9282  -11.3715   -0.3457 C.3       1 <0>        -0.1172
     14 C14        -8.1529  -12.8849   -0.3400 C.3       1 <0>        -0.1143
     15 C15        -9.6482  -13.1780   -0.2023 C.3       1 <0>        -0.1093
     16 C16        -9.8728  -14.6914   -0.1966 C.3       1 <0>        -0.0802
     17 C17       -11.3505  -14.9867    0.0682 C.3       1 <0>        -0.1631
     18 H1        -11.6600  -14.4938    0.9898 H         1 <0>         0.0236
     19 C18       -12.1794  -14.4712   -1.0800 C.2       1 <0>         0.5230
     20 O1        -11.7115  -14.4435   -2.2055 O.co2     1 <0>        -0.6703
     21 O2        -13.3179  -14.0818   -0.8833 O.co2     1 <0>        -0.7416
     22 C19       -11.5522  -16.4971    0.2050 C.3       1 <0>         0.1013
     23 C20       -13.0463  -16.8031    0.3279 C.3       1 <0>        -0.1791
     24 C21       -13.2430  -18.2879    0.4938 C.2       1 <0>         0.4904
     25 O3        -12.2777  -19.0325    0.5121 O.co2     1 <0>        -0.6574
     26 O4        -14.3675  -18.7447    0.6098 O.co2     1 <0>        -0.7569
     27 C22       -10.9959  -17.1905   -1.0119 C.2       1 <0>         0.5434
     28 O5        -10.1005  -18.0092   -0.8910 O.co2     1 <0>        -0.7089
     29 O6        -11.4412  -16.9328   -2.1172 O.co2     1 <0>        -0.6818
     30 O7        -10.8728  -16.9647    1.3720 O.3       1 <0>        -0.5256
     31 H2          3.4569   -0.3235   -1.3044 H         1 <0>         0.0514
     32 H3          1.8555   -0.0885   -2.0451 H         1 <0>         0.0529
     33 H4          2.0224   -0.1067   -0.2731 H         1 <0>         0.0528
     34 H5          2.5361   -2.4713   -2.1337 H         1 <0>         0.0601
     35 H6          2.7030   -2.4895   -0.3616 H         1 <0>         0.0599
     36 H7          0.3024   -1.9132   -0.1297 H         1 <0>         0.0601
     37 H8          0.1356   -1.8951   -1.9017 H         1 <0>         0.0603
     38 H9          0.8162   -4.2778   -1.9902 H         1 <0>         0.0603
     39 H10         0.9830   -4.2960   -0.2182 H         1 <0>         0.0601
     40 H11        -1.4176   -3.7198    0.0137 H         1 <0>         0.0598
     41 H12        -1.5844   -3.7016   -1.7583 H         1 <0>         0.0602
     42 H13        -0.9038   -6.0844   -1.8468 H         1 <0>         0.0602
     43 H14        -0.7369   -6.1025   -0.0748 H         1 <0>         0.0598
     44 H15        -3.1375   -5.5263    0.1572 H         1 <0>         0.0595
     45 H16        -3.3044   -5.5081   -1.6149 H         1 <0>         0.0600
     46 H17        -2.6238   -7.8909   -1.7034 H         1 <0>         0.0600
     47 H18        -2.4569   -7.9091    0.0686 H         1 <0>         0.0594
     48 H19        -4.8575   -7.3328    0.3006 H         1 <0>         0.0588
     49 H20        -5.0243   -7.3147   -1.4715 H         1 <0>         0.0598
     50 H21        -4.3437   -9.6974   -1.5600 H         1 <0>         0.0599
     51 H22        -4.1769   -9.7156    0.2120 H         1 <0>         0.0586
     52 H23        -6.5775   -9.1394    0.4440 H         1 <0>         0.0575
     53 H24        -6.7443   -9.1212   -1.3280 H         1 <0>         0.0595
     54 H25        -6.0637  -11.5039   -1.4166 H         1 <0>         0.0596
     55 H26        -5.8968  -11.5221    0.3555 H         1 <0>         0.0570
     56 H27        -8.2974  -10.9459    0.5874 H         1 <0>         0.0539
     57 H28        -8.4643  -10.9277   -1.1846 H         1 <0>         0.0590
     58 H29        -7.7837  -13.3105   -1.2731 H         1 <0>         0.0586
     59 H30        -7.6168  -13.3287    0.4989 H         1 <0>         0.0509
     60 H31       -10.0174  -12.7524    0.7308 H         1 <0>         0.0375
     61 H32       -10.1842  -12.7342   -1.0412 H         1 <0>         0.0644
     62 H33        -9.5874  -15.1047   -1.1640 H         1 <0>         0.0699
     63 H34        -9.2655  -15.1460    0.5861 H         1 <0>         0.0352
     64 H35       -13.4535  -16.2835    1.1952 H         1 <0>         0.0237
     65 H36       -13.5612  -16.4667   -0.5720 H         1 <0>         0.0728
     66 H37       -11.1802  -16.5601    2.1947 H         1 <0>         0.3115
@<TRIPOS>BOND
     1    1    2 1
     2    1   31 1
     3    1   32 1
     4    1   33 1
     5    2    3 1
     6    2   34 1
     7    2   35 1
     8    3    4 1
     9    3   36 1
    10    3   37 1
    11    4    5 1
    12    4   38 1
    13    4   39 1
    14    5    6 1
    15    5   40 1
    16    5   41 1
    17    6    7 1
    18    6   42 1
    19    6   43 1
    20    7    8 1
    21    7   44 1
    22    7   45 1
    23    8    9 1
    24    8   46 1
    25    8   47 1
    26    9   10 1
    27    9   48 1
    28    9   49 1
    29   10   11 1
    30   10   50 1
    31   10   51 1
    32   11   12 1
    33   11   52 1
    34   11   53 1
    35   12   13 1
    36   12   54 1
    37   12   55 1
    38   13   14 1
    39   13   56 1
    40   13   57 1
    41   14   15 1
    42   14   58 1
    43   14   59 1
    44   15   16 1
    45   15   60 1
    46   15   61 1
    47   16   17 1
    48   16   62 1
    49   16   63 1
    50   17   18 1
    51   17   19 1
    52   17   22 1
    53   19   20 2
    54   19   21 1
    55   22   23 1
    56   22   27 1
    57   22   30 1
    58   23   24 1
    59   23   64 1
    60   23   65 1
    61   24   25 2
    62   24   26 1
    63   27   28 2
    64   27   29 1
    65   30   66 1
@<TRIPOS>MOLECULE
ZINC14242978
   66    65     0     0     0
SMALL
USER_CHARGES

@<TRIPOS>ATOM
      1 C1         -0.0187    1.5258    0.0104 C.3       1 <0>        -0.1532
      2 C2          0.0021   -0.0041    0.0020 C.3       1 <0>        -0.1262
      3 C3         -1.4333   -0.5336    0.0129 C.3       1 <0>        -0.1211
      4 C4         -1.4126   -2.0635    0.0045 C.3       1 <0>        -0.1210
      5 C5         -2.8479   -2.5931    0.0153 C.3       1 <0>        -0.1205
      6 C6         -2.8272   -4.1229    0.0069 C.3       1 <0>        -0.1204
      7 C7         -4.2626   -4.6525    0.0178 C.3       1 <0>        -0.1202
      8 C8         -4.2418   -6.1823    0.0094 C.3       1 <0>        -0.1202
      9 C9         -5.6772   -6.7119    0.0202 C.3       1 <0>        -0.1200
     10 C10        -5.6565   -8.2417    0.0118 C.3       1 <0>        -0.1198
     11 C11        -7.0918   -8.7713    0.0227 C.3       1 <0>        -0.1195
     12 C12        -7.0711  -10.3012    0.0143 C.3       1 <0>        -0.1188
     13 C13        -8.5065  -10.8307    0.0251 C.3       1 <0>        -0.1176
     14 C14        -8.4857  -12.3606    0.0167 C.3       1 <0>        -0.1152
     15 C15        -9.9211  -12.8902    0.0276 C.3       1 <0>        -0.1113
     16 C16        -9.9004  -14.4200    0.0191 C.3       1 <0>        -0.0794
     17 C17       -11.3358  -14.9496    0.0300 C.3       1 <0>        -0.1646
     18 H1        -11.8886  -14.5178   -0.8043 H         1 <0>         0.0523
     19 C18       -12.0025  -14.5670    1.3262 C.2       1 <0>         0.5123
     20 O1        -13.0055  -13.8739    1.3145 O.co2     1 <0>        -0.7250
     21 O2        -11.5390  -14.9507    2.3866 O.co2     1 <0>        -0.7080
     22 C19       -11.3181  -16.4736   -0.1041 C.3       1 <0>         0.1163
     23 C20       -12.7535  -17.0032   -0.0932 C.3       1 <0>        -0.1857
     24 C21       -12.7361  -18.5043   -0.2253 C.2       1 <0>         0.4937
     25 O3        -11.6741  -19.0957   -0.3194 O.co2     1 <0>        -0.6543
     26 O4        -13.7841  -19.1273   -0.2380 O.co2     1 <0>        -0.7564
     27 C22       -10.6513  -16.8561   -1.4003 C.2       1 <0>         0.5442
     28 O5         -9.6484  -17.5493   -1.3885 O.co2     1 <0>        -0.6864
     29 O6        -11.1148  -16.4725   -2.4607 O.co2     1 <0>        -0.7375
     30 O7        -10.5933  -17.0396    0.9897 O.3       1 <0>        -0.5322
     31 H2          1.0039    1.9031    0.0027 H         1 <0>         0.0514
     32 H3         -0.5459    1.8868   -0.8726 H         1 <0>         0.0528
     33 H4         -0.5289    1.8773    0.9072 H         1 <0>         0.0528
     34 H5          0.5123   -0.3556   -0.8948 H         1 <0>         0.0600
     35 H6          0.5293   -0.3651    0.8851 H         1 <0>         0.0600
     36 H7         -1.9435   -0.1821    0.9097 H         1 <0>         0.0603
     37 H8         -1.9605   -0.1726   -0.8702 H         1 <0>         0.0602
     38 H9         -0.9024   -2.4150   -0.8923 H         1 <0>         0.0602
     39 H10        -0.8854   -2.4246    0.8875 H         1 <0>         0.0602
     40 H11        -3.3581   -2.2415    0.9121 H         1 <0>         0.0600
     41 H12        -3.3751   -2.2320   -0.8677 H         1 <0>         0.0600
     42 H13        -2.3170   -4.4744   -0.8899 H         1 <0>         0.0600
     43 H14        -2.3000   -4.4840    0.8900 H         1 <0>         0.0600
     44 H15        -4.7728   -4.3010    0.9146 H         1 <0>         0.0598
     45 H16        -4.7898   -4.2914   -0.8653 H         1 <0>         0.0597
     46 H17        -3.7316   -6.5338   -0.8874 H         1 <0>         0.0597
     47 H18        -3.7146   -6.5434    0.8924 H         1 <0>         0.0597
     48 H19        -6.1874   -6.3604    0.9170 H         1 <0>         0.0594
     49 H20        -6.2044   -6.3508   -0.8628 H         1 <0>         0.0593
     50 H21        -5.1463   -8.5933   -0.8850 H         1 <0>         0.0592
     51 H22        -5.1293   -8.6028    0.8949 H         1 <0>         0.0592
     52 H23        -7.6020   -8.4198    0.9195 H         1 <0>         0.0589
     53 H24        -7.6190   -8.4102   -0.8604 H         1 <0>         0.0585
     54 H25        -6.5609  -10.6527   -0.8825 H         1 <0>         0.0583
     55 H26        -6.5439  -10.6622    0.8973 H         1 <0>         0.0584
     56 H27        -9.0167  -10.4792    0.9219 H         1 <0>         0.0576
     57 H28        -9.0337  -10.4697   -0.8579 H         1 <0>         0.0565
     58 H29        -7.9755  -12.7121   -0.8801 H         1 <0>         0.0552
     59 H30        -7.9586  -12.7217    0.8998 H         1 <0>         0.0559
     60 H31       -10.4313  -12.5386    0.9244 H         1 <0>         0.0567
     61 H32       -10.4483  -12.5291   -0.8555 H         1 <0>         0.0474
     62 H33        -9.3902  -14.7715   -0.8776 H         1 <0>         0.0484
     63 H34        -9.3732  -14.7811    0.9022 H         1 <0>         0.0580
     64 H35       -13.2358  -16.7265    0.8443 H         1 <0>         0.0391
     65 H36       -13.3064  -16.5714   -0.9275 H         1 <0>         0.0482
     66 H37       -10.9668  -16.8338    1.8576 H         1 <0>         0.3444
@<TRIPOS>BOND
     1    1    2 1
     2    1   31 1
     3    1   32 1
     4    1   33 1
     5    2    3 1
     6    2   34 1
     7    2   35 1
     8    3    4 1
     9    3   36 1
    10    3   37 1
    11    4    5 1
    12    4   38 1
    13    4   39 1
    14    5    6 1
    15    5   40 1
    16    5   41 1
    17    6    7 1
    18    6   42 1
    19    6   43 1
    20    7    8 1
    21    7   44 1
    22    7   45 1
    23    8    9 1
    24    8   46 1
    25    8   47 1
    26    9   10 1
    27    9   48 1
    28    9   49 1
    29   10   11 1
    30   10   50 1
    31   10   51 1
    32   11   12 1
    33   11   52 1
    34   11   53 1
    35   12   13 1
    36   12   54 1
    37   12   55 1
    38   13   14 1
    39   13   56 1
    40   13   57 1
    41   14   15 1
    42   14   58 1
    43   14   59 1
    44   15   16 1
    45   15   60 1
    46   15   61 1
    47   16   17 1
    48   16   62 1
    49   16   63 1
    50   17   18 1
    51   17   19 1
    52   17   22 1
    53   19   20 2
    54   19   21 1
    55   22   23 1
    56   22   27 1
    57   22   30 1
    58   23   24 1
    59   23   64 1
    60   23   65 1
    61   24   25 2
    62   24   26 1
    63   27   28 2
    64   27   29 1
    65   30   66 1
@<TRIPOS>MOLECULE
ZINC14242979
   66    65     0     0     0
SMALL
USER_CHARGES

@<TRIPOS>ATOM
      1 C1          3.3157   -2.4944   -5.2140 C.3       1 <0>        -0.1531
      2 C2          2.9799   -3.9410   -4.8456 C.3       1 <0>        -0.1262
      3 C3          1.4762   -4.0669   -4.5927 C.3       1 <0>        -0.1211
      4 C4          1.1404   -5.5134   -4.2243 C.3       1 <0>        -0.1210
      5 C5         -0.3633   -5.6394   -3.9714 C.3       1 <0>        -0.1205
      6 C6         -0.6992   -7.0859   -3.6030 C.3       1 <0>        -0.1204
      7 C7         -2.2029   -7.2118   -3.3502 C.3       1 <0>        -0.1202
      8 C8         -2.5387   -8.6583   -2.9818 C.3       1 <0>        -0.1202
      9 C9         -4.0424   -8.7843   -2.7289 C.3       1 <0>        -0.1200
     10 C10        -4.3782  -10.2308   -2.3605 C.3       1 <0>        -0.1198
     11 C11        -5.8819  -10.3567   -2.1077 C.3       1 <0>        -0.1195
     12 C12        -6.2177  -11.8032   -1.7392 C.3       1 <0>        -0.1188
     13 C13        -7.7214  -11.9292   -1.4864 C.3       1 <0>        -0.1178
     14 C14        -8.0572  -13.3757   -1.1180 C.3       1 <0>        -0.1150
     15 C15        -9.5609  -13.5016   -0.8651 C.3       1 <0>        -0.1112
     16 C16        -9.8967  -14.9481   -0.4967 C.3       1 <0>        -0.0785
     17 C17       -11.3763  -15.0482   -0.1200 C.3       1 <0>        -0.1664
     18 H1        -11.5945  -14.3463    0.6849 H         1 <0>         0.0541
     19 C18       -12.2239  -14.7149   -1.3206 C.2       1 <0>         0.5130
     20 O1        -12.0676  -15.3239   -2.3652 O.co2     1 <0>        -0.7118
     21 O2        -13.0660  -13.8363   -1.2474 O.co2     1 <0>        -0.7242
     22 C19       -11.6889  -16.4716    0.3457 C.3       1 <0>         0.1172
     23 C20       -13.1945  -16.6133    0.5776 C.3       1 <0>        -0.1855
     24 C21       -13.5075  -18.0266    0.9967 C.2       1 <0>         0.4936
     25 O3        -12.6095  -18.8447    1.1004 O.co2     1 <0>        -0.6561
     26 O4        -14.6587  -18.3519    1.2321 O.co2     1 <0>        -0.7559
     27 C22       -10.9541  -16.7523    1.6312 C.2       1 <0>         0.5423
     28 O5        -11.1662  -16.0666    2.6168 O.co2     1 <0>        -0.7359
     29 O6        -10.1476  -17.6650    1.6856 O.co2     1 <0>        -0.6866
     30 O7        -11.2713  -17.4026   -0.6547 O.3       1 <0>        -0.5294
     31 H2          4.3869   -2.4047   -5.3941 H         1 <0>         0.0514
     32 H3          2.7709   -2.2132   -6.1152 H         1 <0>         0.0528
     33 H4          3.0284   -1.8349   -4.3951 H         1 <0>         0.0528
     34 H5          3.2671   -4.6005   -5.6644 H         1 <0>         0.0600
     35 H6          3.5247   -4.2222   -3.9443 H         1 <0>         0.0600
     36 H7          1.1889   -3.4073   -3.7738 H         1 <0>         0.0603
     37 H8          0.9314   -3.7857   -5.4939 H         1 <0>         0.0602
     38 H9          1.4276   -6.1730   -5.0432 H         1 <0>         0.0602
     39 H10         1.6851   -5.7946   -3.3231 H         1 <0>         0.0602
     40 H11        -0.6506   -4.9798   -3.1526 H         1 <0>         0.0600
     41 H12        -0.9081   -5.3581   -4.8727 H         1 <0>         0.0600
     42 H13        -0.4119   -7.7454   -4.4219 H         1 <0>         0.0599
     43 H14        -0.1544   -7.3671   -2.7018 H         1 <0>         0.0600
     44 H15        -2.4901   -6.5522   -2.5313 H         1 <0>         0.0598
     45 H16        -2.7476   -6.9306   -4.2514 H         1 <0>         0.0597
     46 H17        -2.2514   -9.3179   -3.8006 H         1 <0>         0.0596
     47 H18        -1.9939   -8.9396   -2.0805 H         1 <0>         0.0597
     48 H19        -4.3296   -8.1247   -1.9100 H         1 <0>         0.0594
     49 H20        -4.5872   -8.5030   -3.6302 H         1 <0>         0.0594
     50 H21        -4.0909  -10.8903   -3.1794 H         1 <0>         0.0592
     51 H22        -3.8334  -10.5120   -1.4593 H         1 <0>         0.0593
     52 H23        -6.1691   -9.6972   -1.2888 H         1 <0>         0.0586
     53 H24        -6.4267  -10.0755   -3.0089 H         1 <0>         0.0588
     54 H25        -5.9305  -12.4628   -2.5581 H         1 <0>         0.0583
     55 H26        -5.6729  -12.0845   -0.8380 H         1 <0>         0.0584
     56 H27        -8.0086  -11.2696   -0.6675 H         1 <0>         0.0566
     57 H28        -8.2662  -11.6479   -2.3876 H         1 <0>         0.0575
     58 H29        -7.7700  -14.0352   -1.9368 H         1 <0>         0.0557
     59 H30        -7.5124  -13.6569   -0.2167 H         1 <0>         0.0554
     60 H31        -9.8482  -12.8421   -0.0462 H         1 <0>         0.0477
     61 H32       -10.1057  -13.2204   -1.7664 H         1 <0>         0.0560
     62 H33        -9.6942  -15.5966   -1.3491 H         1 <0>         0.0594
     63 H34        -9.2845  -15.2590    0.3498 H         1 <0>         0.0458
     64 H35       -13.5079  -15.9240    1.3616 H         1 <0>         0.0490
     65 H36       -13.7275  -16.3813   -0.3445 H         1 <0>         0.0419
     66 H37       -11.7044  -17.2809   -1.5106 H         1 <0>         0.3417
@<TRIPOS>BOND
     1    1    2 1
     2    1   31 1
     3    1   32 1
     4    1   33 1
     5    2    3 1
     6    2   34 1
     7    2   35 1
     8    3    4 1
     9    3   36 1
    10    3   37 1
    11    4    5 1
    12    4   38 1
    13    4   39 1
    14    5    6 1
    15    5   40 1
    16    5   41 1
    17    6    7 1
    18    6   42 1
    19    6   43 1
    20    7    8 1
    21    7   44 1
    22    7   45 1
    23    8    9 1
    24    8   46 1
    25    8   47 1
    26    9   10 1
    27    9   48 1
    28    9   49 1
    29   10   11 1
    30   10   50 1
    31   10   51 1
    32   11   12 1
    33   11   52 1
    34   11   53 1
    35   12   13 1
    36   12   54 1
    37   12   55 1
    38   13   14 1
    39   13   56 1
    40   13   57 1
    41   14   15 1
    42   14   58 1
    43   14   59 1
    44   15   16 1
    45   15   60 1
    46   15   61 1
    47   16   17 1
    48   16   62 1
    49   16   63 1
    50   17   18 1
    51   17   19 1
    52   17   22 1
    53   19   20 2
    54   19   21 1
    55   22   23 1
    56   22   27 1
    57   22   30 1
    58   23   24 1
    59   23   64 1
    60   23   65 1
    61   24   25 2
    62   24   26 1
    63   27   28 2
    64   27   29 1
    65   30   66 1
@<TRIPOS>MOLECULE
ZINC14242980
   66    65     0     0     0
SMALL
USER_CHARGES

@<TRIPOS>ATOM
      1 C1         -0.0187    1.5258    0.0104 C.3       1 <0>        -0.1532
      2 C2          0.0021   -0.0041    0.0020 C.3       1 <0>        -0.1262
      3 C3         -1.4333   -0.5336    0.0129 C.3       1 <0>        -0.1211
      4 C4         -1.4126   -2.0635    0.0045 C.3       1 <0>        -0.1210
      5 C5         -2.8479   -2.5931    0.0153 C.3       1 <0>        -0.1204
      6 C6         -2.8272   -4.1229    0.0069 C.3       1 <0>        -0.1204
      7 C7         -4.2626   -4.6525    0.0178 C.3       1 <0>        -0.1202
      8 C8         -4.2418   -6.1823    0.0094 C.3       1 <0>        -0.1202
      9 C9         -5.6772   -6.7119    0.0202 C.3       1 <0>        -0.1198
     10 C10        -5.6565   -8.2417    0.0118 C.3       1 <0>        -0.1199
     11 C11        -7.0918   -8.7713    0.0227 C.3       1 <0>        -0.1192
     12 C12        -7.0711  -10.3012    0.0143 C.3       1 <0>        -0.1190
     13 C13        -8.5065  -10.8307    0.0251 C.3       1 <0>        -0.1160
     14 C14        -8.4857  -12.3606    0.0167 C.3       1 <0>        -0.1131
     15 C15        -9.9211  -12.8902    0.0276 C.3       1 <0>        -0.1174
     16 C16        -9.9004  -14.4200    0.0191 C.3       1 <0>        -0.0722
     17 C17       -11.3358  -14.9496    0.0300 C.3       1 <0>        -0.1665
     18 C18       -12.0025  -14.5670    1.3262 C.2       1 <0>         0.5352
     19 O1        -11.3868  -13.9299    2.1637 O.co2     1 <0>        -0.7094
     20 O2        -13.1578  -14.8947    1.5374 O.co2     1 <0>        -0.7047
     21 C19       -11.3181  -16.4736   -0.1041 C.3       1 <0>         0.1029
     22 C20       -12.7535  -17.0032   -0.0932 C.3       1 <0>        -0.2000
     23 C21       -12.7331  -18.5100   -0.1015 C.2       1 <0>         0.4898
     24 O3        -11.6691  -19.1052   -0.1149 O.co2     1 <0>        -0.6606
     25 O4        -13.7805  -19.1339   -0.0948 O.co2     1 <0>        -0.7600
     26 C22       -10.5537  -17.0705    1.0494 C.2       1 <0>         0.5511
     27 O5        -10.9294  -16.8798    2.1935 O.co2     1 <0>        -0.6965
     28 O6         -9.5596  -17.7441    0.8384 O.co2     1 <0>        -0.7052
     29 O7        -10.6858  -16.8363   -1.3332 O.3       1 <0>        -0.5317
     30 H1          1.0039    1.9031    0.0027 H         1 <0>         0.0514
     31 H2         -0.5459    1.8868   -0.8726 H         1 <0>         0.0527
     32 H3         -0.5289    1.8773    0.9072 H         1 <0>         0.0529
     33 H4          0.5123   -0.3556   -0.8948 H         1 <0>         0.0599
     34 H5          0.5293   -0.3651    0.8851 H         1 <0>         0.0601
     35 H6         -1.9435   -0.1821    0.9097 H         1 <0>         0.0604
     36 H7         -1.9605   -0.1726   -0.8702 H         1 <0>         0.0601
     37 H8         -0.9024   -2.4150   -0.8923 H         1 <0>         0.0600
     38 H9         -0.8854   -2.4246    0.8875 H         1 <0>         0.0604
     39 H10        -3.3581   -2.2415    0.9121 H         1 <0>         0.0602
     40 H11        -3.3751   -2.2320   -0.8677 H         1 <0>         0.0598
     41 H12        -2.3170   -4.4744   -0.8899 H         1 <0>         0.0597
     42 H13        -2.3000   -4.4840    0.8900 H         1 <0>         0.0602
     43 H14        -4.7728   -4.3010    0.9146 H         1 <0>         0.0600
     44 H15        -4.7898   -4.2914   -0.8653 H         1 <0>         0.0594
     45 H16        -3.7316   -6.5338   -0.8874 H         1 <0>         0.0592
     46 H17        -3.7146   -6.5434    0.8924 H         1 <0>         0.0601
     47 H18        -6.1874   -6.3604    0.9170 H         1 <0>         0.0599
     48 H19        -6.2044   -6.3508   -0.8628 H         1 <0>         0.0586
     49 H20        -5.1463   -8.5933   -0.8850 H         1 <0>         0.0583
     50 H21        -5.1293   -8.6028    0.8949 H         1 <0>         0.0599
     51 H22        -7.6020   -8.4198    0.9195 H         1 <0>         0.0597
     52 H23        -7.6190   -8.4102   -0.8604 H         1 <0>         0.0570
     53 H24        -6.5609  -10.6527   -0.8825 H         1 <0>         0.0559
     54 H25        -6.5439  -10.6622    0.8973 H         1 <0>         0.0596
     55 H26        -9.0167  -10.4792    0.9219 H         1 <0>         0.0601
     56 H27        -9.0337  -10.4697   -0.8579 H         1 <0>         0.0520
     57 H28        -7.9755  -12.7121   -0.8801 H         1 <0>         0.0458
     58 H29        -7.9586  -12.7217    0.8998 H         1 <0>         0.0577
     59 H30       -10.4313  -12.5386    0.9244 H         1 <0>         0.0900
     60 H31       -10.4483  -12.5291   -0.8555 H         1 <0>         0.0288
     61 H32        -9.3902  -14.7715   -0.8776 H         1 <0>         0.0310
     62 H33        -9.3732  -14.7811    0.9022 H         1 <0>         0.0605
     63 H34       -11.8886  -14.5178   -0.8043 H         1 <0>         0.0255
     64 H35       -13.2637  -16.6516    0.8036 H         1 <0>         0.1130
     65 H36       -13.2807  -16.6421   -0.9763 H         1 <0>         0.0141
     66 H37       -11.1253  -16.4857   -2.1200 H         1 <0>         0.3112
@<TRIPOS>BOND
     1    1    2 1
     2    1   30 1
     3    1   31 1
     4    1   32 1
     5    2    3 1
     6    2   33 1
     7    2   34 1
     8    3    4 1
     9    3   35 1
    10    3   36 1
    11    4    5 1
    12    4   37 1
    13    4   38 1
    14    5    6 1
    15    5   39 1
    16    5   40 1
    17    6    7 1
    18    6   41 1
    19    6   42 1
    20    7    8 1
    21    7   43 1
    22    7   44 1
    23    8    9 1
    24    8   45 1
    25    8   46 1
    26    9   10 1
    27    9   47 1
    28    9   48 1
    29   10   11 1
    30   10   49 1
    31   10   50 1
    32   11   12 1
    33   11   51 1
    34   11   52 1
    35   12   13 1
    36   12   53 1
    37   12   54 1
    38   13   14 1
    39   13   55 1
    40   13   56 1
    41   14   15 1
    42   14   57 1
    43   14   58 1
    44   15   16 1
    45   15   59 1
    46   15   60 1
    47   16   17 1
    48   16   61 1
    49   16   62 1
    50   17   18 1
    51   17   21 1
    52   17   63 1
    53   18   19 2
    54   18   20 1
    55   21   22 1
    56   21   26 1
    57   21   29 1
    58   22   23 1
    59   22   64 1
    60   22   65 1
    61   23   24 2
    62   23   25 1
    63   26   27 2
    64   26   28 1
    65   29   66 1
@<TRIPOS>MOLECULE
ZINC02380305
   45    47     0     0     0
SMALL
USER_CHARGES
N-[(4-benzyloxyphenyl)methyl]-1-phenyl-methanamine
@<TRIPOS>ATOM
      1 C1         -2.0920    2.5211    5.8780 C.ar      1 <0>        -0.0831
      2 C2         -2.4339    1.3029    5.3212 C.ar      1 <0>        -0.1150
      3 C3         -1.7624    0.8403    4.2050 C.ar      1 <0>        -0.0935
      4 C4         -0.7486    1.5956    3.6459 C.ar      1 <0>        -0.1679
      5 C5         -0.4029    2.8112    4.2060 C.ar      1 <0>        -0.0931
      6 C6         -1.0780    3.2762    5.3191 C.ar      1 <0>        -0.1148
      7 C7         -0.0162    1.0911    2.4293 C.3       1 <0>         0.0495
      8 C8         -0.0127    1.0858    0.0080 C.3       1 <0>         0.0555
      9 C9         -0.7416    1.5850   -1.2129 C.ar      1 <0>        -0.2132
     10 C10        -1.7499    0.8235   -1.7742 C.ar      1 <0>        -0.0465
     11 C11        -2.4234    1.2815   -2.8900 C.ar      1 <0>        -0.2118
     12 C12        -2.0796    2.5014   -3.4541 C.ar      1 <0>         0.1729
     13 C13        -1.0636    3.2610   -2.8924 C.ar      1 <0>        -0.1514
     14 C14        -0.3970    2.8012   -1.7732 C.ar      1 <0>        -0.0494
     15 O1         -2.7372    2.9518   -4.5548 O.3       1 <0>        -0.2993
     16 C15        -3.7718    2.1172   -5.0792 C.3       1 <0>         0.1021
     17 C16        -4.3830    2.7752   -6.2894 C.ar      1 <0>        -0.1097
     18 C17        -5.4658    3.6219   -6.1430 C.ar      1 <0>        -0.0944
     19 C18        -6.0231    4.2295   -7.2526 C.ar      1 <0>        -0.1213
     20 C19        -5.5044    3.9819   -8.5098 C.ar      1 <0>        -0.1017
     21 C20        -4.4251    3.1307   -8.6568 C.ar      1 <0>        -0.1208
     22 C21        -3.8643    2.5275   -7.5466 C.ar      1 <0>        -0.0937
     23 H1         -2.6169    2.8827    6.7498 H         1 <0>         0.1357
     24 H2         -3.2259    0.7127    5.7581 H         1 <0>         0.1358
     25 H3         -2.0295   -0.1115    3.7700 H         1 <0>         0.1311
     26 H4          0.3921    3.3993    3.7718 H         1 <0>         0.1315
     27 H5         -0.8106    4.2278    5.7543 H         1 <0>         0.1360
     28 H6         -0.0015    0.0013    2.4401 H         1 <0>         0.1365
     29 H7          1.0064    1.4684    2.4383 H         1 <0>         0.1369
     30 H8          0.0021   -0.0041    0.0020 H         1 <0>         0.1352
     31 H9          1.0099    1.4631    0.0003 H         1 <0>         0.1360
     32 H10        -2.0142   -0.1282   -1.3373 H         1 <0>         0.1338
     33 H11        -3.2139    0.6883   -3.3255 H         1 <0>         0.1402
     34 H12        -0.7944    4.2112   -3.3294 H         1 <0>         0.1436
     35 H13         0.3937    3.3923   -1.3353 H         1 <0>         0.1380
     36 H14        -3.3514    1.1526   -5.3634 H         1 <0>         0.0773
     37 H15        -4.5394    1.9694   -4.3195 H         1 <0>         0.0765
     38 H16        -5.8738    3.8119   -5.1612 H         1 <0>         0.1236
     39 H17        -6.8660    4.8948   -7.1376 H         1 <0>         0.1288
     40 H18        -5.9421    4.4537   -9.3770 H         1 <0>         0.1288
     41 H19        -4.0199    2.9372   -9.6390 H         1 <0>         0.1291
     42 H20        -3.0211    1.8625   -7.6615 H         1 <0>         0.1244
     43 N1         -0.7091    1.5657    1.2166 N.4       1 <0>        -0.5182
     44 H21        -0.7230    2.5923    1.2143 H         1 <0>         0.4302
     45 H22        -1.6724    1.2103    1.2160 H         1 <0>         0.4297
@<TRIPOS>BOND
     1    1    6 ar
     2    1    2 ar
     3    1   23 1
     4    2    3 ar
     5    2   24 1
     6    3    4 ar
     7    3   25 1
     8    4    5 ar
     9    4    7 1
    10    5    6 ar
    11    5   26 1
    12    6   27 1
    13    7   28 1
    14    7   29 1
    15    7   43 1
    16    8    9 1
    17    8   30 1
    18    8   31 1
    19    8   43 1
    20    9   14 ar
    21    9   10 ar
    22   10   11 ar
    23   10   32 1
    24   11   12 ar
    25   11   33 1
    26   12   13 ar
    27   12   15 1
    28   13   14 ar
    29   13   34 1
    30   14   35 1
    31   15   16 1
    32   16   17 1
    33   16   36 1
    34   16   37 1
    35   17   22 ar
    36   17   18 ar
    37   18   19 ar
    38   18   38 1
    39   19   20 ar
    40   19   39 1
    41   20   21 ar
    42   20   40 1
    43   21   22 ar
    44   21   41 1
    45   22   42 1
    46   43   44 1
    47   43   45 1
@<TRIPOS>MOLECULE
ZINC20444137
   40    39     0     0     0
SMALL
USER_CHARGES

@<TRIPOS>ATOM
      1 C1         -0.0187    1.5258    0.0104 C.3       1 <0>        -0.1542
      2 C2          0.0021   -0.0041    0.0020 C.3       1 <0>        -0.1235
      3 C3         -1.4333   -0.5336    0.0129 C.3       1 <0>        -0.1186
      4 C4         -1.4126   -2.0635    0.0045 C.3       1 <0>        -0.1459
      5 C5         -2.8479   -2.5931    0.0153 C.3       1 <0>        -0.0063
      6 N1         -2.8280   -4.0619    0.0072 N.4       1 <0>        -0.3824
      7 C6         -2.2481   -4.5368   -1.2561 C.3       1 <0>        -0.0532
      8 C7         -4.1998   -4.5710    0.1383 C.3       1 <0>        -0.0456
      9 C8         -4.1687   -6.0962    0.2553 C.3       1 <0>        -0.1294
     10 C9         -5.5974   -6.6263    0.3918 C.3       1 <0>        -1.0156
     11 O1         -6.3564   -6.2522   -0.7597 O.3       1 <0>        -0.4956
     12 P1         -6.3684   -5.9180    1.8842 P.3       1 <0>         2.1988
     13 O2         -5.5363   -6.3282    3.1466 O.2       1 <0>        -1.1600
     14 O3         -6.4002   -4.3563    1.7644 O.3       1 <0>        -1.1608
     15 O4         -7.8314   -6.4609    2.0240 O.3       1 <0>        -1.1414
     16 P2         -5.5605   -8.4436    0.5311 P.3       1 <0>         2.2589
     17 O5         -7.0032   -8.9790    0.6690 O.2       1 <0>        -1.0743
     18 O6         -4.9071   -9.0439   -0.7337 O.3       1 <0>        -1.1245
     19 O7         -4.7054   -8.8651    1.8285 O.3       1 <0>        -0.8807
     20 H1          1.0039    1.9031    0.0027 H         1 <0>         0.0533
     21 H2         -0.5459    1.8868   -0.8726 H         1 <0>         0.0542
     22 H3         -0.5289    1.8773    0.9072 H         1 <0>         0.0569
     23 H4          0.5123   -0.3556   -0.8948 H         1 <0>         0.0606
     24 H5          0.5293   -0.3651    0.8851 H         1 <0>         0.0640
     25 H6         -1.9435   -0.1821    0.9097 H         1 <0>         0.0757
     26 H7         -1.9605   -0.1726   -0.8702 H         1 <0>         0.0699
     27 H8         -0.9024   -2.4150   -0.8923 H         1 <0>         0.0783
     28 H9         -0.8854   -2.4246    0.8875 H         1 <0>         0.0825
     29 H10        -3.3581   -2.2415    0.9121 H         1 <0>         0.1343
     30 H11        -3.3751   -2.2320   -0.8677 H         1 <0>         0.1188
     31 H12        -1.2303   -4.1591   -1.3534 H         1 <0>         0.1059
     32 H13        -2.2333   -5.6267   -1.2621 H         1 <0>         0.1207
     33 H14        -2.8505   -4.1770   -2.0903 H         1 <0>         0.1108
     34 H15        -4.6607   -4.1474    1.0306 H         1 <0>         0.1949
     35 H16        -4.7787   -4.2856   -0.7400 H         1 <0>         0.1135
     36 H17        -3.7078   -6.5197   -0.6371 H         1 <0>         0.0519
     37 H18        -3.5898   -6.3815    1.1336 H         1 <0>         0.0791
     38 H19        -6.0032   -6.5951   -1.5921 H         1 <0>         0.3203
     39 H20        -4.6434   -9.8204    1.9653 H         1 <0>         0.3930
     40 H21        -2.2705   -4.3950    0.7794 H         1 <0>         0.4159
@<TRIPOS>BOND
     1    1    2 1
     2    1   20 1
     3    1   21 1
     4    1   22 1
     5    2    3 1
     6    2   23 1
     7    2   24 1
     8    3    4 1
     9    3   25 1
    10    3   26 1
    11    4    5 1
    12    4   27 1
    13    4   28 1
    14    5    6 1
    15    5   29 1
    16    5   30 1
    17    6    7 1
    18    6    8 1
    19    6   40 1
    20    7   31 1
    21    7   32 1
    22    7   33 1
    23    8    9 1
    24    8   34 1
    25    8   35 1
    26    9   10 1
    27    9   36 1
    28    9   37 1
    29   10   11 1
    30   10   12 1
    31   10   16 1
    32   11   38 1
    33   12   13 2
    34   12   14 1
    35   12   15 1
    36   16   17 2
    37   16   18 1
    38   16   19 1
    39   19   39 1
@<TRIPOS>MOLECULE
ZINC20444137
   41    40     0     0     0
SMALL
USER_CHARGES

@<TRIPOS>ATOM
      1 C1         -0.0187    1.5258    0.0104 C.3       1 <0>        -0.1556
      2 C2          0.0021   -0.0041    0.0020 C.3       1 <0>        -0.1248
      3 C3         -1.4333   -0.5336    0.0129 C.3       1 <0>        -0.1178
      4 C4         -1.4126   -2.0635    0.0045 C.3       1 <0>        -0.1480
      5 C5         -2.8479   -2.5931    0.0153 C.3       1 <0>        -0.0097
      6 N1         -2.8280   -4.0619    0.0072 N.4       1 <0>        -0.3824
      7 C6         -2.2481   -4.5368   -1.2561 C.3       1 <0>        -0.0592
      8 C7         -4.1998   -4.5710    0.1383 C.3       1 <0>        -0.0325
      9 C8         -4.1687   -6.0962    0.2553 C.3       1 <0>        -0.1392
     10 C9         -5.5974   -6.6263    0.3918 C.3       1 <0>        -1.0178
     11 O1         -6.2018   -6.0711    1.5616 O.3       1 <0>        -0.5221
     12 P1         -6.5657   -6.1491   -1.0772 P.3       1 <0>         2.2313
     13 O2         -8.0084   -6.6844   -0.9394 O.2       1 <0>        -1.0667
     14 O3         -6.5983   -4.5441   -1.2003 O.3       1 <0>        -0.9047
     15 O4         -5.9123   -6.7494   -2.3420 O.3       1 <0>        -1.0527
     16 P2         -5.5605   -8.4436    0.5311 P.3       1 <0>         2.2558
     17 O5         -4.9071   -9.0439   -0.7337 O.2       1 <0>        -1.0684
     18 O6         -4.7399   -8.8481    1.7761 O.3       1 <0>        -1.1038
     19 O7         -7.0639   -9.0015    0.6748 O.3       1 <0>        -0.8765
     20 H1          1.0039    1.9031    0.0027 H         1 <0>         0.0571
     21 H2         -0.5459    1.8868   -0.8726 H         1 <0>         0.0562
     22 H3         -0.5289    1.8773    0.9072 H         1 <0>         0.0553
     23 H4          0.5123   -0.3556   -0.8948 H         1 <0>         0.0649
     24 H5          0.5293   -0.3651    0.8851 H         1 <0>         0.0638
     25 H6         -1.9435   -0.1821    0.9097 H         1 <0>         0.0713
     26 H7         -1.9605   -0.1726   -0.8702 H         1 <0>         0.0733
     27 H8         -0.9024   -2.4150   -0.8923 H         1 <0>         0.0874
     28 H9         -0.8854   -2.4246    0.8875 H         1 <0>         0.0829
     29 H10        -3.3581   -2.2415    0.9121 H         1 <0>         0.1238
     30 H11        -3.3751   -2.2320   -0.8677 H         1 <0>         0.1289
     31 H12        -2.8505   -4.1770   -2.0903 H         1 <0>         0.1253
     32 H13        -1.2303   -4.1591   -1.3534 H         1 <0>         0.1184
     33 H14        -2.2333   -5.6267   -1.2621 H         1 <0>         0.1327
     34 H15        -4.6607   -4.1474    1.0306 H         1 <0>         0.1261
     35 H16        -4.7787   -4.2856   -0.7400 H         1 <0>         0.1544
     36 H17        -3.7078   -6.5197   -0.6371 H         1 <0>         0.1089
     37 H18        -3.5898   -6.3815    1.1336 H         1 <0>         0.0814
     38 H19        -5.7384   -6.2850    2.3830 H         1 <0>         0.3532
     39 H20        -7.1205   -9.9637    0.7536 H         1 <0>         0.4036
     40 H21        -2.2705   -4.3950    0.7794 H         1 <0>         0.4166
     41 H22        -7.0976   -4.2181   -1.9615 H         1 <0>         0.4093
@<TRIPOS>BOND
     1    1    2 1
     2    1   20 1
     3    1   21 1
     4    1   22 1
     5    2    3 1
     6    2   23 1
     7    2   24 1
     8    3    4 1
     9    3   25 1
    10    3   26 1
    11    4    5 1
    12    4   27 1
    13    4   28 1
    14    5    6 1
    15    5   29 1
    16    5   30 1
    17    6    7 1
    18    6    8 1
    19    6   40 1
    20    7   31 1
    21    7   32 1
    22    7   33 1
    23    8    9 1
    24    8   34 1
    25    8   35 1
    26    9   10 1
    27    9   36 1
    28    9   37 1
    29   10   11 1
    30   10   12 1
    31   10   16 1
    32   11   38 1
    33   12   13 2
    34   12   14 1
    35   12   15 1
    36   14   41 1
    37   16   17 2
    38   16   18 1
    39   16   19 1
    40   19   39 1
