@<TRIPOS>MOLECULE
ZINC12504479
   39    42     0     0     0
SMALL
USER_CHARGES
tert-butyl-fluoro-BLAHone
@<TRIPOS>ATOM
      1 C1          0.0306    7.5665   -1.3573 C.3       1 <0>        -0.1435
      2 C2         -0.0131    6.9316    0.0341 C.3       1 <0>         0.0141
      3 C3         -1.4663    6.6486    0.4201 C.3       1 <0>        -0.1303
      4 C4          0.6075    7.8907    1.0520 C.3       1 <0>        -0.1484
      5 C5          0.7640    5.6405    0.0218 C.2       1 <0>         0.2640
      6 N1          2.1200    5.5432    0.0086 N.pl3     1 <0>        -0.5660
      7 H1          2.7692    6.3038    0.0059 H         1 <0>         0.4300
      8 C6          2.4322    4.2055   -0.0004 C.ar      1 <0>         0.0707
      9 C7          3.6945    3.4726   -0.0160 C.ar      1 <0>        -0.0387
     10 C8          4.9179    4.1553   -0.0241 C.ar      1 <0>        -0.0830
     11 C9          6.0889    3.4567   -0.0382 C.ar      1 <0>        -0.1479
     12 C10         6.0877    2.0644   -0.0451 C.ar      1 <0>         0.1067
     13 C11         4.9015    1.3651   -0.0371 C.ar      1 <0>        -0.1434
     14 C12         3.6874    2.0596   -0.0226 C.ar      1 <0>         0.0348
     15 C13         2.4115    1.3424   -0.0138 C.ar      1 <0>        -0.1820
     16 C14         1.2049    2.0599    0.0016 C.ar      1 <0>         0.1180
     17 C15         1.2195    3.5214    0.0080 C.ar      1 <0>         0.0317
     18 N2          0.2386    4.4495    0.0214 N.2       1 <0>        -0.4565
     19 C16        -0.0162    1.3425    0.0094 C.2       1 <0>        -0.2034
     20 C17         0.0021   -0.0041    0.0020 C.2       1 <0>         0.1350
     21 N3          1.1742   -0.7011   -0.0125 N.am      1 <0>        -0.6142
     22 H2          1.1491   -1.6708   -0.0168 H         1 <0>         0.4195
     23 C18         2.3662   -0.0731   -0.0205 C.2       1 <0>         0.5428
     24 O1          3.3998   -0.7196   -0.0338 O.2       1 <0>        -0.5363
     25 F1          7.2604    1.3938   -0.0600 F         1 <0>        -0.1343
     26 H3         -0.4115    6.8833   -2.0824 H         1 <0>         0.0650
     27 H4         -0.5315    8.5004   -1.3483 H         1 <0>         0.0730
     28 H5          1.0659    7.7682   -1.6323 H         1 <0>         0.0547
     29 H6         -1.4974    6.1963    1.4114 H         1 <0>         0.0620
     30 H7         -2.0283    7.5824    0.4291 H         1 <0>         0.0642
     31 H8         -1.9084    5.9653   -0.3050 H         1 <0>         0.0701
     32 H9          1.6428    8.0923    0.7770 H         1 <0>         0.0535
     33 H10         0.0454    8.8245    1.0609 H         1 <0>         0.0757
     34 H11         0.5764    7.4384    2.0432 H         1 <0>         0.0638
     35 H12         4.9335    5.2351   -0.0195 H         1 <0>         0.1298
     36 H13         7.0282    3.9897   -0.0443 H         1 <0>         0.1393
     37 H14         4.9085    0.2852   -0.0418 H         1 <0>         0.1812
     38 H15        -0.9571    1.8725    0.0168 H         1 <0>         0.1577
     39 H16        -0.9330   -0.5444    0.0080 H         1 <0>         0.1706
@<TRIPOS>BOND
     1    1    2 1
     2    1   26 1
     3    1   27 1
     4    1   28 1
     5    2    3 1
     6    2    4 1
     7    2    5 1
     8    3   29 1
     9    3   30 1
    10    3   31 1
    11    4   32 1
    12    4   33 1
    13    4   34 1
    14    5   18 2
    15    5    6 1
    16    6    7 1
    17    6    8 1
    18    8   17 ar
    19    8    9 ar
    20    9   14 ar
    21    9   10 ar
    22   10   11 ar
    23   10   35 1
    24   11   12 ar
    25   11   36 1
    26   12   13 ar
    27   12   25 1
    28   13   14 ar
    29   13   37 1
    30   14   15 ar
    31   15   23 1
    32   15   16 ar
    33   16   17 ar
    34   16   19 1
    35   17   18 1
    36   19   20 2
    37   19   38 1
    38   20   21 1
    39   20   39 1
    40   21   22 1
    41   21   23 am
    42   23   24 2
@<TRIPOS>MOLECULE
ZINC01546258
   53    55     0     0     0
SMALL
USER_CHARGES
3-[4-amino-9-(3,5-dimethoxyphenyl)-3,5,7-triazabicyclo[4.4.0]deca-2,4,7,9,11-pentaen-8-yl]-1-tert-butyl-urea
@<TRIPOS>ATOM
      1 C1         -1.0887    7.6775    1.3033 C.3       1 <0>        -0.1663
      2 C2         -0.3113    8.0808    0.0487 C.3       1 <0>         0.1877
      3 C3         -0.0830    9.5937    0.0546 C.3       1 <0>        -0.1554
      4 C4         -1.1124    7.6908   -1.1951 C.3       1 <0>        -0.1662
      5 N1          0.9815    7.3919    0.0329 N.am      1 <0>        -0.7353
      6 C5          1.0273    6.0450    0.0253 C.2       1 <0>         0.6901
      7 O1         -0.0042    5.4017    0.0317 O.2       1 <0>        -0.5044
      8 N2          2.2167    5.4112    0.0107 N.am      1 <0>        -0.6633
      9 C6          2.2638    4.0247    0.0029 C.ar      1 <0>         0.4750
     10 C7          3.5175    3.3772   -0.0124 C.ar      1 <0>        -0.1647
     11 C8          3.5690    1.9924   -0.0207 C.ar      1 <0>         0.0437
     12 C9          2.3538    1.2883   -0.0134 C.ar      1 <0>        -0.2965
     13 C10         2.3093   -0.1165   -0.0206 C.ar      1 <0>         0.2662
     14 N3          1.1320   -0.7081   -0.0126 N.ar      1 <0>        -0.5715
     15 C11         0.0021   -0.0041    0.0020 C.ar      1 <0>         0.5958
     16 N4         -0.0158    1.3153    0.0093 N.ar      1 <0>        -0.5643
     17 C12         1.1301    2.0077    0.0021 C.ar      1 <0>         0.4294
     18 N5          1.1372    3.3420    0.0095 N.ar      1 <0>        -0.4758
     19 N6         -1.2015   -0.6830    0.0094 N.pl3     1 <0>        -0.8106
     20 C13         4.7693    4.1719   -0.0200 C.ar      1 <0>         0.0404
     21 C14         4.9368    5.2020   -0.9432 C.ar      1 <0>        -0.1979
     22 C15         6.1054    5.9464   -0.9438 C.ar      1 <0>         0.1772
     23 C16         7.1125    5.6599   -0.0338 C.ar      1 <0>        -0.2963
     24 C17         6.9514    4.6311    0.8826 C.ar      1 <0>         0.1767
     25 C18         5.7831    3.8866    0.8924 C.ar      1 <0>        -0.1729
     26 O2          7.9407    4.3534    1.7721 O.3       1 <0>        -0.3102
     27 C19         9.1180    5.1606    1.7060 C.3       1 <0>         0.0250
     28 O3          6.2671    6.9551   -1.8400 O.3       1 <0>        -0.3107
     29 C20         7.4986    7.6781   -1.7878 C.3       1 <0>         0.0249
     30 H1         -0.5180    7.9554    2.1894 H         1 <0>         0.0525
     31 H2         -2.0506    8.1901    1.3151 H         1 <0>         0.0638
     32 H3         -1.2514    6.5997    1.2991 H         1 <0>         0.0817
     33 H4          0.4708    9.8810   -0.8392 H         1 <0>         0.0624
     34 H5         -1.0449   10.1063    0.0664 H         1 <0>         0.0764
     35 H6          0.4877    9.8716    0.9407 H         1 <0>         0.0620
     36 H7         -1.2750    6.6130   -1.1992 H         1 <0>         0.0817
     37 H8         -2.0743    8.2033   -1.1832 H         1 <0>         0.0637
     38 H9         -0.5585    7.9781   -2.0888 H         1 <0>         0.0529
     39 H10         1.8046    7.9052    0.0278 H         1 <0>         0.3944
     40 H11         3.0397    5.9245    0.0056 H         1 <0>         0.4167
     41 H12         4.5146    1.4707   -0.0328 H         1 <0>         0.1552
     42 H13         3.2195   -0.6978   -0.0320 H         1 <0>         0.1816
     43 H14        -2.0366   -0.1897    0.0197 H         1 <0>         0.4185
     44 H15        -1.2112   -1.6530    0.0043 H         1 <0>         0.4170
     45 H16         4.1548    5.4227   -1.6547 H         1 <0>         0.1357
     46 H17         8.0241    6.2390   -0.0391 H         1 <0>         0.1377
     47 H18         5.6583    3.0857    1.6061 H         1 <0>         0.1385
     48 H19         9.5731    5.0593    0.7208 H         1 <0>         0.0572
     49 H20         8.8534    6.2039    1.8784 H         1 <0>         0.0568
     50 H21         9.8255    4.8344    2.4683 H         1 <0>         0.1047
     51 H22         8.3290    6.9943   -1.9635 H         1 <0>         0.0573
     52 H23         7.4977    8.4532   -2.5542 H         1 <0>         0.1047
     53 H24         7.6083    8.1383   -0.8058 H         1 <0>         0.0573
@<TRIPOS>BOND
     1    1    2 1
     2    1   30 1
     3    1   31 1
     4    1   32 1
     5    2    3 1
     6    2    4 1
     7    2    5 1
     8    3   33 1
     9    3   34 1
    10    3   35 1
    11    4   36 1
    12    4   37 1
    13    4   38 1
    14    5    6 am
    15    5   39 1
    16    6    7 2
    17    6    8 am
    18    8    9 1
    19    8   40 1
    20    9   18 ar
    21    9   10 ar
    22   10   11 ar
    23   10   20 1
    24   11   12 ar
    25   11   41 1
    26   12   17 ar
    27   12   13 ar
    28   13   14 ar
    29   13   42 1
    30   14   15 ar
    31   15   16 ar
    32   15   19 1
    33   16   17 ar
    34   17   18 ar
    35   19   43 1
    36   19   44 1
    37   20   25 ar
    38   20   21 ar
    39   21   22 ar
    40   21   45 1
    41   22   23 ar
    42   22   28 1
    43   23   24 ar
    44   23   46 1
    45   24   25 ar
    46   24   26 1
    47   25   47 1
    48   26   27 1
    49   27   48 1
    50   27   49 1
    51   27   50 1
    52   28   29 1
    53   29   51 1
    54   29   52 1
    55   29   53 1
@<TRIPOS>MOLECULE
ZINC01486219
   63    66     0     0     0
SMALL
USER_CHARGES
3-(2,6-dichlorophenyl)-8-[4-(2-diethylaminoethoxy)phenyl]amino-5-methyl-5,7,9-triazabicyclo[4.4.0]deca-2,7,9,11-tetraen-4-one
@<TRIPOS>ATOM
      1 C1          4.3966   -4.7837   -2.5468 C.3       1 <0>        -0.1870
      2 C2          2.8964   -4.6021   -2.7861 C.3       1 <0>        -0.0162
      3 C3          2.4461   -6.8910   -2.1372 C.3       1 <0>        -0.0118
      4 C4          1.8425   -7.2999   -3.4823 C.3       1 <0>        -0.1890
      5 C5          2.4154   -5.1324   -0.4731 C.3       1 <0>        -0.0017
      6 C6          1.8626   -3.7372   -0.1755 C.3       1 <0>         0.0258
      7 O1          0.4386   -3.7538   -0.2937 O.3       1 <0>        -0.3284
      8 C7         -0.2140   -2.5840   -0.0593 C.ar      1 <0>         0.0962
      9 C8         -1.5967   -2.5300   -0.1569 C.ar      1 <0>        -0.1190
     10 C9         -2.2601   -1.3423    0.0800 C.ar      1 <0>        -0.0693
     11 C10        -1.5427   -0.2019    0.4166 C.ar      1 <0>         0.1456
     12 C11        -0.1586   -0.2569    0.5145 C.ar      1 <0>        -0.1051
     13 C12         0.5033   -1.4453    0.2768 C.ar      1 <0>        -0.1797
     14 N1         -2.2146    1.0029    0.6565 N.pl3     1 <0>        -0.6299
     15 C13        -3.4618    0.9918    1.2505 C.ar      1 <0>         0.6044
     16 N2         -3.9572   -0.1650    1.6772 N.ar      1 <0>        -0.5742
     17 C14        -5.1437   -0.2299    2.2512 C.ar      1 <0>         0.2632
     18 C15        -5.8809    0.9543    2.4052 C.ar      1 <0>        -0.2686
     19 C16        -7.1573    0.9487    3.0126 C.2       1 <0>         0.0223
     20 C17        -7.8369    2.1304    3.1401 C.2       1 <0>        -0.1517
     21 C18        -7.2276    3.3671    2.6461 C.2       1 <0>         0.5544
     22 O2         -7.8250    4.4230    2.7559 O.2       1 <0>        -0.4939
     23 N3         -6.0096    3.3430    2.0714 N.am      1 <0>        -0.5055
     24 C19        -5.3213    2.1634    1.9394 C.ar      1 <0>         0.4667
     25 N4         -4.1173    2.1350    1.3785 N.ar      1 <0>        -0.5922
     26 C20        -5.4137    4.5888    1.5828 C.3       1 <0>         0.0688
     27 C21        -9.1768    2.1577    3.7717 C.ar      1 <0>        -0.0161
     28 C22       -10.3226    1.9980    2.9915 C.ar      1 <0>        -0.0058
     29 C23       -11.5685    2.0201    3.5872 C.ar      1 <0>        -0.1054
     30 C24       -11.6824    2.2097    4.9527 C.ar      1 <0>        -0.0846
     31 C25       -10.5507    2.3740    5.7310 C.ar      1 <0>        -0.1053
     32 C26        -9.2987    2.3491    5.1486 C.ar      1 <0>        -0.0060
     33 Cl1        -7.8797    2.5560    6.1271 Cl        1 <0>        -0.0505
     34 Cl2       -10.1822    1.7665    1.2768 Cl        1 <0>        -0.0510
     35 H1          4.9531   -4.1230   -3.2115 H         1 <0>         0.1068
     36 H2          4.6315   -4.5389   -1.5110 H         1 <0>         0.0793
     37 H3          4.6739   -5.8185   -2.7475 H         1 <0>         0.0822
     38 H4          2.6589   -4.8621   -3.8177 H         1 <0>         0.1316
     39 H5          2.6219   -3.5637   -2.6008 H         1 <0>         0.1265
     40 H6          3.5263   -7.0339   -2.1651 H         1 <0>         0.1326
     41 H7          2.0186   -7.5058   -1.3452 H         1 <0>         0.1298
     42 H8          2.0860   -8.3423   -3.6879 H         1 <0>         0.1065
     43 H9          0.7598   -7.1800   -3.4463 H         1 <0>         0.0812
     44 H10         2.2519   -6.6689   -4.2712 H         1 <0>         0.0791
     45 H11         3.4910   -5.1423   -0.2968 H         1 <0>         0.1506
     46 H12         1.9336   -5.8608    0.1791 H         1 <0>         0.1410
     47 H13         2.2779   -3.0226   -0.8861 H         1 <0>         0.0853
     48 H14         2.1397   -3.4450    0.8374 H         1 <0>         0.1080
     49 H15        -2.1544   -3.4170   -0.4187 H         1 <0>         0.1368
     50 H16        -3.3362   -1.2993   -0.0007 H         1 <0>         0.1474
     51 H17         0.4000    0.6295    0.7766 H         1 <0>         0.1342
     52 H18         1.5798   -1.4882    0.3529 H         1 <0>         0.1308
     53 H19        -1.8044    1.8453    0.4058 H         1 <0>         0.4284
     54 H20        -5.5388   -1.1742    2.5955 H         1 <0>         0.1893
     55 H21        -7.5900    0.0261    3.3703 H         1 <0>         0.1521
     56 H22        -5.7018    4.7463    0.5434 H         1 <0>         0.0759
     57 H23        -5.7679    5.4230    2.1883 H         1 <0>         0.0941
     58 H24        -4.3278    4.5242    1.6530 H         1 <0>         0.0949
     59 H25       -12.4560    1.8924    2.9851 H         1 <0>         0.1450
     60 H26       -12.6591    2.2300    5.4131 H         1 <0>         0.1471
     61 H27       -10.6465    2.5224    6.7965 H         1 <0>         0.1451
     62 N5          2.1179   -5.4728   -1.8803 N.4       1 <0>        -0.3969
     63 H28         1.1169   -5.3253   -2.0547 H         1 <0>         0.4358
@<TRIPOS>BOND
     1    1    2 1
     2    1   35 1
     3    1   36 1
     4    1   37 1
     5    2   38 1
     6    2   39 1
     7    2   62 1
     8    3    4 1
     9    3   40 1
    10    3   41 1
    11    3   62 1
    12    4   42 1
    13    4   43 1
    14    4   44 1
    15    5    6 1
    16    5   45 1
    17    5   46 1
    18    5   62 1
    19    6    7 1
    20    6   47 1
    21    6   48 1
    22    7    8 1
    23    8   13 ar
    24    8    9 ar
    25    9   10 ar
    26    9   49 1
    27   10   11 ar
    28   10   50 1
    29   11   12 ar
    30   11   14 1
    31   12   13 ar
    32   12   51 1
    33   13   52 1
    34   14   15 1
    35   14   53 1
    36   15   25 ar
    37   15   16 ar
    38   16   17 ar
    39   17   18 ar
    40   17   54 1
    41   18   24 ar
    42   18   19 1
    43   19   20 2
    44   19   55 1
    45   20   21 1
    46   20   27 1
    47   21   22 2
    48   21   23 am
    49   23   24 1
    50   23   26 1
    51   24   25 ar
    52   26   56 1
    53   26   57 1
    54   26   58 1
    55   27   32 ar
    56   27   28 ar
    57   28   29 ar
    58   28   34 1
    59   29   30 ar
    60   29   59 1
    61   30   31 ar
    62   30   60 1
    63   31   32 ar
    64   31   61 1
    65   32   33 1
    66   62   63 1
@<TRIPOS>MOLECULE
ZINC03815485
   37    39     0     0     0
SMALL
USER_CHARGES
3-[4-methyl-2-[(2-oxoindolin-3-ylidene)methyl]-1H-pyrrol-3-yl]propanoic acid
@<TRIPOS>ATOM
      1 C1          6.4107    5.2592    0.3537 C.3       1 <0>        -0.0795
      2 C2          5.3007    4.2465    0.2384 C.2       1 <0>        -0.1824
      3 C3          5.4531    2.9006    0.1670 C.2       1 <0>         0.0341
      4 N1          4.2294    2.3226    0.0715 N.pl3     1 <0>        -0.5149
      5 H1          4.0567    1.3703    0.0065 H         1 <0>         0.4168
      6 C4          3.2725    3.3147    0.0816 C.2       1 <0>        -0.0293
      7 C5          3.9347    4.5288    0.1802 C.2       1 <0>        -0.0647
      8 C6          3.2997    5.8949    0.2206 C.3       1 <0>        -0.0405
      9 C7          3.0113    6.2804    1.6729 C.3       1 <0>        -0.1466
     10 C8          2.3763    7.6465    1.7134 C.2       1 <0>         0.4587
     11 O1          2.1750    8.2498    0.6860 O.co2     1 <0>        -0.6409
     12 C9          1.8769    3.1293    0.0005 C.2       1 <0>         0.1068
     13 C10         1.3602    2.0950   -0.7562 C.2       1 <0>        -0.2301
     14 C11        -0.0507    1.6563   -0.8367 C.ar      1 <0>        -0.0827
     15 C12        -1.2222    2.0949   -0.2277 C.ar      1 <0>        -0.0701
     16 C13        -2.4180    1.4683   -0.5138 C.ar      1 <0>        -0.1371
     17 C14        -2.4493    0.4013   -1.3965 C.ar      1 <0>        -0.0942
     18 C15        -1.2923   -0.0444   -2.0023 C.ar      1 <0>        -0.1378
     19 C16        -0.0783    0.5770   -1.7304 C.ar      1 <0>         0.1314
     20 N2          1.2094    0.3347   -2.1925 N.am      1 <0>        -0.6534
     21 C17         2.0923    1.1937   -1.6552 C.2       1 <0>         0.5578
     22 O2          3.2903    1.2198   -1.8751 O.2       1 <0>        -0.5177
     23 H2          6.7296    5.5639   -0.6430 H         1 <0>         0.0584
     24 H3          6.0524    6.1301    0.9026 H         1 <0>         0.0675
     25 H4          7.2530    4.8161    0.8851 H         1 <0>         0.0563
     26 H5          6.3961    2.3743    0.1835 H         1 <0>         0.1640
     27 H6          3.9786    6.6243   -0.2210 H         1 <0>         0.0750
     28 H7          2.3669    5.8788   -0.3431 H         1 <0>         0.0676
     29 H8          2.3324    5.5510    2.1146 H         1 <0>         0.0610
     30 H9          3.9441    6.2965    2.2366 H         1 <0>         0.0651
     31 H10         1.2120    3.7956    0.5299 H         1 <0>         0.1543
     32 H11        -1.1970    2.9269    0.4604 H         1 <0>         0.1314
     33 H12        -3.3302    1.8080   -0.0459 H         1 <0>         0.1288
     34 H13        -3.3882   -0.0868   -1.6125 H         1 <0>         0.1278
     35 H14        -1.3297   -0.8771   -2.6890 H         1 <0>         0.1231
     36 H15         1.4415   -0.3650   -2.8228 H         1 <0>         0.4132
     37 O3          2.0343    8.1931    2.8907 O.co2     1 <0>        -0.7772
@<TRIPOS>BOND
     1    1    2 1
     2    1   23 1
     3    1   24 1
     4    1   25 1
     5    2    7 1
     6    2    3 2
     7    3    4 1
     8    3   26 1
     9    4    5 1
    10    4    6 1
    11    6    7 2
    12    6   12 1
    13    7    8 1
    14    8    9 1
    15    8   27 1
    16    8   28 1
    17    9   10 1
    18    9   29 1
    19    9   30 1
    20   10   11 2
    21   10   37 1
    22   12   13 2
    23   12   31 1
    24   13   21 1
    25   13   14 1
    26   14   19 ar
    27   14   15 ar
    28   15   16 ar
    29   15   32 1
    30   16   17 ar
    31   16   33 1
    32   17   18 ar
    33   17   34 1
    34   18   19 ar
    35   18   35 1
    36   19   20 1
    37   20   21 am
    38   20   36 1
    39   21   22 2
