@<TRIPOS>MOLECULE
ZINC15206336
   34    35     0     0     0
SMALL
USER_CHARGES
(2R,3R,4R,5R,6S)-2-(hydroxymethyl)-6-phenoxy-tetrahydropyran-3,4,5-triol
@<TRIPOS>ATOM
      1 C1          0.6295   -2.5841    5.2528 C.ar      1 <0>        -0.1533
      2 C2          1.2770   -1.7170    6.1134 C.ar      1 <0>        -0.0865
      3 C3          1.1489   -0.3518    5.9459 C.ar      1 <0>        -0.1490
      4 C4          0.3698    0.1491    4.9130 C.ar      1 <0>         0.1238
      5 C5         -0.2835   -0.7230    4.0543 C.ar      1 <0>        -0.1804
      6 C6         -0.1480   -2.0874    4.2229 C.ar      1 <0>        -0.0829
      7 O1          0.2422    1.4918    4.7461 O.3       1 <0>        -0.3021
      8 C7         -0.5757    1.9359    3.6617 C.3       1 <0>         0.2323
      9 H1         -1.5659    1.4883    3.7460 H         1 <0>         0.0766
     10 C8         -0.6993    3.4611    3.7069 C.3       1 <0>         0.0618
     11 H2          0.2937    3.9085    3.6633 H         1 <0>         0.0897
     12 C9         -1.5269    3.9343    2.5079 C.3       1 <0>         0.0865
     13 H3         -1.5718    5.0233    2.5028 H         1 <0>         0.0826
     14 C10        -0.8634    3.4427    1.2177 C.3       1 <0>         0.0833
     15 H4         -1.4754    3.7277    0.3619 H         1 <0>         0.0904
     16 C11        -0.7334    1.9182    1.2687 C.3       1 <0>         0.1131
     17 H5         -1.7257    1.4702    1.3216 H         1 <0>         0.0920
     18 O2          0.0206    1.5441    2.4235 O.3       1 <0>        -0.3703
     19 C12        -0.0173    1.4248    0.0099 C.3       1 <0>         0.0869
     20 O3          0.0021   -0.0041    0.0020 O.3       1 <0>        -0.5666
     21 O4          0.4341    4.0288    1.0947 O.3       1 <0>        -0.5415
     22 O5         -2.8491    3.4000    2.5990 O.3       1 <0>        -0.5561
     23 O6         -1.3478    3.8520    4.9188 O.3       1 <0>        -0.5580
     24 H6          0.7308   -3.6511    5.3854 H         1 <0>         0.1241
     25 H7          1.8831   -2.1074    6.9175 H         1 <0>         0.1296
     26 H8          1.6546    0.3251    6.6186 H         1 <0>         0.1293
     27 H9         -0.8942   -0.3355    3.2523 H         1 <0>         0.1299
     28 H10        -0.6528   -2.7667    3.5520 H         1 <0>         0.1250
     29 H11         1.0053    1.8021    0.0021 H         1 <0>         0.0668
     30 H12        -0.5445    1.7859   -0.8732 H         1 <0>         0.0645
     31 H13         0.4417   -0.3872   -0.7693 H         1 <0>         0.3836
     32 H14         0.4272    4.9950    1.0566 H         1 <0>         0.3838
     33 H15        -3.3265    3.6655    3.3970 H         1 <0>         0.3958
     34 H16        -0.8802    3.5803    5.7204 H         1 <0>         0.3952
@<TRIPOS>BOND
     1    1    6 ar
     2    1    2 ar
     3    1   24 1
     4    2    3 ar
     5    2   25 1
     6    3    4 ar
     7    3   26 1
     8    4    5 ar
     9    4    7 1
    10    5    6 ar
    11    5   27 1
    12    6   28 1
    13    7    8 1
    14    8    9 1
    15    8   18 1
    16    8   10 1
    17   10   11 1
    18   10   12 1
    19   10   23 1
    20   12   13 1
    21   12   14 1
    22   12   22 1
    23   14   15 1
    24   14   16 1
    25   14   21 1
    26   16   17 1
    27   16   18 1
    28   16   19 1
    29   19   20 1
    30   19   29 1
    31   19   30 1
    32   20   31 1
    33   21   32 1
    34   22   33 1
    35   23   34 1
