@<TRIPOS>MOLECULE
ZINC03827029
   54    55     0     0     0
SMALL
USER_CHARGES
3-(3-pyridyl)propyl 1-(3,3-dimethyl-2-oxo-pentanoyl)pyrrolidine-2-carboxylate
@<TRIPOS>ATOM
      1 C1         -5.6516    7.4272    1.8027 C.3       1 <0>        -0.1557
      2 C2         -4.7003    6.5968    0.9388 C.3       1 <0>        -0.1077
      3 C3         -4.0856    5.4805    1.7856 C.3       1 <0>        -0.0877
      4 C4         -5.1978    4.5810    2.3287 C.3       1 <0>        -0.1463
      5 C5         -3.3101    6.0941    2.9530 C.3       1 <0>        -0.1458
      6 C6         -3.1486    4.6625    0.9347 C.2       1 <0>         0.3684
      7 O1         -2.9888    4.9435   -0.2291 O.2       1 <0>        -0.4127
      8 C7         -2.4187    3.5066    1.5294 C.2       1 <0>         0.4993
      9 O2         -2.5792    3.2242    2.6988 O.2       1 <0>        -0.4893
     10 N1         -1.5807    2.7750    0.7685 N.am      1 <0>        -0.5870
     11 C8         -1.2939    3.0056   -0.6591 C.3       1 <0>         0.0925
     12 C9         -0.8250    1.6304   -1.1965 C.3       1 <0>        -0.1342
     13 C10        -0.0127    1.0858    0.0080 C.3       1 <0>        -0.1191
     14 C11        -0.7976    1.6145    1.2270 C.3       1 <0>         0.1438
     15 H1         -1.4676    0.8402    1.6007 H         1 <0>         0.1207
     16 C12         0.1613    2.0337    2.3114 C.2       1 <0>         0.4549
     17 O3          0.1863    3.1826    2.6847 O.2       1 <0>        -0.4875
     18 O4          0.9874    1.1308    2.8626 O.3       1 <0>        -0.3542
     19 C13         1.8839    1.6053    3.9016 C.3       1 <0>         0.0679
     20 C14         2.7415    0.4427    4.4054 C.3       1 <0>        -0.1135
     21 C15         3.6861    0.9428    5.5002 C.3       1 <0>        -0.0737
     22 C16         4.5308   -0.2023    5.9964 C.ar      1 <0>        -0.1351
     23 C17         4.1008   -0.9831    7.0588 C.ar      1 <0>        -0.0719
     24 C18         4.9085   -2.0287    7.4785 C.ar      1 <0>        -0.1695
     25 C19         6.1116   -2.2506    6.8351 C.ar      1 <0>         0.0950
     26 N2          6.4909   -1.4845    5.8311 N.ar      1 <0>        -0.4831
     27 C20         5.7461   -0.4841    5.4023 C.ar      1 <0>         0.1027
     28 H2         -6.4440    6.7864    2.1896 H         1 <0>         0.0601
     29 H3         -5.0992    7.8643    2.6344 H         1 <0>         0.0601
     30 H4         -6.0895    8.2225    1.1994 H         1 <0>         0.0583
     31 H5         -3.9080    7.2376    0.5519 H         1 <0>         0.0688
     32 H6         -5.2528    6.1596    0.1071 H         1 <0>         0.0689
     33 H7         -4.7599    3.7858    2.9319 H         1 <0>         0.0776
     34 H8         -5.8755    5.1726    2.9441 H         1 <0>         0.0758
     35 H9         -5.7503    4.1439    1.4969 H         1 <0>         0.0565
     36 H10        -2.5178    6.7348    2.5661 H         1 <0>         0.0561
     37 H11        -3.9879    6.6857    3.5685 H         1 <0>         0.0750
     38 H12        -2.8722    5.2988    3.5563 H         1 <0>         0.0786
     39 H13        -0.5029    3.7469   -0.7723 H         1 <0>         0.0763
     40 H14        -2.1942    3.3299   -1.1810 H         1 <0>         0.1038
     41 H15        -0.1898    1.7499   -2.0742 H         1 <0>         0.0959
     42 H16        -1.6762    0.9862   -1.4170 H         1 <0>         0.0853
     43 H17         0.0021   -0.0041    0.0020 H         1 <0>         0.1028
     44 H18         1.0020    1.4839    0.0005 H         1 <0>         0.0847
     45 H19         2.5298    2.3842    3.4963 H         1 <0>         0.0721
     46 H20         1.3001    2.0109    4.7279 H         1 <0>         0.0727
     47 H21         2.0956   -0.3362    4.8107 H         1 <0>         0.0773
     48 H22         3.3253    0.0371    3.5791 H         1 <0>         0.0784
     49 H23         4.3320    1.7217    5.0948 H         1 <0>         0.0816
     50 H24         3.1023    1.3484    6.3264 H         1 <0>         0.0801
     51 H25         3.1574   -0.7837    7.5451 H         1 <0>         0.1346
     52 H26         4.6035   -2.6594    8.3004 H         1 <0>         0.1364
     53 H27         6.7485   -3.0606    7.1586 H         1 <0>         0.1564
     54 H28         6.0900    0.1218    4.5771 H         1 <0>         0.1546
@<TRIPOS>BOND
     1    1    2 1
     2    1   28 1
     3    1   29 1
     4    1   30 1
     5    2    3 1
     6    2   31 1
     7    2   32 1
     8    3    4 1
     9    3    5 1
    10    3    6 1
    11    4   33 1
    12    4   34 1
    13    4   35 1
    14    5   36 1
    15    5   37 1
    16    5   38 1
    17    6    7 2
    18    6    8 1
    19    8    9 2
    20    8   10 am
    21   10   14 1
    22   10   11 1
    23   11   12 1
    24   11   39 1
    25   11   40 1
    26   12   13 1
    27   12   41 1
    28   12   42 1
    29   13   14 1
    30   13   43 1
    31   13   44 1
    32   14   15 1
    33   14   16 1
    34   16   17 2
    35   16   18 1
    36   18   19 1
    37   19   20 1
    38   19   45 1
    39   19   46 1
    40   20   21 1
    41   20   47 1
    42   20   48 1
    43   21   22 1
    44   21   49 1
    45   21   50 1
    46   22   27 ar
    47   22   23 ar
    48   23   24 ar
    49   23   51 1
    50   24   25 ar
    51   24   52 1
    52   25   26 ar
    53   25   53 1
    54   26   27 ar
    55   27   54 1
