@<TRIPOS>MOLECULE
ZINC18456289
   49    51     0     0     0
SMALL
USER_CHARGES

@<TRIPOS>ATOM
      1 C1         -0.0169    1.3937    0.0097 C.ar      1 <0>        -0.0178
      2 C2          1.1662    2.0965    0.0022 C.ar      1 <0>        -0.2027
      3 C3          2.3811    1.4169   -0.0131 C.ar      1 <0>         0.2234
      4 C4          2.4034    0.0249   -0.0208 C.ar      1 <0>        -0.2019
      5 C5          1.2237   -0.6836   -0.0138 C.ar      1 <0>        -0.0368
      6 C6          0.0021   -0.0041    0.0020 C.ar      1 <0>        -0.1618
      7 C7         -1.2644   -0.7605    0.0105 C.2       1 <0>         0.5562
      8 O1         -2.3263   -0.1682    0.0243 O.2       1 <0>        -0.5618
      9 N1         -1.2445   -2.1081    0.0031 N.am      1 <0>        -0.6794
     10 C8         -2.5022   -2.8593    0.0116 C.3       1 <0>         0.0734
     11 H1         -3.2516   -2.3197   -0.5676 H         1 <0>         0.0769
     12 C9         -2.2758   -4.2399   -0.6078 C.3       1 <0>        -0.0800
     13 C10        -1.9084   -4.0824   -2.0846 C.3       1 <0>        -0.1777
     14 C11        -1.6854   -5.4422   -2.6946 C.2       1 <0>         0.4909
     15 O2         -1.8089   -6.4445   -2.0115 O.co2     1 <0>        -0.6977
     16 O3         -1.3815   -5.5401   -3.8713 O.co2     1 <0>        -0.7207
     17 C12        -2.9829   -3.0182    1.4310 C.2       1 <0>         0.4956
     18 O4         -2.3350   -2.5475    2.3503 O.co2     1 <0>        -0.6969
     19 O5         -4.0198   -3.6173    1.6600 O.co2     1 <0>        -0.7019
     20 N2          3.5749    2.1299   -0.0211 N.pl3     1 <0>        -0.7420
     21 C13         4.8542    1.4162   -0.0371 C.3       1 <0>         0.1849
     22 C14         5.9850    2.4124   -0.0431 C.ar      1 <0>         0.0297
     23 C15         6.5880    2.7792    1.1560 C.ar      1 <0>         0.1500
     24 N3          7.5783    3.6491    1.1730 N.ar      1 <0>        -0.4418
     25 C16         8.0071    4.1829    0.0286 C.ar      1 <0>         0.3627
     26 C17         7.3904    3.8055   -1.1863 C.ar      1 <0>        -0.0653
     27 N4          6.3986    2.9251   -1.1847 N.ar      1 <0>        -0.3389
     28 C18         7.8862    4.4130   -2.4332 C.2       1 <0>         0.5818
     29 O6          7.3975    4.1302   -3.5112 O.2       1 <0>        -0.4658
     30 N5          8.9054    5.2978   -2.3348 N.am      1 <0>        -0.6647
     31 C19         9.4401    5.6027   -1.1180 C.2       1 <0>         0.6656
     32 N6          9.0149    5.0747    0.0031 N.2       1 <0>        -0.5748
     33 H2         10.8043    6.9084   -1.8819 H         1 <0>         0.4169
     34 N7         10.4715    6.5039   -1.0654 N.pl3     1 <0>        -0.8137
     35 H3         -0.9590    1.9215    0.0260 H         1 <0>         0.1328
     36 H4          1.1522    3.1764    0.0078 H         1 <0>         0.1189
     37 H5          3.3474   -0.4995   -0.0326 H         1 <0>         0.1233
     38 H6          1.2416   -1.7634   -0.0204 H         1 <0>         0.1283
     39 H7         -0.3974   -2.5806   -0.0078 H         1 <0>         0.3881
     40 H8         -1.4645   -4.7448   -0.0833 H         1 <0>         0.0545
     41 H9         -3.1876   -4.8309   -0.5212 H         1 <0>         0.0780
     42 H10        -2.7197   -3.5775   -2.6090 H         1 <0>         0.0519
     43 H11        -0.9966   -3.4914   -2.1711 H         1 <0>         0.0508
     44 H12         3.5606    3.0997   -0.0161 H         1 <0>         0.3972
     45 H13         4.9299    0.7860    0.8490 H         1 <0>         0.0872
     46 H14         4.9126    0.7950   -0.9309 H         1 <0>         0.0851
     47 H15         6.2408    2.3469    2.0828 H         1 <0>         0.1877
     48 H16        10.8687    6.7372   -0.2118 H         1 <0>         0.4323
     49 H17         9.2581    5.7176   -3.1350 H         1 <0>         0.4203
@<TRIPOS>BOND
     1    1    6 ar
     2    1    2 ar
     3    1   35 1
     4    2    3 ar
     5    2   36 1
     6    3    4 ar
     7    3   20 1
     8    4    5 ar
     9    4   37 1
    10    5    6 ar
    11    5   38 1
    12    6    7 1
    13    7    8 2
    14    7    9 am
    15    9   10 1
    16    9   39 1
    17   10   11 1
    18   10   12 1
    19   10   17 1
    20   12   13 1
    21   12   40 1
    22   12   41 1
    23   13   14 1
    24   13   42 1
    25   13   43 1
    26   14   15 2
    27   14   16 1
    28   17   18 2
    29   17   19 1
    30   20   21 1
    31   20   44 1
    32   21   45 1
    33   21   46 1
    34   21   22 1
    35   22   27 ar
    36   22   23 ar
    37   23   47 1
    38   23   24 ar
    39   24   25 ar
    40   25   26 ar
    41   25   32 1
    42   26   28 1
    43   26   27 ar
    44   28   29 2
    45   28   30 am
    46   30   31 1
    47   30   49 1
    48   31   32 2
    49   31   34 1
    50   33   34 1
    51   34   48 1
