@<TRIPOS>MOLECULE
ZINC18456289
   49    51     0     0     0
SMALL
USER_CHARGES

@<TRIPOS>ATOM
      1 C1         -0.0169    1.3937    0.0097 C.ar      1 <0>        -0.0178
      2 C2          1.1662    2.0965    0.0022 C.ar      1 <0>        -0.2027
      3 C3          2.3811    1.4169   -0.0131 C.ar      1 <0>         0.2234
      4 C4          2.4034    0.0249   -0.0208 C.ar      1 <0>        -0.2019
      5 C5          1.2237   -0.6836   -0.0138 C.ar      1 <0>        -0.0368
      6 C6          0.0021   -0.0041    0.0020 C.ar      1 <0>        -0.1618
      7 C7         -1.2644   -0.7605    0.0105 C.2       1 <0>         0.5562
      8 O1         -2.3263   -0.1682    0.0243 O.2       1 <0>        -0.5618
      9 N1         -1.2445   -2.1081    0.0031 N.am      1 <0>        -0.6794
     10 C8         -2.5022   -2.8593    0.0116 C.3       1 <0>         0.0734
     11 H1         -3.2516   -2.3197   -0.5676 H         1 <0>         0.0769
     12 C9         -2.2758   -4.2399   -0.6078 C.3       1 <0>        -0.0800
     13 C10        -1.9084   -4.0824   -2.0846 C.3       1 <0>        -0.1777
     14 C11        -1.6854   -5.4422   -2.6946 C.2       1 <0>         0.4909
     15 O2         -1.8089   -6.4445   -2.0115 O.co2     1 <0>        -0.6977
     16 O3         -1.3815   -5.5401   -3.8713 O.co2     1 <0>        -0.7207
     17 C12        -2.9829   -3.0182    1.4310 C.2       1 <0>         0.4956
     18 O4         -2.3350   -2.5475    2.3503 O.co2     1 <0>        -0.6969
     19 O5         -4.0198   -3.6173    1.6600 O.co2     1 <0>        -0.7019
     20 N2          3.5749    2.1299   -0.0211 N.pl3     1 <0>        -0.7420
     21 C13         4.8542    1.4162   -0.0371 C.3       1 <0>         0.1849
     22 C14         5.9850    2.4124   -0.0431 C.ar      1 <0>         0.0297
     23 C15         6.5880    2.7792    1.1560 C.ar      1 <0>         0.1500
     24 N3          7.5783    3.6491    1.1730 N.ar      1 <0>        -0.4418
     25 C16         8.0071    4.1829    0.0286 C.ar      1 <0>         0.3627
     26 C17         7.3904    3.8055   -1.1863 C.ar      1 <0>        -0.0653
     27 N4          6.3986    2.9251   -1.1847 N.ar      1 <0>        -0.3389
     28 C18         7.8862    4.4130   -2.4332 C.2       1 <0>         0.5818
     29 O6          7.3975    4.1302   -3.5112 O.2       1 <0>        -0.4658
     30 N5          8.9054    5.2978   -2.3348 N.am      1 <0>        -0.6647
     31 C19         9.4401    5.6027   -1.1180 C.2       1 <0>         0.6656
     32 N6          9.0149    5.0747    0.0031 N.2       1 <0>        -0.5748
     33 H2         10.8043    6.9084   -1.8819 H         1 <0>         0.4169
     34 N7         10.4715    6.5039   -1.0654 N.pl3     1 <0>        -0.8137
     35 H3         -0.9590    1.9215    0.0260 H         1 <0>         0.1328
     36 H4          1.1522    3.1764    0.0078 H         1 <0>         0.1189
     37 H5          3.3474   -0.4995   -0.0326 H         1 <0>         0.1233
     38 H6          1.2416   -1.7634   -0.0204 H         1 <0>         0.1283
     39 H7         -0.3974   -2.5806   -0.0078 H         1 <0>         0.3881
     40 H8         -1.4645   -4.7448   -0.0833 H         1 <0>         0.0545
     41 H9         -3.1876   -4.8309   -0.5212 H         1 <0>         0.0780
     42 H10        -2.7197   -3.5775   -2.6090 H         1 <0>         0.0519
     43 H11        -0.9966   -3.4914   -2.1711 H         1 <0>         0.0508
     44 H12         3.5606    3.0997   -0.0161 H         1 <0>         0.3972
     45 H13         4.9299    0.7860    0.8490 H         1 <0>         0.0872
     46 H14         4.9126    0.7950   -0.9309 H         1 <0>         0.0851
     47 H15         6.2408    2.3469    2.0828 H         1 <0>         0.1877
     48 H16        10.8687    6.7372   -0.2118 H         1 <0>         0.4323
     49 H17         9.2581    5.7176   -3.1350 H         1 <0>         0.4203
@<TRIPOS>BOND
     1    1    6 ar
     2    1    2 ar
     3    1   35 1
     4    2    3 ar
     5    2   36 1
     6    3    4 ar
     7    3   20 1
     8    4    5 ar
     9    4   37 1
    10    5    6 ar
    11    5   38 1
    12    6    7 1
    13    7    8 2
    14    7    9 am
    15    9   10 1
    16    9   39 1
    17   10   11 1
    18   10   12 1
    19   10   17 1
    20   12   13 1
    21   12   40 1
    22   12   41 1
    23   13   14 1
    24   13   42 1
    25   13   43 1
    26   14   15 2
    27   14   16 1
    28   17   18 2
    29   17   19 1
    30   20   21 1
    31   20   44 1
    32   21   45 1
    33   21   46 1
    34   21   22 1
    35   22   27 ar
    36   22   23 ar
    37   23   47 1
    38   23   24 ar
    39   24   25 ar
    40   25   26 ar
    41   25   32 1
    42   26   28 1
    43   26   27 ar
    44   28   29 2
    45   28   30 am
    46   30   31 1
    47   30   49 1
    48   31   32 2
    49   31   34 1
    50   33   34 1
    51   34   48 1
@<TRIPOS>MOLECULE
ZINC03806987
   50    52     0     0     0
SMALL
USER_CHARGES
2-[[5-[2-(3-amino-5-oxo-7-thia-2,4,10-triazabicyclo[4.4.0]deca-2,11-dien-8-yl)ethyl]-2-thienyl]carbonylamino]pentanedioic acid
@<TRIPOS>ATOM
      1 C1          1.0149    1.6756    3.1672 C.2       1 <0>        -0.1661
      2 C2          1.5424    1.0490    4.2687 C.2       1 <0>        -0.1003
      3 C3          1.0023   -0.1796    4.6151 C.2       1 <0>        -0.1917
      4 S1         -0.2480   -0.3968    3.3611 S.3       1 <0>         0.1522
      5 C4          0.0000    1.0800    2.4877 C.2       1 <0>        -0.1830
      6 C5         -0.7288    1.5792    1.2668 C.3       1 <0>        -0.0321
      7 C6         -0.0127    1.0858    0.0080 C.3       1 <0>        -0.0944
      8 C7         -0.7527    1.5927   -1.2315 C.3       1 <0>        -0.1066
      9 H1         -0.8633    2.6758   -1.1793 H         1 <0>         0.0991
     10 C8          0.0274    1.2082   -2.4987 C.3       1 <0>         0.1265
     11 N1         -0.6442    1.7866   -3.6584 N.pl3     1 <0>        -0.7090
     12 C9         -1.9772    1.5770   -3.9428 C.2       1 <0>         0.4800
     13 C10        -2.8890    1.1440   -2.9951 C.2       1 <0>        -0.3919
     14 C11        -4.2310    0.9699   -3.3619 C.2       1 <0>         0.5744
     15 O1         -5.0556    0.5933   -2.5430 O.2       1 <0>        -0.5253
     16 N2         -4.5956    1.2262   -4.6358 N.am      1 <0>        -0.6593
     17 H2         -5.5484    1.1124   -4.9172 H         1 <0>         0.4191
     18 C12        -3.6628    1.6400   -5.5364 C.2       1 <0>         0.6610
     19 N3         -2.4053    1.8064   -5.1980 N.2       1 <0>        -0.6167
     20 N4         -4.0461    1.8893   -6.8301 N.pl3     1 <0>        -0.8229
     21 S2         -2.3899    0.8072   -1.3378 S.3       1 <0>        -0.0406
     22 C13         1.3637   -1.0685    5.7232 C.2       1 <0>         0.5950
     23 O2          2.2539   -0.7530    6.4909 O.2       1 <0>        -0.5383
     24 N5          0.7103   -2.2351    5.8920 N.am      1 <0>        -0.6789
     25 C14         1.0715   -3.1235    6.9995 C.3       1 <0>         0.0997
     26 H3          1.3585   -2.5266    7.8652 H         1 <0>         0.0886
     27 C15        -0.1279   -4.0020    7.3606 C.3       1 <0>        -0.0868
     28 C16        -1.2595   -3.1240    7.8986 C.3       1 <0>        -0.1542
     29 C17        -2.4409   -3.9893    8.2544 C.2       1 <0>         0.4620
     30 O3         -2.3837   -5.1855    8.0940 O.co2     1 <0>        -0.6386
     31 C18         2.2277   -3.9971    6.5860 C.2       1 <0>         0.4655
     32 O4          2.7014   -3.8888    5.4797 O.co2     1 <0>        -0.6387
     33 H4          1.3995    2.6326    2.8466 H         1 <0>         0.1299
     34 H5          2.3463    1.4918    4.8379 H         1 <0>         0.1429
     35 H6         -0.7436    2.6691    1.2728 H         1 <0>         0.0852
     36 H7         -1.7514    1.2020    1.2746 H         1 <0>         0.0868
     37 H8          0.0021   -0.0041    0.0020 H         1 <0>         0.0848
     38 H9          1.0099    1.4631    0.0003 H         1 <0>         0.0862
     39 H10         1.0438    1.5964   -2.4338 H         1 <0>         0.1034
     40 H11         0.0564    0.1228   -2.5946 H         1 <0>         0.0845
     41 H12        -0.1271    2.3459   -4.2590 H         1 <0>         0.4077
     42 H13        -4.9722    1.7702   -7.0930 H         1 <0>         0.4147
     43 H14        -3.3911    2.1847   -7.4817 H         1 <0>         0.4269
     44 H15         0.0008   -2.4865    5.2802 H         1 <0>         0.3920
     45 H16        -0.4705   -4.5323    6.4721 H         1 <0>         0.0587
     46 H17         0.1664   -4.7231    8.1232 H         1 <0>         0.0867
     47 H18        -0.9169   -2.5937    8.7872 H         1 <0>         0.0612
     48 H19        -1.5539   -2.4029    7.1360 H         1 <0>         0.0577
     49 O5         -3.5568   -3.4312    8.7493 O.co2     1 <0>        -0.7899
     50 O6          2.7314   -4.8956    7.4467 O.co2     1 <0>        -0.7669
@<TRIPOS>BOND
     1    1    5 2
     2    1    2 1
     3    1   33 1
     4    2    3 2
     5    2   34 1
     6    3    4 1
     7    3   22 1
     8    4    5 1
     9    5    6 1
    10    6    7 1
    11    6   35 1
    12    6   36 1
    13    7    8 1
    14    7   37 1
    15    7   38 1
    16    8    9 1
    17    8   21 1
    18    8   10 1
    19   10   11 1
    20   10   39 1
    21   10   40 1
    22   11   12 1
    23   11   41 1
    24   12   19 1
    25   12   13 2
    26   13   14 1
    27   13   21 1
    28   14   15 2
    29   14   16 am
    30   16   17 1
    31   16   18 1
    32   18   19 2
    33   18   20 1
    34   20   42 1
    35   20   43 1
    36   22   23 2
    37   22   24 am
    38   24   25 1
    39   24   44 1
    40   25   26 1
    41   25   27 1
    42   25   31 1
    43   27   28 1
    44   27   45 1
    45   27   46 1
    46   28   29 1
    47   28   47 1
    48   28   48 1
    49   29   30 2
    50   29   49 1
    51   31   32 2
    52   31   50 1
