@<TRIPOS>MOLECULE
ZINC08431474
   34    34     0     0     0
SMALL
USER_CHARGES

@<TRIPOS>ATOM
      1 C1         -0.0164    1.3603    0.0095 C.ar      1 <0>        -0.0787
      2 C2          1.1872    2.0772    0.0019 C.ar      1 <0>        -0.0509
      3 C3          2.4098    1.3933   -0.0134 C.ar      1 <0>        -0.0729
      4 C4          2.4283    0.0290   -0.0204 C.ar      1 <0>        -0.0786
      5 C5          1.2247   -0.6880   -0.0119 C.ar      1 <0>        -0.0510
      6 C6          0.0021   -0.0041    0.0020 C.ar      1 <0>        -0.0729
      7 C7          1.2446   -2.1568   -0.0204 C.2       1 <0>         0.1794
      8 N1          0.1223   -2.8253   -0.0124 N.2       1 <0>        -0.3052
      9 N2          0.1398   -4.1152   -0.0199 N.pl3     1 <0>        -0.4781
     10 C8         -0.9927   -4.7898   -0.0118 C.cat     1 <0>         0.7590
     11 N3         -2.1896   -4.1203    0.0046 N.pl3     1 <0>        -0.7812
     12 N4         -0.9741   -6.1611   -0.0197 N.pl3     1 <0>        -0.7980
     13 C9          1.1673    3.5461    0.0094 C.2       1 <0>         0.1794
     14 N5          2.2895    4.2146    0.0023 N.2       1 <0>        -0.3052
     15 N6          2.2721    5.5044    0.0089 N.pl3     1 <0>        -0.4780
     16 C10         3.4046    6.1790    0.0017 C.cat     1 <0>         0.7590
     17 N7          4.6015    5.5095   -0.0128 N.pl3     1 <0>        -0.7812
     18 N8          3.3860    7.5503    0.0088 N.pl3     1 <0>        -0.7980
     19 H1         -0.9589    1.8875    0.0258 H         1 <0>         0.1445
     20 H2          3.3377    1.9460   -0.0200 H         1 <0>         0.1425
     21 H3          3.3708   -0.4982   -0.0329 H         1 <0>         0.1445
     22 H4         -0.9258   -0.5567    0.0082 H         1 <0>         0.1424
     23 H5          2.1871   -2.6840   -0.0332 H         1 <0>         0.1459
     24 H6         -2.2027   -3.1504    0.0102 H         1 <0>         0.4465
     25 H7         -3.0229   -4.6167    0.0105 H         1 <0>         0.4412
     26 H8         -0.1276   -6.6346   -0.0313 H         1 <0>         0.4416
     27 H9         -1.8075   -6.6575   -0.0138 H         1 <0>         0.4475
     28 H10         0.2248    4.0733    0.0209 H         1 <0>         0.1458
     29 H11         4.6146    4.5396   -0.0178 H         1 <0>         0.4466
     30 H12         5.4348    6.0059   -0.0181 H         1 <0>         0.4412
     31 H13         2.5395    8.0238    0.0190 H         1 <0>         0.4416
     32 H14         4.2194    8.0467    0.0035 H         1 <0>         0.4475
     33 H15         0.9863   -4.5887   -0.0314 H         1 <0>         0.4169
     34 H16         1.4255    5.9779    0.0192 H         1 <0>         0.4169
@<TRIPOS>BOND
     1    1    6 ar
     2    1    2 ar
     3    1   19 1
     4    2    3 ar
     5    2   13 1
     6    3    4 ar
     7    3   20 1
     8    4    5 ar
     9    4   21 1
    10    5    6 ar
    11    5    7 1
    12    6   22 1
    13    7    8 2
    14    7   23 1
    15    8    9 1
    16    9   10 2
    17    9   33 1
    18   10   11 1
    19   10   12 1
    20   11   24 1
    21   11   25 1
    22   12   26 1
    23   12   27 1
    24   13   14 2
    25   13   28 1
    26   14   15 1
    27   15   16 2
    28   15   34 1
    29   16   17 1
    30   16   18 1
    31   17   29 1
    32   17   30 1
    33   18   31 1
    34   18   32 1
