@<TRIPOS>MOLECULE
ZINC01489867
   66    70     0     0     0
SMALL
USER_CHARGES
3-[2-(1,1-dimethylprop-2-enyl)-1H-indol-3-yl]-4,5-dihydroxy-6-[7-(3-methylbut-2-enyl)-1H-indol-3-yl]-1,2-benzoquinone
@<TRIPOS>ATOM
      1 C1         -4.8294    6.1943    1.1406 C.3       1 <0>        -0.1132
      2 C2         -4.3190    5.0581    1.9890 C.2       1 <0>        -0.1559
      3 C3         -3.7013    4.0480    1.4282 C.2       1 <0>        -0.1369
      4 C4         -3.6165    3.9565   -0.0737 C.3       1 <0>        -0.0453
      5 C5         -2.1697    3.9085   -0.4930 C.ar      1 <0>        -0.1125
      6 C6         -1.5179    5.0672   -0.8555 C.ar      1 <0>        -0.1093
      7 C7         -0.1860    5.0379   -1.2433 C.ar      1 <0>        -0.1781
      8 C8          0.5042    3.8461   -1.2708 C.ar      1 <0>        -0.0405
      9 C9         -0.1417    2.6659   -0.9072 C.ar      1 <0>        -0.0935
     10 C10        -1.4909    2.6947   -0.5142 C.ar      1 <0>         0.0937
     11 N1         -1.8630    1.4003   -0.2199 N.pl3     1 <0>        -0.6093
     12 H1         -2.8912    1.1842    0.1060 H         1 <0>         0.4166
     13 C11        -0.8061    0.5536   -0.3999 C.2       1 <0>         0.0087
     14 C12         0.2770    1.2570   -0.8225 C.2       1 <0>         0.0310
     15 C13         1.6155    0.7132   -1.1364 C.2       1 <0>        -0.4510
     16 C14         1.8380    0.0034   -2.3051 C.2       1 <0>         0.3163
     17 C15         3.1567   -0.5294   -2.6301 C.2       1 <0>         0.3195
     18 C16         4.1611   -0.5951   -1.6782 C.2       1 <0>        -0.4462
     19 C17         3.8691   -0.1006   -0.3175 C.2       1 <0>         0.3758
     20 O1          4.4909   -0.4801    0.6536 O.3       1 <0>        -0.5245
     21 C18         2.7501    0.9127   -0.2120 C.2       1 <0>         0.3758
     22 O2          2.7775    1.8260    0.5873 O.2       1 <0>        -0.5236
     23 C19         5.4911   -1.1456   -2.0159 C.2       1 <0>         0.0442
     24 C20         5.9174   -2.5498   -1.8975 C.ar      1 <0>        -0.0933
     25 C21         5.2844   -3.7214   -1.4855 C.ar      1 <0>        -0.0422
     26 C22         5.9697   -4.9043   -1.4981 C.ar      1 <0>        -0.1773
     27 C23         7.2901   -4.9484   -1.9229 C.ar      1 <0>        -0.1178
     28 C24         7.9323   -3.8025   -2.3391 C.ar      1 <0>        -0.1481
     29 C25         7.2524   -2.5884   -2.3344 C.ar      1 <0>         0.0849
     30 N2          7.6110   -1.3039   -2.6821 N.pl3     1 <0>        -0.6046
     31 H2          8.6262   -1.0972   -3.0518 H         1 <0>         0.4158
     32 C26         6.5597   -0.4529   -2.4901 C.2       1 <0>         0.0542
     33 C27         6.5814    1.0289   -2.7634 C.3       1 <0>         0.0463
     34 C28         7.9616    1.4307   -3.2875 C.3       1 <0>        -0.1458
     35 C29         5.5191    1.3702   -3.8103 C.3       1 <0>        -0.1363
     36 C30         6.2901    1.7790   -1.4892 C.2       1 <0>        -0.1018
     37 C31         7.1713    2.6206   -1.0084 C.2       1 <0>        -0.2362
     38 O3          3.4029   -0.9740   -3.8865 O.2       1 <0>        -0.6513
     39 O4          0.8096   -0.2001   -3.1640 O.3       1 <0>        -0.6580
     40 C32        -4.5191    5.0838    3.4823 C.3       1 <0>        -0.1120
     41 H3         -5.3154    6.9426    1.7839 H         1 <0>         0.0530
     42 H4         -5.5575    5.8091    0.4115 H         1 <0>         0.0621
     43 H5         -3.9879    6.6604    0.6072 H         1 <0>         0.0669
     44 H6         -3.2446    3.2668    2.0535 H         1 <0>         0.1083
     45 H7         -4.1275    3.0441   -0.4148 H         1 <0>         0.0678
     46 H8         -4.0994    4.8369   -0.5226 H         1 <0>         0.0744
     47 H9         -2.0492    6.0074   -0.8379 H         1 <0>         0.1049
     48 H10         0.3121    5.9539   -1.5244 H         1 <0>         0.1071
     49 H11         1.5409    3.8265   -1.5730 H         1 <0>         0.1154
     50 H12        -0.8293   -0.5135   -0.2355 H         1 <0>         0.1548
     51 H13         4.2571   -3.6940   -1.1534 H         1 <0>         0.1151
     52 H14         5.4801   -5.8111   -1.1748 H         1 <0>         0.1064
     53 H15         7.8195   -5.8897   -1.9269 H         1 <0>         0.1067
     54 H16         8.9600   -3.8467   -2.6684 H         1 <0>         0.1024
     55 H17         7.9774    2.5124   -3.4869 H         1 <0>         0.0602
     56 H18         8.1742    0.8832   -4.2176 H         1 <0>         0.0519
     57 H19         8.7253    1.1854   -2.5348 H         1 <0>         0.0518
     58 H20         5.5350    2.4519   -4.0097 H         1 <0>         0.0406
     59 H21         4.5268    1.0814   -3.4335 H         1 <0>         0.0963
     60 H22         5.7318    0.8227   -4.7404 H         1 <0>         0.0505
     61 H23         5.3374    1.6198   -0.9629 H         1 <0>         0.1228
     62 H24         6.9586    3.1681   -0.0783 H         1 <0>         0.0919
     63 H25         8.1240    2.7799   -1.5347 H         1 <0>         0.0931
     64 H26        -4.0827    4.1771    3.9264 H         1 <0>         0.0588
     65 H27        -5.5952    5.1210    3.7074 H         1 <0>         0.0589
     66 H28        -4.0256    5.9723    3.9031 H         1 <0>         0.0595
@<TRIPOS>BOND
     1    1    2 1
     2    1   41 1
     3    1   42 1
     4    1   43 1
     5    2    3 2
     6    2   40 1
     7    3    4 1
     8    3   44 1
     9    4    5 1
    10    4   45 1
    11    4   46 1
    12    5   10 ar
    13    5    6 ar
    14    6    7 ar
    15    6   47 1
    16    7    8 ar
    17    7   48 1
    18    8    9 ar
    19    8   49 1
    20    9   14 1
    21    9   10 ar
    22   10   11 1
    23   11   12 1
    24   11   13 1
    25   13   14 2
    26   13   50 1
    27   14   15 1
    28   15   21 1
    29   15   16 2
    30   16   39 1
    31   16   17 1
    32   17   38 2
    33   17   18 1
    34   18   19 2
    35   18   23 1
    36   19   20 1
    37   19   21 1
    38   21   22 2
    39   23   32 2
    40   23   24 1
    41   24   29 ar
    42   24   25 ar
    43   25   26 ar
    44   25   51 1
    45   26   27 ar
    46   26   52 1
    47   27   28 ar
    48   27   53 1
    49   28   29 ar
    50   28   54 1
    51   29   30 1
    52   30   31 1
    53   30   32 1
    54   32   33 1
    55   33   34 1
    56   33   35 1
    57   33   36 1
    58   34   55 1
    59   34   56 1
    60   34   57 1
    61   35   58 1
    62   35   59 1
    63   35   60 1
    64   36   37 2
    65   36   61 1
    66   37   62 1
    67   37   63 1
    68   40   64 1
    69   40   65 1
    70   40   66 1
@<TRIPOS>MOLECULE
ZINC01489867
   68    72     0     0     0
SMALL
USER_CHARGES
2-[2-(1,1-dimethylprop-2-enyl)-1H-indol-3-yl]-3,6-dihydroxy-5-[7-(3-methylbut-2-enyl)-1H-indol-3-yl]-1,4-benzoquinone
@<TRIPOS>ATOM
      1 C1         -4.9291    6.0958    1.1125 C.3       1 <0>        -0.1222
      2 C2         -4.4104    4.9664    1.9648 C.2       1 <0>        -0.1234
      3 C3         -3.5404    4.1201    1.4719 C.2       1 <0>        -0.1654
      4 C4         -3.0582    4.2759    0.0526 C.3       1 <0>        -0.0543
      5 C5         -1.5531    4.3500    0.0387 C.ar      1 <0>        -0.0771
      6 C6         -0.9227    5.5762    0.0395 C.ar      1 <0>        -0.0978
      7 C7          0.4616    5.6591    0.0268 C.ar      1 <0>        -0.1323
      8 C8          1.2269    4.5129    0.0139 C.ar      1 <0>        -0.0840
      9 C9          0.6032    3.2674    0.0129 C.ar      1 <0>        -0.0907
     10 C10        -0.7990    3.1820    0.0254 C.ar      1 <0>         0.0979
     11 N1         -1.1335    1.8429    0.0169 N.pl3     1 <0>        -0.5818
     12 H1         -2.0403    1.4985    0.0193 H         1 <0>         0.4187
     13 C11        -0.0126    1.0758    0.0080 C.2       1 <0>         0.1026
     14 C12         1.0940    1.8782    0.0017 C.2       1 <0>        -0.1449
     15 C13         2.4986    1.4407   -0.0133 C.2       1 <0>        -0.2782
     16 C14         3.0489    0.9516   -1.1627 C.2       1 <0>         0.3065
     17 C15         4.4515    0.5267   -1.1807 C.2       1 <0>         0.3742
     18 O1          4.9433    0.0954   -2.2063 O.2       1 <0>        -0.3601
     19 C16         5.2691    0.6170    0.0524 C.2       1 <0>        -0.0776
     20 C17         4.7155    1.0953    1.2048 C.2       1 <0>         0.1355
     21 C18         3.3162    1.5310    1.2198 C.2       1 <0>         0.2687
     22 O2          2.8258    1.9667    2.2441 O.3       1 <0>        -0.3670
     23 O3          5.4652    1.1785    2.3352 O.3       1 <0>        -0.4239
     24 C19         6.6753    0.1847    0.0359 C.2       1 <0>        -0.1336
     25 C20         7.8498    1.0163   -0.2801 C.ar      1 <0>        -0.0710
     26 C21         8.0220    2.3561   -0.6214 C.ar      1 <0>        -0.0755
     27 C22         9.2898    2.8435   -0.8531 C.ar      1 <0>        -0.1385
     28 C23        10.3919    2.0081   -0.7424 C.ar      1 <0>        -0.1014
     29 C24        10.2365    0.6820   -0.4002 C.ar      1 <0>        -0.1251
     30 C25         8.9652    0.1709   -0.1619 C.ar      1 <0>         0.0943
     31 N2          8.5021   -1.0810    0.1890 N.pl3     1 <0>        -0.5800
     32 H2          9.0634   -1.8590    0.3322 H         1 <0>         0.4162
     33 C26         7.1489   -1.0690    0.3049 C.2       1 <0>         0.1401
     34 C27         6.2987   -2.2572    0.6745 C.3       1 <0>         0.0252
     35 C28         7.1957   -3.4764    0.8977 C.3       1 <0>        -0.1575
     36 C29         5.5253   -1.9512    1.9586 C.3       1 <0>        -0.1347
     37 C30         5.3269   -2.5459   -0.4406 C.2       1 <0>        -0.1446
     38 C31         5.3514   -3.7071   -1.0465 C.2       1 <0>        -0.1817
     39 O4          2.2976    0.8631   -2.2917 O.2       1 <0>        -0.4772
     40 C32        -4.8925    4.8106    3.3840 C.3       1 <0>        -0.1191
     41 H3         -5.4275    5.6881    0.2330 H         1 <0>         0.0671
     42 H4         -5.6380    6.6901    1.6890 H         1 <0>         0.0616
     43 H5         -4.0970    6.7262    0.7989 H         1 <0>         0.0679
     44 H6         -3.1686    3.3107    2.0827 H         1 <0>         0.1054
     45 H7         -3.4710    5.1905   -0.3730 H         1 <0>         0.0853
     46 H8         -3.3854    3.4203   -0.5382 H         1 <0>         0.0722
     47 H9         -1.5126    6.4808    0.0499 H         1 <0>         0.1243
     48 H10         0.9422    6.6263    0.0276 H         1 <0>         0.1244
     49 H11         2.3048    4.5800    0.0047 H         1 <0>         0.1194
     50 H12         0.0021   -0.0041    0.0020 H         1 <0>         0.1749
     51 H13         4.9073    1.5471    3.0788 H         1 <0>         0.4053
     52 H14         7.1656    3.0085   -0.7082 H         1 <0>         0.1180
     53 H15         9.4263    3.8804   -1.1224 H         1 <0>         0.1239
     54 H16        11.3811    2.4005   -0.9266 H         1 <0>         0.1262
     55 H17        11.1014    0.0404   -0.3168 H         1 <0>         0.1204
     56 H18         7.8987   -3.2676    1.7042 H         1 <0>         0.0623
     57 H19         6.5809   -4.3358    1.1650 H         1 <0>         0.0755
     58 H20         7.7468   -3.6944   -0.0172 H         1 <0>         0.0629
     59 H21         4.8862   -1.0827    1.7997 H         1 <0>         0.0602
     60 H22         4.9104   -2.8106    2.2260 H         1 <0>         0.0657
     61 H23         6.2282   -1.7425    2.7652 H         1 <0>         0.0649
     62 H24         4.6104   -1.7955   -0.7401 H         1 <0>         0.1054
     63 H25         4.6550   -3.9140   -1.8455 H         1 <0>         0.1021
     64 H26         6.0680   -4.4575   -0.7468 H         1 <0>         0.1051
     65 H27         1.8714    2.2148    2.0775 H         1 <0>         0.4474
     66 H28        -4.2406    5.3724    4.0530 H         1 <0>         0.0678
     67 H29        -5.9109    5.1904    3.4656 H         1 <0>         0.0638
     68 H30        -4.8747    3.7563    3.6601 H         1 <0>         0.0611
@<TRIPOS>BOND
     1    1    2 1
     2    1   41 1
     3    1   42 1
     4    1   43 1
     5    2    3 2
     6    2   40 1
     7    3    4 1
     8    3   44 1
     9    4    5 1
    10    4   45 1
    11    4   46 1
    12    5   10 ar
    13    5    6 ar
    14    6    7 ar
    15    6   47 1
    16    7    8 ar
    17    7   48 1
    18    8    9 ar
    19    8   49 1
    20    9   14 1
    21    9   10 ar
    22   10   11 1
    23   11   12 1
    24   11   13 1
    25   13   14 2
    26   13   50 1
    27   14   15 1
    28   15   16 1
    29   15   21 2
    30   16   17 1
    31   16   39 2
    32   17   18 2
    33   17   19 1
    34   19   20 2
    35   19   24 1
    36   20   21 1
    37   20   23 1
    38   21   22 1
    39   22   65 1
    40   23   51 1
    41   24   33 2
    42   24   25 1
    43   25   30 ar
    44   25   26 ar
    45   26   27 ar
    46   26   52 1
    47   27   28 ar
    48   27   53 1
    49   28   29 ar
    50   28   54 1
    51   29   30 ar
    52   29   55 1
    53   30   31 1
    54   31   32 1
    55   31   33 1
    56   33   34 1
    57   34   35 1
    58   34   36 1
    59   34   37 1
    60   35   56 1
    61   35   57 1
    62   35   58 1
    63   36   59 1
    64   36   60 1
    65   36   61 1
    66   37   38 2
    67   37   62 1
    68   38   63 1
    69   38   64 1
    70   40   66 1
    71   40   67 1
    72   40   68 1
@<TRIPOS>MOLECULE
ZINC01489867
   67    71     0     0     0
SMALL
USER_CHARGES
3-[2-(1,1-dimethylprop-2-enyl)-1H-indol-3-yl]-4,5-dihydroxy-6-[7-(3-methylbut-2-enyl)-1H-indol-3-yl]-1,2-benzoquinone
@<TRIPOS>ATOM
      1 C1         -4.8294    6.1943    1.1406 C.3       1 <0>        -0.1171
      2 C2         -4.3190    5.0581    1.9890 C.2       1 <0>        -0.1445
      3 C3         -3.7013    4.0480    1.4282 C.2       1 <0>        -0.1469
      4 C4         -3.6165    3.9565   -0.0737 C.3       1 <0>        -0.0486
      5 C5         -2.1697    3.9085   -0.4930 C.ar      1 <0>        -0.1019
      6 C6         -1.5179    5.0672   -0.8555 C.ar      1 <0>        -0.1059
      7 C7         -0.1860    5.0379   -1.2433 C.ar      1 <0>        -0.1667
      8 C8          0.5042    3.8461   -1.2708 C.ar      1 <0>        -0.0514
      9 C9         -0.1417    2.6659   -0.9072 C.ar      1 <0>        -0.0913
     10 C10        -1.4909    2.6947   -0.5142 C.ar      1 <0>         0.0945
     11 N1         -1.8630    1.4003   -0.2199 N.pl3     1 <0>        -0.6085
     12 H1         -2.8911    1.1842    0.1060 H         1 <0>         0.4254
     13 C11        -0.8061    0.5536   -0.3999 C.2       1 <0>         0.0349
     14 C12         0.2770    1.2570   -0.8225 C.2       1 <0>        -0.0067
     15 C13         1.6155    0.7132   -1.1364 C.2       1 <0>        -0.4078
     16 C14         1.8380    0.0034   -2.3051 C.2       1 <0>         0.3016
     17 C15         3.1567   -0.5294   -2.6301 C.2       1 <0>         0.3535
     18 C16         4.1611   -0.5951   -1.6782 C.2       1 <0>        -0.2719
     19 C17         3.8691   -0.1006   -0.3175 C.2       1 <0>         0.2510
     20 O1          4.4909   -0.4801    0.6536 O.3       1 <0>        -0.3810
     21 C18         2.7501    0.9127   -0.2120 C.2       1 <0>         0.3686
     22 O2          2.7775    1.8260    0.5873 O.2       1 <0>        -0.4957
     23 C19         5.4911   -1.1456   -2.0159 C.2       1 <0>        -0.0534
     24 C20         5.9174   -2.5498   -1.8975 C.ar      1 <0>        -0.0876
     25 C21         5.2844   -3.7214   -1.4855 C.ar      1 <0>        -0.0594
     26 C22         5.9697   -4.9043   -1.4981 C.ar      1 <0>        -0.1580
     27 C23         7.2901   -4.9484   -1.9229 C.ar      1 <0>        -0.1088
     28 C24         7.9323   -3.8025   -2.3391 C.ar      1 <0>        -0.1363
     29 C25         7.2524   -2.5884   -2.3344 C.ar      1 <0>         0.0883
     30 N2          7.6110   -1.3039   -2.6821 N.pl3     1 <0>        -0.6004
     31 H2          8.6262   -1.0973   -3.0518 H         1 <0>         0.4306
     32 C26         6.5597   -0.4529   -2.4901 C.2       1 <0>         0.1097
     33 C27         6.5814    1.0289   -2.7634 C.3       1 <0>         0.0352
     34 C28         7.9616    1.4307   -3.2875 C.3       1 <0>        -0.1518
     35 C29         5.5191    1.3702   -3.8103 C.3       1 <0>        -0.1386
     36 C30         6.2901    1.7790   -1.4892 C.2       1 <0>        -0.1251
     37 C31         7.1713    2.6206   -1.0084 C.2       1 <0>        -0.2089
     38 O3          3.4029   -0.9740   -3.8865 O.2       1 <0>        -0.5292
     39 O4          0.8096   -0.2001   -3.1640 O.3       1 <0>        -0.5978
     40 C32        -4.5191    5.0838    3.4823 C.3       1 <0>        -0.1149
     41 H3         -5.3154    6.9426    1.7839 H         1 <0>         0.0563
     42 H4         -5.5575    5.8091    0.4115 H         1 <0>         0.0642
     43 H5         -3.9878    6.6604    0.6072 H         1 <0>         0.0674
     44 H6         -3.2446    3.2667    2.0536 H         1 <0>         0.1074
     45 H7         -4.1277    3.0442   -0.4149 H         1 <0>         0.0694
     46 H8         -4.0994    4.8370   -0.5226 H         1 <0>         0.0781
     47 H9         -2.0492    6.0074   -0.8379 H         1 <0>         0.1106
     48 H10         0.3121    5.9539   -1.5244 H         1 <0>         0.1112
     49 H11         1.5409    3.8265   -1.5730 H         1 <0>         0.1134
     50 H12        -0.8293   -0.5135   -0.2355 H         1 <0>         0.1573
     51 H13         4.2571   -3.6940   -1.1534 H         1 <0>         0.1159
     52 H14         5.4801   -5.8111   -1.1748 H         1 <0>         0.1149
     53 H15         7.8195   -5.8897   -1.9269 H         1 <0>         0.1166
     54 H16         8.9600   -3.8467   -2.6684 H         1 <0>         0.1120
     55 H17         7.9774    2.5123   -3.4870 H         1 <0>         0.0684
     56 H18         8.1743    0.8832   -4.2175 H         1 <0>         0.0586
     57 H19         8.7253    1.1855   -2.5348 H         1 <0>         0.0573
     58 H20         5.5351    2.4519   -4.0097 H         1 <0>         0.0553
     59 H21         4.5268    1.0814   -3.4334 H         1 <0>         0.0790
     60 H22         5.7317    0.8227   -4.7404 H         1 <0>         0.0594
     61 H23         5.3374    1.6198   -0.9629 H         1 <0>         0.1090
     62 H24         6.9586    3.1681   -0.0783 H         1 <0>         0.0981
     63 H25         8.1240    2.7798   -1.5347 H         1 <0>         0.1026
     64 H26        -4.0827    4.1770    3.9264 H         1 <0>         0.0587
     65 H27        -5.5952    5.1210    3.7074 H         1 <0>         0.0623
     66 H28        -4.0255    5.9722    3.9031 H         1 <0>         0.0617
     67 H29         4.2445   -0.0890    1.6518 H         1 <0>         0.4576
@<TRIPOS>BOND
     1    1    2 1
     2    1   41 1
     3    1   42 1
     4    1   43 1
     5    2    3 2
     6    2   40 1
     7    3    4 1
     8    3   44 1
     9    4    5 1
    10    4   45 1
    11    4   46 1
    12    5   10 ar
    13    5    6 ar
    14    6    7 ar
    15    6   47 1
    16    7    8 ar
    17    7   48 1
    18    8    9 ar
    19    8   49 1
    20    9   14 1
    21    9   10 ar
    22   10   11 1
    23   11   12 1
    24   11   13 1
    25   13   14 2
    26   13   50 1
    27   14   15 1
    28   15   21 1
    29   15   16 2
    30   16   39 1
    31   16   17 1
    32   17   38 2
    33   17   18 1
    34   18   19 2
    35   18   23 1
    36   19   20 1
    37   19   21 1
    38   20   67 1
    39   21   22 2
    40   23   32 2
    41   23   24 1
    42   24   29 ar
    43   24   25 ar
    44   25   26 ar
    45   25   51 1
    46   26   27 ar
    47   26   52 1
    48   27   28 ar
    49   27   53 1
    50   28   29 ar
    51   28   54 1
    52   29   30 1
    53   30   31 1
    54   30   32 1
    55   32   33 1
    56   33   34 1
    57   33   35 1
    58   33   36 1
    59   34   55 1
    60   34   56 1
    61   34   57 1
    62   35   58 1
    63   35   59 1
    64   35   60 1
    65   36   37 2
    66   36   61 1
    67   37   62 1
    68   37   63 1
    69   40   64 1
    70   40   65 1
    71   40   66 1
@<TRIPOS>MOLECULE
ZINC01489867
   67    71     0     0     0
SMALL
USER_CHARGES
3-[2-(1,1-dimethylprop-2-enyl)-1H-indol-3-yl]-4,5-dihydroxy-6-[7-(3-methylbut-2-enyl)-1H-indol-3-yl]-1,2-benzoquinone
@<TRIPOS>ATOM
      1 C1         -4.8294    6.1943    1.1406 C.3       1 <0>        -0.1186
      2 C2         -4.3190    5.0581    1.9890 C.2       1 <0>        -0.1379
      3 C3         -3.7013    4.0480    1.4282 C.2       1 <0>        -0.1539
      4 C4         -3.6165    3.9565   -0.0737 C.3       1 <0>        -0.0492
      5 C5         -2.1697    3.9085   -0.4930 C.ar      1 <0>        -0.0955
      6 C6         -1.5179    5.0672   -0.8555 C.ar      1 <0>        -0.1017
      7 C7         -0.1860    5.0379   -1.2433 C.ar      1 <0>        -0.1548
      8 C8          0.5042    3.8461   -1.2708 C.ar      1 <0>        -0.0588
      9 C9         -0.1417    2.6659   -0.9072 C.ar      1 <0>        -0.0842
     10 C10        -1.4909    2.6947   -0.5142 C.ar      1 <0>         0.0961
     11 N1         -1.8630    1.4003   -0.2199 N.pl3     1 <0>        -0.6047
     12 H1         -2.8911    1.1842    0.1060 H         1 <0>         0.4334
     13 C11        -0.8061    0.5536   -0.3999 C.2       1 <0>         0.0655
     14 C12         0.2770    1.2570   -0.8225 C.2       1 <0>        -0.0794
     15 C13         1.6155    0.7132   -1.1364 C.2       1 <0>        -0.2317
     16 C14         1.8380    0.0034   -2.3051 C.2       1 <0>         0.2166
     17 C15         3.1567   -0.5294   -2.6301 C.2       1 <0>         0.2795
     18 C16         4.1611   -0.5951   -1.6782 C.2       1 <0>        -0.3782
     19 C17         3.8691   -0.1006   -0.3175 C.2       1 <0>         0.3699
     20 O1          4.4909   -0.4801    0.6536 O.3       1 <0>        -0.4695
     21 C18         2.7501    0.9127   -0.2120 C.2       1 <0>         0.3815
     22 O2          2.7775    1.8260    0.5873 O.2       1 <0>        -0.4353
     23 C19         5.4911   -1.1456   -2.0159 C.2       1 <0>         0.0021
     24 C20         5.9174   -2.5498   -1.8975 C.ar      1 <0>        -0.0893
     25 C21         5.2844   -3.7214   -1.4855 C.ar      1 <0>        -0.0524
     26 C22         5.9697   -4.9043   -1.4981 C.ar      1 <0>        -0.1667
     27 C23         7.2901   -4.9484   -1.9229 C.ar      1 <0>        -0.1126
     28 C24         7.9323   -3.8025   -2.3391 C.ar      1 <0>        -0.1406
     29 C25         7.2524   -2.5884   -2.3344 C.ar      1 <0>         0.0869
     30 N2          7.6110   -1.3039   -2.6821 N.pl3     1 <0>        -0.6034
     31 H2          8.6262   -1.0973   -3.0518 H         1 <0>         0.4244
     32 C26         6.5597   -0.4529   -2.4901 C.2       1 <0>         0.0823
     33 C27         6.5814    1.0289   -2.7634 C.3       1 <0>         0.0413
     34 C28         7.9616    1.4307   -3.2875 C.3       1 <0>        -0.1506
     35 C29         5.5191    1.3702   -3.8103 C.3       1 <0>        -0.1335
     36 C30         6.2901    1.7790   -1.4892 C.2       1 <0>        -0.1176
     37 C31         7.1713    2.6206   -1.0084 C.2       1 <0>        -0.2181
     38 O3          3.4029   -0.9740   -3.8865 O.2       1 <0>        -0.6443
     39 O4          0.8096   -0.2001   -3.1640 O.3       1 <0>        -0.4845
     40 C32        -4.5191    5.0838    3.4823 C.3       1 <0>        -0.1170
     41 H3         -5.3154    6.9426    1.7839 H         1 <0>         0.0579
     42 H4         -5.5575    5.8091    0.4115 H         1 <0>         0.0649
     43 H5         -3.9878    6.6604    0.6072 H         1 <0>         0.0677
     44 H6         -3.2446    3.2667    2.0536 H         1 <0>         0.1081
     45 H7         -4.1277    3.0442   -0.4149 H         1 <0>         0.0702
     46 H8         -4.0994    4.8370   -0.5226 H         1 <0>         0.0806
     47 H9         -2.0492    6.0074   -0.8379 H         1 <0>         0.1155
     48 H10         0.3121    5.9539   -1.5244 H         1 <0>         0.1168
     49 H11         1.5409    3.8265   -1.5730 H         1 <0>         0.1169
     50 H12        -0.8293   -0.5135   -0.2355 H         1 <0>         0.1655
     51 H13         4.2571   -3.6940   -1.1534 H         1 <0>         0.1130
     52 H14         5.4801   -5.8111   -1.1748 H         1 <0>         0.1108
     53 H15         7.8195   -5.8897   -1.9269 H         1 <0>         0.1128
     54 H16         8.9600   -3.8467   -2.6684 H         1 <0>         0.1083
     55 H17         7.9774    2.5123   -3.4870 H         1 <0>         0.0645
     56 H18         8.1743    0.8832   -4.2175 H         1 <0>         0.0559
     57 H19         8.7253    1.1855   -2.5348 H         1 <0>         0.0558
     58 H20         5.5351    2.4519   -4.0097 H         1 <0>         0.0459
     59 H21         4.5268    1.0814   -3.4334 H         1 <0>         0.0842
     60 H22         5.7317    0.8227   -4.7404 H         1 <0>         0.0550
     61 H23         5.3374    1.6198   -0.9629 H         1 <0>         0.1121
     62 H24         6.9586    3.1681   -0.0783 H         1 <0>         0.0958
     63 H25         8.1240    2.7798   -1.5347 H         1 <0>         0.0998
     64 H26        -4.0827    4.1770    3.9264 H         1 <0>         0.0596
     65 H27        -5.5952    5.1210    3.7074 H         1 <0>         0.0637
     66 H28        -4.0255    5.9722    3.9031 H         1 <0>         0.0632
     67 H29         0.9737   -0.7622   -4.0952 H         1 <0>         0.4398
@<TRIPOS>BOND
     1    1    2 1
     2    1   41 1
     3    1   42 1
     4    1   43 1
     5    2    3 2
     6    2   40 1
     7    3    4 1
     8    3   44 1
     9    4    5 1
    10    4   45 1
    11    4   46 1
    12    5   10 ar
    13    5    6 ar
    14    6    7 ar
    15    6   47 1
    16    7    8 ar
    17    7   48 1
    18    8    9 ar
    19    8   49 1
    20    9   14 1
    21    9   10 ar
    22   10   11 1
    23   11   12 1
    24   11   13 1
    25   13   14 2
    26   13   50 1
    27   14   15 1
    28   15   21 1
    29   15   16 2
    30   16   39 1
    31   16   17 1
    32   17   38 2
    33   17   18 1
    34   18   19 2
    35   18   23 1
    36   19   20 1
    37   19   21 1
    38   21   22 2
    39   23   32 2
    40   23   24 1
    41   24   29 ar
    42   24   25 ar
    43   25   26 ar
    44   25   51 1
    45   26   27 ar
    46   26   52 1
    47   27   28 ar
    48   27   53 1
    49   28   29 ar
    50   28   54 1
    51   29   30 1
    52   30   31 1
    53   30   32 1
    54   32   33 1
    55   33   34 1
    56   33   35 1
    57   33   36 1
    58   34   55 1
    59   34   56 1
    60   34   57 1
    61   35   58 1
    62   35   59 1
    63   35   60 1
    64   36   37 2
    65   36   61 1
    66   37   62 1
    67   37   63 1
    68   39   67 1
    69   40   64 1
    70   40   65 1
    71   40   66 1
@<TRIPOS>MOLECULE
ZINC00039112
   24    24     0     0     0
SMALL
USER_CHARGES

@<TRIPOS>ATOM
      1 C1         -0.0167    1.3807    0.0096 C.ar      1 <0>        -0.1055
      2 C2          1.1706    2.0894    0.0021 C.ar      1 <0>        -0.1303
      3 C3          2.3823    1.4155   -0.0135 C.ar      1 <0>         0.1256
      4 C4          2.4054    0.0287   -0.0211 C.ar      1 <0>        -0.1544
      5 C5          1.2171   -0.6827   -0.0131 C.ar      1 <0>         0.1190
      6 C6          0.0021   -0.0041    0.0020 C.ar      1 <0>         0.0813
      7 O1         -1.1667   -0.7008    0.0098 O.3       1 <0>        -0.4875
      8 O2          1.2374   -2.0424   -0.0210 O.3       1 <0>        -0.4875
      9 O3          3.5486    2.1146   -0.0218 O.3       1 <0>        -0.4969
     10 C7          1.1476    3.5962    0.0104 C.3       1 <0>        -0.0944
     11 C8          1.2518    4.1157   -1.4250 C.3       1 <0>        -0.0057
     12 N1          1.2294    5.5845   -1.4169 N.4       1 <0>        -0.6372
     13 H1         -0.9594    1.9074    0.0260 H         1 <0>         0.1422
     14 H2          3.3493   -0.4960   -0.0336 H         1 <0>         0.1478
     15 H3         -1.5133   -0.8974   -0.8712 H         1 <0>         0.4004
     16 H4          1.2522   -2.4407    0.8600 H         1 <0>         0.4049
     17 H5          3.8948    2.3124    0.8592 H         1 <0>         0.3992
     18 H6          0.2150    3.9429    0.4554 H         1 <0>         0.0973
     19 H7          1.9893    3.9692    0.5938 H         1 <0>         0.0977
     20 H8          2.1845    3.7690   -1.8700 H         1 <0>         0.1392
     21 H9          0.4101    3.7427   -2.0084 H         1 <0>         0.1343
     22 H10         2.0086    5.9298   -0.8768 H         1 <0>         0.4360
     23 H11         1.2981    5.9271   -2.3635 H         1 <0>         0.4399
     24 H12         0.3661    5.9054   -1.0049 H         1 <0>         0.4348
@<TRIPOS>BOND
     1    1    6 ar
     2    1    2 ar
     3    1   13 1
     4    2    3 ar
     5    2   10 1
     6    3    4 ar
     7    3    9 1
     8    4    5 ar
     9    4   14 1
    10    5    6 ar
    11    5    8 1
    12    6    7 1
    13    7   15 1
    14    8   16 1
    15    9   17 1
    16   10   11 1
    17   10   18 1
    18   10   19 1
    19   11   12 1
    20   11   20 1
    21   11   21 1
    22   12   22 1
    23   12   23 1
    24   12   24 1
@<TRIPOS>MOLECULE
ZINC05931502
   35    37     0     0     0
SMALL
USER_CHARGES
(2R,3R,4S,5R)-2-(6-amino-2-methyl-purin-9-yl)-5-(hydroxymethyl)tetrahydrofuran-3,4-diol
@<TRIPOS>ATOM
      1 C1          5.4871   -0.7802   -4.7967 C.3       1 <0>        -0.0812
      2 C2          5.5415   -0.2572   -3.3844 C.ar      1 <0>         0.3681
      3 N1          6.7164   -0.1515   -2.7905 N.ar      1 <0>        -0.5706
      4 C3          6.8202    0.3037   -1.5464 C.ar      1 <0>         0.4503
      5 C4          5.6459    0.6738   -0.8686 C.ar      1 <0>        -0.0736
      6 C5          4.4204    0.5370   -1.5419 C.ar      1 <0>         0.3065
      7 N2          4.4163    0.0776   -2.7892 N.ar      1 <0>        -0.5259
      8 N3          3.4569    0.9668   -0.6647 N.pl3     1 <0>        -0.4732
      9 C6          4.0873    1.3347    0.4866 C.2       1 <0>         0.2711
     10 N4          5.3715    1.1621    0.3649 N.2       1 <0>        -0.4526
     11 C7          2.0146    1.0153   -0.9168 C.3       1 <0>         0.3136
     12 H1          1.8201    1.3123   -1.9474 H         1 <0>         0.1230
     13 C8          1.3706   -0.3575   -0.6221 C.3       1 <0>         0.0791
     14 H2          1.9790   -0.9208    0.0855 H         1 <0>         0.0857
     15 C9          0.0021   -0.0041    0.0020 C.3       1 <0>         0.0470
     16 H3         -0.0661   -0.3925    1.0182 H         1 <0>         0.0880
     17 C10        -0.0189    1.5406    0.0105 C.3       1 <0>         0.0503
     18 H4         -0.5253    1.9181   -0.8778 H         1 <0>         0.1006
     19 O1          1.3722    1.9285   -0.0007 O.3       1 <0>        -0.3463
     20 C11        -0.7057    2.0570    1.2764 C.3       1 <0>         0.0818
     21 O2         -0.8186    3.4800    1.2104 O.3       1 <0>        -0.5636
     22 O3         -1.0642   -0.5149   -0.8005 O.3       1 <0>        -0.5402
     23 O4          1.1932   -1.0974   -1.8317 O.3       1 <0>        -0.5262
     24 N5          8.0557    0.4104   -0.9322 N.pl3     1 <0>        -0.7427
     25 H5          5.3789   -1.8647   -4.7786 H         1 <0>         0.0887
     26 H6          4.6360   -0.3388   -5.3151 H         1 <0>         0.0879
     27 H7          6.4071   -0.5155   -5.3178 H         1 <0>         0.0883
     28 H8          3.5939    1.7133    1.3696 H         1 <0>         0.2261
     29 H9         -1.6997    1.6169    1.3558 H         1 <0>         0.0675
     30 H10        -0.1148    1.7795    2.1493 H         1 <0>         0.0617
     31 H11        -1.2456    3.8769    1.9819 H         1 <0>         0.3872
     32 H12        -1.9453   -0.2710   -0.4854 H         1 <0>         0.3886
     33 H13         0.7383   -1.9425   -1.7128 H         1 <0>         0.3915
     34 H14         8.2212    1.3637   -0.6797 H         1 <0>         0.3698
     35 H15         8.8590    0.1518   -1.4105 H         1 <0>         0.3735
@<TRIPOS>BOND
     1    1    2 1
     2    1   25 1
     3    1   26 1
     4    1   27 1
     5    2    7 ar
     6    2    3 ar
     7    3    4 ar
     8    4    5 ar
     9    4   24 1
    10    5   10 1
    11    5    6 ar
    12    6    7 ar
    13    6    8 1
    14    8    9 1
    15    8   11 1
    16    9   10 2
    17    9   28 1
    18   11   12 1
    19   11   19 1
    20   11   13 1
    21   13   14 1
    22   13   15 1
    23   13   23 1
    24   15   16 1
    25   15   17 1
    26   15   22 1
    27   17   18 1
    28   17   19 1
    29   17   20 1
    30   20   21 1
    31   20   29 1
    32   20   30 1
    33   21   31 1
    34   22   32 1
    35   23   33 1
    36   24   34 1
    37   24   35 1
