@<TRIPOS>MOLECULE
ZINC00289991
   40    42     0     0     0
SMALL
USER_CHARGES
N-benzyl-N-(2-furylmethyleneamino)-1-phenyl-methanamine
@<TRIPOS>ATOM
      1 C1         -2.8116   -6.1157    3.7013 C.ar      1 <0>        -0.1162
      2 C2         -3.8185   -5.9884    2.7627 C.ar      1 <0>        -0.1185
      3 C3         -3.5405   -5.4518    1.5194 C.ar      1 <0>        -0.1058
      4 C4         -2.2557   -5.0430    1.2146 C.ar      1 <0>        -0.1091
      5 C5         -1.2477   -5.1756    2.1512 C.ar      1 <0>        -0.1087
      6 C6         -1.5267   -5.7073    3.3963 C.ar      1 <0>        -0.1168
      7 C7         -1.9526   -4.4586   -0.1410 C.3       1 <0>         0.1365
      8 N1         -2.1422   -3.0065   -0.1002 N.pl3     1 <0>        -0.5179
      9 C8         -3.4605   -2.4317   -0.3799 C.3       1 <0>         0.1980
     10 C9         -3.5995   -2.1910   -1.8610 C.ar      1 <0>        -0.1107
     11 C10        -3.2177   -0.9780   -2.4029 C.ar      1 <0>        -0.0948
     12 C11        -3.3407   -0.7589   -3.7623 C.ar      1 <0>        -0.1219
     13 C12        -3.8549   -1.7492   -4.5782 C.ar      1 <0>        -0.1161
     14 C13        -4.2420   -2.9602   -4.0355 C.ar      1 <0>        -0.1230
     15 C14        -4.1141   -3.1811   -2.6769 C.ar      1 <0>        -0.1083
     16 N2         -1.0630   -2.1674    0.2063 N.2       1 <0>        -0.1927
     17 C15         0.1251   -2.6697    0.3692 C.2       1 <0>         0.0683
     18 C16         1.2744   -1.7821    0.5784 C.2       1 <0>         0.0417
     19 C17         2.5676   -2.1754    0.7615 C.2       1 <0>        -0.1836
     20 C18         3.3289   -1.0019    0.9226 C.2       1 <0>        -0.2128
     21 C19         2.4768    0.0386    0.8316 C.2       1 <0>        -0.0320
     22 O1          1.2369   -0.4355    0.6238 O.3       1 <0>        -0.1626
     23 H1         -3.0288   -6.5345    4.6728 H         1 <0>         0.1228
     24 H2         -4.8223   -6.3078    3.0009 H         1 <0>         0.1234
     25 H3         -4.3272   -5.3524    0.7861 H         1 <0>         0.1204
     26 H4         -0.2429   -4.8603    1.9114 H         1 <0>         0.1183
     27 H5         -0.7400   -5.8071    4.1295 H         1 <0>         0.1233
     28 H6         -2.6243   -4.8920   -0.8820 H         1 <0>         0.0900
     29 H7         -0.9206   -4.6828   -0.4109 H         1 <0>         0.0819
     30 H8         -4.2357   -3.1232   -0.0498 H         1 <0>         0.0847
     31 H9         -3.5654   -1.4868    0.1532 H         1 <0>         0.0886
     32 H10        -2.8198   -0.2028   -1.7649 H         1 <0>         0.1227
     33 H11        -3.0386    0.1874   -4.1863 H         1 <0>         0.1219
     34 H12        -3.9545   -1.5767   -5.6397 H         1 <0>         0.1213
     35 H13        -4.6441   -3.7338   -4.6729 H         1 <0>         0.1217
     36 H14        -4.4166   -4.1273   -2.2529 H         1 <0>         0.1186
     37 H15         0.2659   -3.7403    0.3505 H         1 <0>         0.1398
     38 H16         2.9357   -3.1906    0.7833 H         1 <0>         0.1520
     39 H17         4.3946   -0.9460    1.0882 H         1 <0>         0.1516
     40 H18         2.7462    1.0813    0.9125 H         1 <0>         0.2040
@<TRIPOS>BOND
     1    1    6 ar
     2    1    2 ar
     3    1   23 1
     4    2    3 ar
     5    2   24 1
     6    3    4 ar
     7    3   25 1
     8    4    5 ar
     9    4    7 1
    10    5    6 ar
    11    5   26 1
    12    6   27 1
    13    7    8 1
    14    7   28 1
    15    7   29 1
    16    8    9 1
    17    8   16 1
    18    9   10 1
    19    9   30 1
    20    9   31 1
    21   10   15 ar
    22   10   11 ar
    23   11   12 ar
    24   11   32 1
    25   12   13 ar
    26   12   33 1
    27   13   14 ar
    28   13   34 1
    29   14   15 ar
    30   14   35 1
    31   15   36 1
    32   16   17 2
    33   17   18 1
    34   17   37 1
    35   18   22 1
    36   18   19 2
    37   19   20 1
    38   19   38 1
    39   20   21 2
    40   20   39 1
    41   21   22 1
    42   21   40 1
@<TRIPOS>MOLECULE
ZINC01702014
   43    45     0     0     0
SMALL
USER_CHARGES
N-benzyl-N-benzylideneamino-1-phenyl-methanamine
@<TRIPOS>ATOM
      1 C1         -3.1465   -4.4835   -3.6996 C.ar      1 <0>        -0.1171
      2 C2         -2.4328   -5.2061   -2.7619 C.ar      1 <0>        -0.1188
      3 C3         -2.1772   -4.6611   -1.5175 C.ar      1 <0>        -0.1067
      4 C4         -2.6357   -3.3936   -1.2107 C.ar      1 <0>        -0.1073
      5 C5         -3.3544   -2.6732   -2.1465 C.ar      1 <0>        -0.1083
      6 C6         -3.6054   -3.2162   -3.3927 C.ar      1 <0>        -0.1173
      7 C7         -2.3575   -2.7995    0.1460 C.3       1 <0>         0.1383
      8 N1         -1.0903   -2.0654    0.1071 N.pl3     1 <0>        -0.5226
      9 C8          0.1682   -2.7612    0.3866 C.3       1 <0>         0.1993
     10 C9          0.4432   -2.7266    1.8679 C.ar      1 <0>        -0.1093
     11 C10         1.1725   -1.6856    2.4114 C.ar      1 <0>        -0.0953
     12 C11         1.4205   -1.6514    3.7709 C.ar      1 <0>        -0.1219
     13 C12         0.9478   -2.6633    4.5854 C.ar      1 <0>        -0.1168
     14 C13         0.2234   -3.7072    4.0411 C.ar      1 <0>        -0.1227
     15 C14        -0.0291   -3.7388    2.6824 C.ar      1 <0>        -0.1088
     16 N2         -1.0821   -0.6979   -0.1973 N.2       1 <0>        -0.2071
     17 C15        -2.2016   -0.0628   -0.3601 C.2       1 <0>         0.0462
     18 C16        -2.1977    1.3974   -0.5681 C.ar      1 <0>        -0.0346
     19 C17        -0.9908    2.1005   -0.5848 C.ar      1 <0>        -0.0912
     20 C18        -0.9943    3.4652   -0.7851 C.ar      1 <0>        -0.1223
     21 C19        -2.1902    4.1394   -0.9579 C.ar      1 <0>        -0.1151
     22 C20        -3.3898    3.4501   -0.9373 C.ar      1 <0>        -0.1206
     23 C21        -3.4011    2.0845   -0.7437 C.ar      1 <0>        -0.1027
     24 H1         -3.3458   -4.9092   -4.6720 H         1 <0>         0.1224
     25 H2         -2.0745   -6.1964   -3.0016 H         1 <0>         0.1229
     26 H3         -1.6196   -5.2256   -0.7849 H         1 <0>         0.1198
     27 H4         -3.7164   -1.6848   -1.9052 H         1 <0>         0.1181
     28 H5         -4.1633   -2.6518   -4.1252 H         1 <0>         0.1227
     29 H6         -2.2925   -3.5975    0.8857 H         1 <0>         0.0869
     30 H7         -3.1641   -2.1181    0.4166 H         1 <0>         0.0807
     31 H8          0.0921   -3.7969    0.0553 H         1 <0>         0.0823
     32 H9          0.9818   -2.2683   -0.1456 H         1 <0>         0.0870
     33 H10         1.5452   -0.8972    1.7744 H         1 <0>         0.1221
     34 H11         1.9868   -0.8359    4.1961 H         1 <0>         0.1216
     35 H12         1.1448   -2.6384    5.6470 H         1 <0>         0.1210
     36 H13        -0.1456   -4.4980    4.6774 H         1 <0>         0.1213
     37 H14        -0.5951   -4.5544    2.2571 H         1 <0>         0.1180
     38 H15        -3.1365   -0.6033   -0.3432 H         1 <0>         0.1139
     39 H16        -0.0569    1.5762   -0.4456 H         1 <0>         0.1291
     40 H17        -0.0616    4.0095   -0.8027 H         1 <0>         0.1231
     41 H18        -2.1873    5.2086   -1.1099 H         1 <0>         0.1220
     42 H19        -4.3195    3.9826   -1.0735 H         1 <0>         0.1244
     43 H20        -4.3381    1.5476   -0.7282 H         1 <0>         0.1237
@<TRIPOS>BOND
     1    1    6 ar
     2    1    2 ar
     3    1   24 1
     4    2    3 ar
     5    2   25 1
     6    3    4 ar
     7    3   26 1
     8    4    5 ar
     9    4    7 1
    10    5    6 ar
    11    5   27 1
    12    6   28 1
    13    7    8 1
    14    7   29 1
    15    7   30 1
    16    8    9 1
    17    8   16 1
    18    9   10 1
    19    9   31 1
    20    9   32 1
    21   10   15 ar
    22   10   11 ar
    23   11   12 ar
    24   11   33 1
    25   12   13 ar
    26   12   34 1
    27   13   14 ar
    28   13   35 1
    29   14   15 ar
    30   14   36 1
    31   15   37 1
    32   16   17 2
    33   17   18 1
    34   17   38 1
    35   18   23 ar
    36   18   19 ar
    37   19   20 ar
    38   19   39 1
    39   20   21 ar
    40   20   40 1
    41   21   22 ar
    42   21   41 1
    43   22   23 ar
    44   22   42 1
    45   23   43 1
@<TRIPOS>MOLECULE
ZINC13528595
   42    44     0     0     0
SMALL
USER_CHARGES
N-benzyl-1-phenyl-N-(2-pyridylmethyleneamino)methanamine
@<TRIPOS>ATOM
      1 C1         -6.6369    5.4112    3.8758 C.ar      1 <0>        -0.1168
      2 C2         -6.9253    6.3909    2.9442 C.ar      1 <0>        -0.1186
      3 C3         -6.3700    6.3274    1.6799 C.ar      1 <0>        -0.1060
      4 C4         -5.5266    5.2840    1.3471 C.ar      1 <0>        -0.1075
      5 C5         -5.2427    4.3012    2.2769 C.ar      1 <0>        -0.1086
      6 C6         -5.7939    4.3675    3.5429 C.ar      1 <0>        -0.1173
      7 C7         -4.9215    5.2145   -0.0313 C.3       1 <0>         0.1351
      8 N1         -3.6419    5.9279   -0.0395 N.pl3     1 <0>        -0.5198
      9 C8         -3.6061    7.3646   -0.3238 C.3       1 <0>         0.1976
     10 C9         -3.5714    7.5808   -1.8148 C.ar      1 <0>        -0.1099
     11 C10        -2.3587    7.6606   -2.4736 C.ar      1 <0>        -0.0938
     12 C11        -2.3269    7.8542   -3.8420 C.ar      1 <0>        -0.1220
     13 C12        -3.5077    7.9779   -4.5501 C.ar      1 <0>        -0.1165
     14 C13        -4.7202    7.9039   -3.8905 C.ar      1 <0>        -0.1235
     15 C14        -4.7521    7.7051   -2.5229 C.ar      1 <0>        -0.1089
     16 N2         -2.4526    5.2362    0.2246 N.2       1 <0>        -0.1604
     17 C15        -2.4738    3.9492    0.3926 C.2       1 <0>         0.0299
     18 C16        -1.2113    3.2058    0.5509 C.ar      1 <0>         0.1827
     19 C17        -1.2396    1.8199    0.7261 C.ar      1 <0>        -0.1563
     20 C18        -0.0464    1.1380    0.8783 C.ar      1 <0>        -0.0732
     21 C19         1.1397    1.8595    0.8405 C.ar      1 <0>        -0.1743
     22 C20         1.0963    3.2292    0.6586 C.ar      1 <0>         0.1026
     23 N3         -0.0532    3.8580    0.5208 N.ar      1 <0>        -0.4596
     24 H1         -7.0705    5.4610    4.8637 H         1 <0>         0.1224
     25 H2         -7.5843    7.2061    3.2042 H         1 <0>         0.1231
     26 H3         -6.5953    7.0928    0.9521 H         1 <0>         0.1203
     27 H4         -4.5872    3.4836    2.0154 H         1 <0>         0.1180
     28 H5         -5.5688    3.6019    4.2706 H         1 <0>         0.1226
     29 H6         -5.5993    5.6760   -0.7494 H         1 <0>         0.0888
     30 H7         -4.7579    4.1720   -0.3042 H         1 <0>         0.0816
     31 H8         -4.4949    7.8395    0.0916 H         1 <0>         0.0821
     32 H9         -2.7157    7.8022    0.1276 H         1 <0>         0.0908
     33 H10        -1.4362    7.5680   -1.9198 H         1 <0>         0.1239
     34 H11        -1.3796    7.9124   -4.3573 H         1 <0>         0.1216
     35 H12        -3.4828    8.1329   -5.6187 H         1 <0>         0.1209
     36 H13        -5.6427    8.0009   -4.4437 H         1 <0>         0.1213
     37 H14        -5.6994    7.6472   -2.0076 H         1 <0>         0.1183
     38 H15        -3.4168    3.4232    0.4164 H         1 <0>         0.1237
     39 H16        -2.1801    1.2894    0.7463 H         1 <0>         0.1363
     40 H17        -0.0368    0.0673    1.0190 H         1 <0>         0.1370
     41 H18         2.0879    1.3548    0.9527 H         1 <0>         0.1354
     42 H19         2.0177    3.7918    0.6293 H         1 <0>         0.1570
@<TRIPOS>BOND
     1    1    6 ar
     2    1    2 ar
     3    1   24 1
     4    2    3 ar
     5    2   25 1
     6    3    4 ar
     7    3   26 1
     8    4    5 ar
     9    4    7 1
    10    5    6 ar
    11    5   27 1
    12    6   28 1
    13    7    8 1
    14    7   29 1
    15    7   30 1
    16    8    9 1
    17    8   16 1
    18    9   10 1
    19    9   31 1
    20    9   32 1
    21   10   15 ar
    22   10   11 ar
    23   11   12 ar
    24   11   33 1
    25   12   13 ar
    26   12   34 1
    27   13   14 ar
    28   13   35 1
    29   14   15 ar
    30   14   36 1
    31   15   37 1
    32   16   17 2
    33   17   18 1
    34   17   38 1
    35   18   23 ar
    36   18   19 ar
    37   19   20 ar
    38   19   39 1
    39   20   21 ar
    40   20   40 1
    41   21   22 ar
    42   21   41 1
    43   22   23 ar
    44   22   42 1
@<TRIPOS>MOLECULE
ZINC02007954
   43    45     0     0     0
SMALL
USER_CHARGES

@<TRIPOS>ATOM
      1 C1          3.6199   -0.9154    0.8392 C.ar      1 <0>        -0.1165
      2 C2          2.4246   -1.6096    0.8578 C.ar      1 <0>        -0.1191
      3 C3          1.2399   -0.9537    0.5803 C.ar      1 <0>        -0.1055
      4 C4          1.2504    0.3964    0.2837 C.ar      1 <0>        -0.1063
      5 C5          2.4463    1.0895    0.2595 C.ar      1 <0>        -0.1067
      6 C6          3.6304    0.4347    0.5421 C.ar      1 <0>        -0.1175
      7 C7         -0.0411    1.1114   -0.0193 C.3       1 <0>         0.1391
      8 N1         -0.6714    1.5333    1.2341 N.pl3     1 <0>        -0.5205
      9 C8         -1.6087    0.6401    1.9196 C.3       1 <0>         0.1982
     10 C9         -2.9980    0.8588    1.3782 C.ar      1 <0>        -0.1126
     11 C10        -3.7906    1.8665    1.8952 C.ar      1 <0>        -0.0955
     12 C11        -5.0632    2.0701    1.3954 C.ar      1 <0>        -0.1220
     13 C12        -5.5470    1.2596    0.3854 C.ar      1 <0>        -0.1162
     14 C13        -4.7565    0.2483   -0.1276 C.ar      1 <0>        -0.1225
     15 C14        -3.4820    0.0480    0.3686 C.ar      1 <0>        -0.1090
     16 N2         -0.3777    2.7909    1.7772 N.2       1 <0>        -0.2026
     17 C15         0.3781    3.6191    1.1243 C.2       1 <0>         0.0425
     18 C16         0.7830    4.8942    1.7451 C.ar      1 <0>        -0.0265
     19 C17         0.3497    5.2159    3.0335 C.ar      1 <0>        -0.0800
     20 C18         0.7363    6.4075    3.6103 C.ar      1 <0>        -0.1110
     21 C19         1.5435    7.2890    2.9109 C.ar      1 <0>        -0.0315
     22 C20         1.9718    6.9787    1.6311 C.ar      1 <0>        -0.1097
     23 C21         1.5967    5.7880    1.0449 C.ar      1 <0>        -0.0907
     24 Cl1         2.0201    8.7899    3.6416 Cl        1 <0>        -0.0698
     25 H1          4.5454   -1.4278    1.0563 H         1 <0>         0.1223
     26 H2          2.4164   -2.6645    1.0895 H         1 <0>         0.1227
     27 H3          0.3061   -1.4961    0.5948 H         1 <0>         0.1192
     28 H4          2.4550    2.1433    0.0234 H         1 <0>         0.1183
     29 H5          4.5643    0.9770    0.5272 H         1 <0>         0.1227
     30 H6          0.1641    1.9868   -0.6354 H         1 <0>         0.0797
     31 H7         -0.7115    0.4392   -0.5549 H         1 <0>         0.0875
     32 H8         -1.3123   -0.3954    1.7521 H         1 <0>         0.0837
     33 H9         -1.5976    0.8529    2.9885 H         1 <0>         0.0888
     34 H10        -3.4141    2.4971    2.6871 H         1 <0>         0.1221
     35 H11        -5.6809    2.8600    1.7965 H         1 <0>         0.1216
     36 H12        -6.5426    1.4163   -0.0025 H         1 <0>         0.1213
     37 H13        -5.1346   -0.3852   -0.9164 H         1 <0>         0.1217
     38 H14        -2.8644   -0.7422   -0.0322 H         1 <0>         0.1189
     39 H15         0.7108    3.3746    0.1264 H         1 <0>         0.1162
     40 H16        -0.2836    4.5313    3.5782 H         1 <0>         0.1392
     41 H17         0.4053    6.6556    4.6080 H         1 <0>         0.1349
     42 H18         2.6006    7.6708    1.0907 H         1 <0>         0.1361
     43 H19         1.9311    5.5473    0.0466 H         1 <0>         0.1345
@<TRIPOS>BOND
     1    1    6 ar
     2    1    2 ar
     3    1   25 1
     4    2    3 ar
     5    2   26 1
     6    3    4 ar
     7    3   27 1
     8    4    5 ar
     9    4    7 1
    10    5    6 ar
    11    5   28 1
    12    6   29 1
    13    7    8 1
    14    7   30 1
    15    7   31 1
    16    8    9 1
    17    8   16 1
    18    9   10 1
    19    9   32 1
    20    9   33 1
    21   10   15 ar
    22   10   11 ar
    23   11   12 ar
    24   11   34 1
    25   12   13 ar
    26   12   35 1
    27   13   14 ar
    28   13   36 1
    29   14   15 ar
    30   14   37 1
    31   15   38 1
    32   16   17 2
    33   17   18 1
    34   17   39 1
    35   18   23 ar
    36   18   19 ar
    37   19   20 ar
    38   19   40 1
    39   20   21 ar
    40   20   41 1
    41   21   22 ar
    42   21   24 1
    43   22   23 ar
    44   22   42 1
    45   23   43 1
@<TRIPOS>MOLECULE
ZINC01883739
   44    46     0     0     0
SMALL
USER_CHARGES
4-(dibenzylaminoiminomethyl)phenol
@<TRIPOS>ATOM
      1 C1          4.1032    0.1045    0.5543 C.ar      1 <0>        -0.1166
      2 C2          3.0754   -0.8196    0.5762 C.ar      1 <0>        -0.1223
      3 C3          1.7762   -0.4143    0.3338 C.ar      1 <0>        -0.0946
      4 C4          1.5050    0.9150    0.0691 C.ar      1 <0>        -0.1109
      5 C5          2.5335    1.8382    0.0415 C.ar      1 <0>        -0.1095
      6 C6          3.8320    1.4338    0.2891 C.ar      1 <0>        -0.1228
      7 C7          0.0887    1.3568   -0.1956 C.3       1 <0>         0.1990
      8 N1         -0.5949    1.5944    1.0781 N.pl3     1 <0>        -0.5220
      9 C8         -0.4973    2.9033    1.7289 C.3       1 <0>         0.1388
     10 C9         -1.5802    3.8087    1.2010 C.ar      1 <0>        -0.1068
     11 C10        -1.3611    4.5549    0.0582 C.ar      1 <0>        -0.1064
     12 C11        -2.3562    5.3817   -0.4287 C.ar      1 <0>        -0.1187
     13 C12        -3.5668    5.4700    0.2329 C.ar      1 <0>        -0.1170
     14 C13        -3.7838    4.7281    1.3789 C.ar      1 <0>        -0.1173
     15 C14        -2.7906    3.8973    1.8629 C.ar      1 <0>        -0.1082
     16 N2         -1.3419    0.5698    1.6740 N.2       1 <0>        -0.2074
     17 C15        -1.9473    0.7802    2.8021 C.2       1 <0>         0.0465
     18 C16        -2.7337   -0.2983    3.4293 C.ar      1 <0>        -0.0422
     19 C17        -2.8330   -1.5455    2.8076 C.ar      1 <0>        -0.0744
     20 C18        -3.5654   -2.5519    3.3997 C.ar      1 <0>        -0.1467
     21 C19        -4.2126   -2.3245    4.6071 C.ar      1 <0>         0.1095
     22 C20        -4.1207   -1.0849    5.2262 C.ar      1 <0>        -0.1451
     23 C21        -3.3865   -0.0741    4.6440 C.ar      1 <0>        -0.0853
     24 O1         -4.9382   -3.3178    5.1843 O.3       1 <0>        -0.5004
     25 H1          5.1182   -0.2121    0.7441 H         1 <0>         0.1210
     26 H2          3.2874   -1.8582    0.7831 H         1 <0>         0.1215
     27 H3          0.9732   -1.1363    0.3509 H         1 <0>         0.1223
     28 H4          2.3221    2.8760   -0.1697 H         1 <0>         0.1187
     29 H5          4.6351    2.1557    0.2716 H         1 <0>         0.1215
     30 H6          0.0983    2.2769   -0.7799 H         1 <0>         0.0822
     31 H7         -0.4367    0.5795   -0.7505 H         1 <0>         0.0881
     32 H8         -0.6167    2.7835    2.8057 H         1 <0>         0.0808
     33 H9          0.4779    3.3421    1.5180 H         1 <0>         0.0868
     34 H10        -0.4139    4.4891   -0.4564 H         1 <0>         0.1195
     35 H11        -2.1865    5.9616   -1.3239 H         1 <0>         0.1228
     36 H12        -4.3428    6.1188   -0.1454 H         1 <0>         0.1223
     37 H13        -4.7294    4.7973    1.8960 H         1 <0>         0.1227
     38 H14        -2.9602    3.3176    2.7582 H         1 <0>         0.1185
     39 H15        -1.8754    1.7451    3.2818 H         1 <0>         0.1150
     40 H16        -2.3334   -1.7220    1.8665 H         1 <0>         0.1344
     41 H17        -3.6393   -3.5177    2.9219 H         1 <0>         0.1300
     42 H18        -4.6256   -0.9124    6.1652 H         1 <0>         0.1313
     43 H19        -3.3162    0.8899    5.1258 H         1 <0>         0.1294
     44 H20        -5.8668   -3.3340    4.9149 H         1 <0>         0.3918
@<TRIPOS>BOND
     1    1    6 ar
     2    1    2 ar
     3    1   25 1
     4    2    3 ar
     5    2   26 1
     6    3    4 ar
     7    3   27 1
     8    4    5 ar
     9    4    7 1
    10    5    6 ar
    11    5   28 1
    12    6   29 1
    13    7    8 1
    14    7   30 1
    15    7   31 1
    16    8    9 1
    17    8   16 1
    18    9   10 1
    19    9   32 1
    20    9   33 1
    21   10   15 ar
    22   10   11 ar
    23   11   12 ar
    24   11   34 1
    25   12   13 ar
    26   12   35 1
    27   13   14 ar
    28   13   36 1
    29   14   15 ar
    30   14   37 1
    31   15   38 1
    32   16   17 2
    33   17   18 1
    34   17   39 1
    35   18   23 ar
    36   18   19 ar
    37   19   20 ar
    38   19   40 1
    39   20   21 ar
    40   20   41 1
    41   21   22 ar
    42   21   24 1
    43   22   23 ar
    44   22   42 1
    45   23   43 1
    46   24   44 1
