@<TRIPOS>MOLECULE
ZINC03861661
   51    54     0     0     0
SMALL
USER_CHARGES

@<TRIPOS>ATOM
      1 C1          0.0008    1.5258    0.0212 C.3       1 <0>        -0.1532
      2 C2          0.0228   -0.0040    0.0134 C.3       1 <0>        -0.0462
      3 C3         -1.4120   -0.5354    0.0326 C.3       1 <0>        -0.1091
      4 C4         -2.1211   -0.0467    1.2971 C.3       1 <0>        -0.1536
      5 C5         -1.3727   -0.5559    2.5307 C.3       1 <0>         0.1049
      6 H1         -1.3555   -1.6457    2.5211 H         1 <0>         0.0519
      7 C6          0.0613   -0.0228    2.5122 C.3       1 <0>        -0.1094
      8 C7          0.7701   -0.5102    1.2491 C.3       1 <0>        -0.0712
      9 H2          0.7878   -1.6000    1.2414 H         1 <0>         0.0701
     10 C8          2.2046    0.0211    1.2325 C.3       1 <0>        -0.1157
     11 C9          2.9157   -0.4668   -0.0314 C.3       1 <0>        -0.1130
     12 C10         2.1706    0.0454   -1.2648 C.3       1 <0>        -0.0752
     13 H3          2.1526    1.1353   -1.2579 H         1 <0>         0.0859
     14 C11         0.7334   -0.4977   -1.2475 C.3       1 <0>        -0.0687
     15 H4          0.7685   -1.5870   -1.2284 H         1 <0>         0.0668
     16 C12        -0.0433   -0.0661   -2.4868 C.3       1 <0>        -0.1199
     17 C13         0.6921   -0.4679   -3.7764 C.3       1 <0>        -0.0972
     18 C14         2.0689    0.1634   -3.7269 C.3       1 <0>        -0.1245
     19 C15         2.8458   -0.4483   -2.5312 C.3       1 <0>        -0.0785
     20 H5          2.8101   -1.5365   -2.5838 H         1 <0>         0.0801
     21 C16         4.2661    0.0771   -2.7756 C.3       1 <0>        -0.1112
     22 C17         4.4122   -0.0523   -4.3164 C.3       1 <0>        -0.1800
     23 C18         2.9753   -0.0894   -4.8949 C.2       1 <0>         0.3772
     24 O1          2.6502   -0.2438   -6.0477 O.2       1 <0>        -0.4379
     25 C19         1.9355    1.6700   -3.4964 C.3       1 <0>        -0.1438
     26 O2         -2.0355   -0.1002    3.7118 O.3       1 <0>        -0.5698
     27 H6          1.0230    1.9040    0.0077 H         1 <0>         0.0614
     28 H7         -0.5315    1.8860   -0.8591 H         1 <0>         0.0561
     29 H8         -0.5047    1.8774    0.9207 H         1 <0>         0.0606
     30 H9         -1.9454   -0.1727   -0.8461 H         1 <0>         0.0696
     31 H10        -1.3959   -1.6252    0.0234 H         1 <0>         0.0622
     32 H11        -2.1375    1.0431    1.3063 H         1 <0>         0.0741
     33 H12        -3.1430   -0.4256    1.3100 H         1 <0>         0.0619
     34 H13         0.0440    1.0671    2.5206 H         1 <0>         0.0731
     35 H14         0.5948   -0.3845    3.3913 H         1 <0>         0.0675
     36 H15         2.1884    1.1109    1.2424 H         1 <0>         0.0668
     37 H16         2.7366   -0.3421    2.1118 H         1 <0>         0.0627
     38 H17         3.9382   -0.0893   -0.0417 H         1 <0>         0.0649
     39 H18         2.9305   -1.5567   -0.0423 H         1 <0>         0.0616
     40 H19        -1.0257   -0.5381   -2.4745 H         1 <0>         0.0663
     41 H20        -0.1687    1.0166   -2.4701 H         1 <0>         0.0712
     42 H21         0.7835   -1.5528   -3.8284 H         1 <0>         0.0650
     43 H22         0.1463   -0.0989   -4.6448 H         1 <0>         0.0696
     44 H23         4.3524    1.1182   -2.4646 H         1 <0>         0.0781
     45 H24         5.0017   -0.5433   -2.2635 H         1 <0>         0.0776
     46 H25         4.9795    0.7913   -4.7097 H         1 <0>         0.0984
     47 H26         4.9121   -0.9880   -4.5668 H         1 <0>         0.0925
     48 H27         1.3394    1.8493   -2.6016 H         1 <0>         0.0822
     49 H28         2.9257    2.1068   -3.3669 H         1 <0>         0.0628
     50 H29         1.4464    2.1273   -4.3565 H         1 <0>         0.0574
     51 H30        -2.9514   -0.4005    3.7896 H         1 <0>         0.3776
@<TRIPOS>BOND
     1    1    2 1
     2    1   27 1
     3    1   28 1
     4    1   29 1
     5    2    8 1
     6    2   14 1
     7    2    3 1
     8    3    4 1
     9    3   30 1
    10    3   31 1
    11    4    5 1
    12    4   32 1
    13    4   33 1
    14    5    6 1
    15    5    7 1
    16    5   26 1
    17    7    8 1
    18    7   34 1
    19    7   35 1
    20    8    9 1
    21    8   10 1
    22   10   11 1
    23   10   36 1
    24   10   37 1
    25   11   12 1
    26   11   38 1
    27   11   39 1
    28   12   13 1
    29   12   19 1
    30   12   14 1
    31   14   15 1
    32   14   16 1
    33   16   17 1
    34   16   40 1
    35   16   41 1
    36   17   18 1
    37   17   42 1
    38   17   43 1
    39   18   23 1
    40   18   19 1
    41   18   25 1
    42   19   20 1
    43   19   21 1
    44   21   22 1
    45   21   44 1
    46   21   45 1
    47   22   23 1
    48   22   46 1
    49   22   47 1
    50   23   24 2
    51   25   48 1
    52   25   49 1
    53   25   50 1
    54   26   51 1
@<TRIPOS>MOLECULE
ZINC03807917
   49    52     0     0     0
SMALL
USER_CHARGES

@<TRIPOS>ATOM
      1 C1         -0.0187    1.5258    0.0104 C.3       1 <0>        -0.1420
      2 C2          0.0021   -0.0041    0.0020 C.3       1 <0>        -0.1246
      3 C3         -1.4163   -0.5350    0.0756 C.3       1 <0>        -0.0982
      4 C4         -2.0764    0.1074    1.3055 C.3       1 <0>        -0.1207
      5 C5         -1.2977   -0.1878    2.5844 C.3       1 <0>        -0.0675
      6 H1         -1.3420   -1.2602    2.7740 H         1 <0>         0.0683
      7 C6          0.1764    0.2220    2.4631 C.3       1 <0>        -0.0703
      8 H2          0.2586    1.3009    2.3311 H         1 <0>         0.0871
      9 C7          0.7518   -0.5240    1.2577 C.3       1 <0>        -0.0785
     10 H3          0.6134   -1.5994    1.3697 H         1 <0>         0.0838
     11 C8          2.2040   -0.1836    0.8989 C.3       1 <0>        -0.1120
     12 C9          2.2738   -0.5532   -0.6080 C.3       1 <0>        -0.1838
     13 C10         0.8451   -0.4923   -1.1387 C.2       1 <0>         0.3792
     14 O1          0.4693   -0.7791   -2.2500 O.2       1 <0>        -0.4388
     15 C11         0.8999   -0.2123    3.7427 C.3       1 <0>        -0.0835
     16 C12         0.2061    0.3862    4.9312 C.2       1 <0>        -0.1549
     17 C13        -1.0538    0.7104    4.9287 C.2       1 <0>        -0.1043
     18 C14        -1.9435    0.5327    3.7563 C.3       1 <0>        -0.0154
     19 C15        -3.2170   -0.2013    4.1855 C.3       1 <0>        -0.1039
     20 C16        -3.8458    0.5263    5.3756 C.3       1 <0>        -0.1183
     21 C17        -2.8844    0.4916    6.5651 C.3       1 <0>         0.1078
     22 H4         -2.6296   -0.5427    6.7962 H         1 <0>         0.0593
     23 C18        -1.6469    1.3019    6.1964 C.3       1 <0>        -0.1152
     24 O2         -3.5096    1.0931    7.7006 O.3       1 <0>        -0.5698
     25 C19        -2.3527    1.9312    3.2898 C.3       1 <0>        -0.1522
     26 H5          1.0039    1.9031    0.0027 H         1 <0>         0.0615
     27 H6         -0.5459    1.8868   -0.8726 H         1 <0>         0.0595
     28 H7         -0.5289    1.8773    0.9072 H         1 <0>         0.0810
     29 H8         -1.9633   -0.2593   -0.8260 H         1 <0>         0.0706
     30 H9         -1.4018   -1.6193    0.1855 H         1 <0>         0.0657
     31 H10        -2.1246    1.1865    1.1600 H         1 <0>         0.0767
     32 H11        -3.0895   -0.2814    1.4087 H         1 <0>         0.0659
     33 H12         2.4004    0.8784    1.0465 H         1 <0>         0.0780
     34 H13         2.8986   -0.7911    1.4791 H         1 <0>         0.0776
     35 H14         2.9004    0.1631   -1.1395 H         1 <0>         0.0980
     36 H15         2.6737   -1.5602   -0.7273 H         1 <0>         0.0973
     37 H16         0.8817   -1.2994    3.8200 H         1 <0>         0.0739
     38 H17         1.9330    0.1338    3.7120 H         1 <0>         0.0728
     39 H18         0.7793    0.5554    5.8308 H         1 <0>         0.1037
     40 H19        -3.9235   -0.2192    3.3557 H         1 <0>         0.0736
     41 H20        -2.9683   -1.2226    4.4738 H         1 <0>         0.0641
     42 H21        -4.0478    1.5620    5.1024 H         1 <0>         0.0743
     43 H22        -4.7795    0.0350    5.6492 H         1 <0>         0.0691
     44 H23        -0.9277    1.2192    7.0113 H         1 <0>         0.0664
     45 H24        -1.8957    2.3501    6.0308 H         1 <0>         0.0830
     46 H25        -2.9562    1.1059    8.4935 H         1 <0>         0.3781
     47 H26        -3.0607    1.8466    2.4654 H         1 <0>         0.0640
     48 H27        -2.8193    2.4678    4.1159 H         1 <0>         0.0589
     49 H28        -1.4694    2.4756    2.9557 H         1 <0>         0.0549
@<TRIPOS>BOND
     1    1    2 1
     2    1   26 1
     3    1   27 1
     4    1   28 1
     5    2    9 1
     6    2   13 1
     7    2    3 1
     8    3    4 1
     9    3   29 1
    10    3   30 1
    11    4    5 1
    12    4   31 1
    13    4   32 1
    14    5    6 1
    15    5   18 1
    16    5    7 1
    17    7    8 1
    18    7    9 1
    19    7   15 1
    20    9   10 1
    21    9   11 1
    22   11   12 1
    23   11   33 1
    24   11   34 1
    25   12   13 1
    26   12   35 1
    27   12   36 1
    28   13   14 2
    29   15   16 1
    30   15   37 1
    31   15   38 1
    32   16   17 2
    33   16   39 1
    34   17   23 1
    35   17   18 1
    36   18   19 1
    37   18   25 1
    38   19   20 1
    39   19   40 1
    40   19   41 1
    41   20   21 1
    42   20   42 1
    43   20   43 1
    44   21   22 1
    45   21   23 1
    46   21   24 1
    47   23   44 1
    48   23   45 1
    49   24   46 1
    50   25   47 1
    51   25   48 1
    52   25   49 1
