@<TRIPOS>MOLECULE
ZINC13742898
   20    19     0     0     0
SMALL
USER_CHARGES
[(1S)-3-amino-1-methyl-propyl]phosphinic acid
@<TRIPOS>ATOM
      1 C1          0.0111    1.0724    2.5063 C.3       1 <0>        -0.1249
      2 C2         -0.7288    1.5792    1.2668 C.3       1 <0>        -0.7181
      3 H1         -0.5594    2.6661    1.2710 H         1 <0>         0.0878
      4 C3         -0.0127    1.0858    0.0080 C.3       1 <0>        -0.1437
      5 C4         -0.7527    1.5927   -1.2315 C.3       1 <0>        -0.0272
      6 N1         -0.0651    1.1189   -2.4401 N.4       1 <0>        -0.6802
      7 P1         -2.4391    0.9482    1.2798 P.3       1 <0>         2.3882
      8 H2         -3.0035    0.9420    0.3357 H         1 <0>        -0.5199
      9 O1         -2.4320   -0.4889    1.6331 O.2       1 <0>        -1.1078
     10 O2         -3.3038    1.7637    2.3658 O.3       1 <0>        -1.1320
     11 H3         -0.5038    1.4272    3.4113 H         1 <0>         0.0746
     12 H4          1.0431    1.4531    2.4985 H         1 <0>         0.0379
     13 H5          0.0260   -0.0275    2.5003 H         1 <0>         0.0701
     14 H6          1.0193    1.4665    0.0002 H         1 <0>         0.0765
     15 H7          0.0022   -0.0141    0.0019 H         1 <0>         0.0924
     16 H8         -1.7847    1.2120   -1.2237 H         1 <0>         0.1236
     17 H9         -0.7676    2.6926   -1.2254 H         1 <0>         0.1333
     18 H10        -0.5971    1.4833   -3.3313 H         1 <0>         0.4572
     19 H11        -0.0502    0.0190   -2.4461 H         1 <0>         0.4585
     20 H12         0.9669    1.4996   -2.4479 H         1 <0>         0.4537
@<TRIPOS>BOND
     1    1    2 1
     2    1   11 1
     3    1   12 1
     4    1   13 1
     5    2    3 1
     6    2    4 1
     7    2    7 1
     8    4    5 1
     9    4   14 1
    10    4   15 1
    11    5    6 1
    12    5   16 1
    13    5   17 1
    14    6   18 1
    15    6   19 1
    16    6   20 1
    17    7    8 1
    18    7    9 2
    19    7   10 1
@<TRIPOS>MOLECULE
ZINC13742899
   20    19     0     0     0
SMALL
USER_CHARGES
[(1R)-3-amino-1-methyl-propyl]phosphinic acid
@<TRIPOS>ATOM
      1 C1         -1.5836    5.0170   -2.3025 C.3       1 <0>        -0.1529
      2 C2         -1.6710    3.4903   -2.2533 C.3       1 <0>        -0.7156
      3 H1         -2.7164    3.2836   -1.9807 H         1 <0>         0.1035
      4 C3         -0.8567    2.9708   -1.0667 C.3       1 <0>        -0.1401
      5 C4         -1.4995    3.4434    0.2389 C.3       1 <0>        -0.0031
      6 N1         -0.7925    2.8431    1.3781 N.4       1 <0>        -0.6851
      7 P1         -1.0036    2.7933   -3.7999 P.3       1 <0>         2.4104
      8 H2         -0.0194    3.1386   -4.1494 H         1 <0>        -0.5150
      9 O1         -0.7669    1.3428   -3.6256 O.2       1 <0>        -1.1197
     10 O2         -2.0598    3.0251   -4.9927 O.3       1 <0>        -1.1386
     11 H3         -2.1690    5.3905   -3.1556 H         1 <0>         0.0788
     12 H4         -0.5326    5.3205   -2.4180 H         1 <0>         0.0481
     13 H5         -1.9863    5.4376   -1.3692 H         1 <0>         0.0431
     14 H6         -0.8371    1.8712   -1.0888 H         1 <0>         0.1060
     15 H7          0.1713    3.3571   -1.1302 H         1 <0>         0.0724
     16 H8         -1.4349    4.5396    0.3036 H         1 <0>         0.1212
     17 H9         -2.5556    3.1365    0.2598 H         1 <0>         0.1253
     18 H10        -1.2546    3.1829    2.3167 H         1 <0>         0.4514
     19 H11         0.2636    3.1501    1.3572 H         1 <0>         0.4524
     20 H12        -0.8571    1.7469    1.3134 H         1 <0>         0.4576
@<TRIPOS>BOND
     1    1    2 1
     2    1   11 1
     3    1   12 1
     4    1   13 1
     5    2    3 1
     6    2    4 1
     7    2    7 1
     8    4    5 1
     9    4   14 1
    10    4   15 1
    11    5    6 1
    12    5   16 1
    13    5   17 1
    14    6   18 1
    15    6   19 1
    16    6   20 1
    17    7    8 1
    18    7    9 2
    19    7   10 1
@<TRIPOS>MOLECULE
ZINC13742902
   20    19     0     0     0
SMALL
USER_CHARGES
[(2S)-3-amino-2-methyl-propyl]phosphinic acid
@<TRIPOS>ATOM
      1 C1         -0.0187    1.5258    0.0104 C.3       1 <0>        -0.1807
      2 C2          0.0021   -0.0041    0.0020 C.3       1 <0>        -0.1082
      3 H1         -1.0298   -0.3849    0.0098 H         1 <0>         0.1069
      4 C3          0.7182   -0.4975   -1.2568 C.3       1 <0>         0.0053
      5 N1         -0.0570   -0.1128   -2.4438 N.4       1 <0>        -0.6865
      6 C4          0.7421   -0.5109    1.2415 C.3       1 <0>        -0.7629
      7 P1         -0.3240   -0.3166    2.7075 P.3       1 <0>         2.3968
      8 H2         -0.7225    0.6824    2.9380 H         1 <0>        -0.5144
      9 O1         -1.5668   -1.0982    2.5209 O.2       1 <0>        -1.1172
     10 O2          0.4547   -0.8499    4.0119 O.3       1 <0>        -1.1393
     11 H3         -0.5336    1.8805    0.9154 H         1 <0>         0.0789
     12 H4         -0.5508    1.8901   -0.8808 H         1 <0>         0.0582
     13 H5          1.0133    1.9066    0.0026 H         1 <0>         0.0716
     14 H6          1.7194   -0.0450   -1.3102 H         1 <0>         0.1218
     15 H7          0.8124   -1.5928   -1.2196 H         1 <0>         0.1281
     16 H8          0.4579   -0.4676   -3.3488 H         1 <0>         0.4521
     17 H9         -0.1512    0.9825   -2.4811 H         1 <0>         0.4486
     18 H10         0.9937   -1.5735    1.1093 H         1 <0>         0.1024
     19 H11         1.6658    0.0701    1.3802 H         1 <0>         0.0812
     20 H12        -1.0582   -0.5653   -2.3903 H         1 <0>         0.4572
@<TRIPOS>BOND
     1    1    2 1
     2    1   11 1
     3    1   12 1
     4    1   13 1
     5    2    3 1
     6    2    4 1
     7    2    6 1
     8    4    5 1
     9    4   14 1
    10    4   15 1
    11    5   16 1
    12    5   17 1
    13    5   20 1
    14    6    7 1
    15    6   18 1
    16    6   19 1
    17    7    8 1
    18    7    9 2
    19    7   10 1
@<TRIPOS>MOLECULE
ZINC13742903
   20    19     0     0     0
SMALL
USER_CHARGES
[(2R)-3-amino-2-methyl-propyl]phosphinic acid
@<TRIPOS>ATOM
      1 C1          3.3040    3.9614    1.3852 C.3       1 <0>        -0.1916
      2 C2          2.6712    4.0940   -0.0015 C.3       1 <0>        -0.0953
      3 H1          3.3044    3.5857   -0.7436 H         1 <0>         0.0758
      4 C3          2.5468    5.5748   -0.3657 C.3       1 <0>         0.0005
      5 N1          3.8872    6.1623   -0.4924 N.4       1 <0>        -0.6858
      6 C4          1.2821    3.4528    0.0083 C.3       1 <0>        -0.7637
      7 P1          1.4507    1.6376   -0.0030 P.3       1 <0>         2.3950
      8 H2          2.0322    1.1694   -0.8109 H         1 <0>        -0.5144
      9 O1          2.2025    1.2045    1.1960 O.2       1 <0>        -1.1092
     10 O2         -0.0110    0.9628    0.0073 O.3       1 <0>        -1.1385
     11 H3          3.3935    2.8968    1.6471 H         1 <0>         0.1348
     12 H4          2.6708    4.4696    2.1273 H         1 <0>         0.0659
     13 H5          4.3027    4.4225    1.3781 H         1 <0>         0.0407
     14 H6          2.0114    5.6736   -1.3215 H         1 <0>         0.1210
     15 H7          1.9890    6.1008    0.4231 H         1 <0>         0.1255
     16 H8          3.7976    7.2269   -0.7542 H         1 <0>         0.4513
     17 H9          4.4450    5.6363   -1.2812 H         1 <0>         0.4523
     18 H10         0.7405    3.7652    0.9133 H         1 <0>         0.1048
     19 H11         0.7233    3.7747   -0.8828 H         1 <0>         0.0779
     20 H12         4.4226    6.0635    0.4634 H         1 <0>         0.4530
@<TRIPOS>BOND
     1    1    2 1
     2    1   11 1
     3    1   12 1
     4    1   13 1
     5    2    3 1
     6    2    4 1
     7    2    6 1
     8    4    5 1
     9    4   14 1
    10    4   15 1
    11    5   16 1
    12    5   17 1
    13    5   20 1
    14    6    7 1
    15    6   18 1
    16    6   19 1
    17    7    8 1
    18    7    9 2
    19    7   10 1
@<TRIPOS>MOLECULE
ZINC26995305
   17    16     0     0     0
SMALL
USER_CHARGES
3-aminopropylphosphinic acid
@<TRIPOS>ATOM
      1 C1         -0.7527    1.5927   -1.2315 C.3       1 <0>        -0.1367
      2 C2         -0.0366    1.0992   -2.4903 C.3       1 <0>        -0.0003
      3 N1         -0.7471    1.5859   -3.6804 N.4       1 <0>        -0.6861
      4 C3         -0.0127    1.0858    0.0080 C.3       1 <0>        -0.7666
      5 P1         -0.8660    1.6737    1.5079 P.3       1 <0>         2.3960
      6 H1         -1.0272    2.7549    1.6304 H         1 <0>        -0.5137
      7 O1         -2.2545    1.1615    1.5184 O.2       1 <0>        -1.1170
      8 O2         -0.0873    1.1404    2.8122 O.3       1 <0>        -1.1383
      9 H2         -0.7675    2.6926   -1.2255 H         1 <0>         0.0727
     10 H3         -1.7847    1.2121   -1.2237 H         1 <0>         0.1002
     11 H4          0.9954    1.4799   -2.4981 H         1 <0>         0.1210
     12 H5         -0.0217   -0.0007   -2.4963 H         1 <0>         0.1261
     13 H6         -0.2323    1.2311   -4.5854 H         1 <0>         0.4522
     14 H7         -0.7619    2.6858   -3.6743 H         1 <0>         0.4526
     15 H8          0.0022   -0.0141    0.0019 H         1 <0>         0.1025
     16 H9          1.0193    1.4665    0.0002 H         1 <0>         0.0785
     17 H10        -1.7791    1.2052   -3.6725 H         1 <0>         0.4568
@<TRIPOS>BOND
     1    1    2 1
     2    1    4 1
     3    1    9 1
     4    1   10 1
     5    2    3 1
     6    2   11 1
     7    2   12 1
     8    3   13 1
     9    3   14 1
    10    3   17 1
    11    4    5 1
    12    4   15 1
    13    4   16 1
    14    5    6 1
    15    5    7 2
    16    5    8 1
@<TRIPOS>MOLECULE
ZINC20028798
   20    19     0     0     0
SMALL
USER_CHARGES

@<TRIPOS>ATOM
      1 C1         -0.0226    1.8187    0.0120 C.3       1 <0>        -0.7854
      2 P1          0.0021   -0.0041    0.0020 P.3       1 <0>         2.3258
      3 O1          0.7493   -0.5159    1.2537 O.2       1 <0>        -1.0765
      4 C2         -1.7082   -0.6351    0.0149 C.3       1 <0>        -0.7442
      5 C3         -1.6881   -2.1604    0.1323 C.3       1 <0>        -0.1258
      6 C4         -3.1235   -2.6900    0.1431 C.3       1 <0>        -0.0086
      7 N1         -3.1043   -4.1546    0.2558 N.4       1 <0>        -0.6368
      8 O2          0.7253   -0.5023   -1.2691 O.3       1 <0>        -1.0764
      9 H1          0.9999    2.1960    0.0043 H         1 <0>         0.0889
     10 H2         -0.5498    2.1798   -0.8710 H         1 <0>         0.0642
     11 H3         -0.5328    2.1703    0.9088 H         1 <0>         0.0639
     12 H4         -2.2450   -0.2123    0.8642 H         1 <0>         0.0792
     13 H5         -2.2082   -0.3484   -0.9102 H         1 <0>         0.0818
     14 H6         -1.1513   -2.5831   -0.7170 H         1 <0>         0.0978
     15 H7         -1.1881   -2.4471    1.0574 H         1 <0>         0.1004
     16 H8         -3.6604   -2.2673    0.9924 H         1 <0>         0.1251
     17 H9         -3.6236   -2.4033   -0.7820 H         1 <0>         0.1254
     18 H10        -2.6073   -4.5459   -0.5303 H         1 <0>         0.4356
     19 H11        -2.6414   -4.4199    1.1122 H         1 <0>         0.4356
     20 H12        -4.0509   -4.5038    0.2629 H         1 <0>         0.4302
@<TRIPOS>BOND
     1    1    2 1
     2    1    9 1
     3    1   10 1
     4    1   11 1
     5    2    3 2
     6    2    4 1
     7    2    8 1
     8    4    5 1
     9    4   12 1
    10    4   13 1
    11    5    6 1
    12    5   14 1
    13    5   15 1
    14    6    7 1
    15    6   16 1
    16    6   17 1
    17    7   18 1
    18    7   19 1
    19    7   20 1
@<TRIPOS>MOLECULE
ZINC13742933
   15    14     0     0     0
SMALL
USER_CHARGES
[(E)-3-aminoprop-1-enyl]phosphinic acid
@<TRIPOS>ATOM
      1 C1         -0.0127    1.0858    0.0080 C.3       1 <0>         0.0322
      2 C2         -0.7181    1.5718    1.2479 C.2       1 <0>        -0.2049
      3 C3         -1.1093    0.7142    2.1576 C.2       1 <0>        -0.6805
      4 P1         -1.9584    1.2992    3.6500 P.3       1 <0>         2.4063
      5 H1         -1.4552    2.0532    4.2730 H         1 <0>        -0.5086
      6 O1         -3.2013    2.0050    3.2659 O.2       1 <0>        -1.1095
      7 O2         -2.3229    0.0422    4.5877 O.3       1 <0>        -1.1316
      8 N1         -0.7232    1.5724   -1.1821 N.4       1 <0>        -0.6825
      9 H2          1.0193    1.4666    0.0002 H         1 <0>         0.1274
     10 H3          0.0023   -0.0141    0.0020 H         1 <0>         0.1227
     11 H4         -0.9045    2.6467    1.3890 H         1 <0>         0.1327
     12 H5         -0.9229   -0.3607    2.0165 H         1 <0>         0.1309
     13 H6         -0.2083    1.2177   -2.0871 H         1 <0>         0.4507
     14 H7         -0.7381    2.6723   -1.1760 H         1 <0>         0.4547
     15 H8         -1.7552    1.1916   -1.1743 H         1 <0>         0.4599
@<TRIPOS>BOND
     1    1    2 1
     2    1    8 1
     3    1    9 1
     4    1   10 1
     5    2    3 2
     6    2   11 1
     7    3    4 1
     8    3   12 1
     9    4    5 1
    10    4    6 2
    11    4    7 1
    12    8   13 1
    13    8   14 1
    14    8   15 1
@<TRIPOS>MOLECULE
ZINC13742954
   21    20     0     0     0
SMALL
USER_CHARGES
[(2S)-3-amino-2-hydroxy-propyl]-methyl-phosphinic acid
@<TRIPOS>ATOM
      1 C1          0.9122   -2.4246    1.4768 C.3       1 <0>        -0.7883
      2 P1          0.7515   -0.6101    1.5494 P.3       1 <0>         2.3262
      3 O1          2.0902   -0.0028    1.7202 O.2       1 <0>        -1.0448
      4 C2          0.0021   -0.0041    0.0020 C.3       1 <0>        -0.7432
      5 C3         -0.0187    1.5258    0.0104 C.3       1 <0>         0.1193
      6 H1         -0.4747    1.9135    0.9333 H         1 <0>         0.0911
      7 C4         -0.7587    2.0326   -1.2291 C.3       1 <0>        -0.0382
      8 N1         -0.7786    3.5014   -1.2210 N.4       1 <0>        -0.6841
      9 O2          1.3220    2.0204    0.0003 O.3       1 <0>        -0.5449
     10 O3         -0.1850   -0.2037    2.7944 O.3       1 <0>        -1.0929
     11 H2         -0.0828   -2.8760    1.3498 H         1 <0>         0.0627
     12 H3          1.3643   -2.7903    2.4105 H         1 <0>         0.0889
     13 H4          1.5521   -2.7023    0.6262 H         1 <0>         0.0632
     14 H5          0.5938   -0.3581   -0.8551 H         1 <0>         0.0875
     15 H6         -1.0268   -0.3844   -0.0806 H         1 <0>         0.0950
     16 H7         -0.2438    1.6778   -2.1341 H         1 <0>         0.1281
     17 H8         -1.7907    1.6518   -1.2213 H         1 <0>         0.1305
     18 H9         -1.3106    3.8658   -2.1122 H         1 <0>         0.4542
     19 H10         0.2534    3.8821   -1.2288 H         1 <0>         0.4498
     20 H11         1.5083    3.1045    0.0043 H         1 <0>         0.3827
     21 H12        -1.2935    3.8561   -0.3160 H         1 <0>         0.4572
@<TRIPOS>BOND
     1    1    2 1
     2    1   11 1
     3    1   12 1
     4    1   13 1
     5    2    3 2
     6    2    4 1
     7    2   10 1
     8    4    5 1
     9    4   14 1
    10    4   15 1
    11    5    6 1
    12    5    7 1
    13    5    9 1
    14    7    8 1
    15    7   16 1
    16    7   17 1
    17    8   18 1
    18    8   19 1
    19    8   21 1
    20    9   20 1
@<TRIPOS>MOLECULE
ZINC22112695
   21    20     0     0     0
SMALL
USER_CHARGES
[(2S)-3-amino-2-hydroxy-propyl]-methyl-phosphinic acid
@<TRIPOS>ATOM
      1 C1         -0.9043    2.4226   -1.4649 C.3       1 <0>        -0.7888
      2 P1         -0.0226    1.8187    0.0120 P.3       1 <0>         2.3272
      3 O1          1.3658    2.3310    0.0015 O.2       1 <0>        -1.0647
      4 C2          0.0021   -0.0041    0.0020 C.3       1 <0>        -0.7433
      5 C3          0.8476   -0.5091    1.1729 C.3       1 <0>         0.1181
      6 H1          1.8370   -0.0285    1.1870 H         1 <0>         0.0921
      7 C4          0.9716   -2.0320    1.0929 C.3       1 <0>        -0.0382
      8 N1          1.7834   -2.5169    2.2172 N.4       1 <0>        -0.6841
      9 O2          0.2204   -0.1463    2.4046 O.3       1 <0>        -0.5443
     10 O3         -0.7762    2.3380    1.3367 O.3       1 <0>        -1.0742
     11 H2         -1.9363    2.0418   -1.4571 H         1 <0>         0.0644
     12 H3         -0.3894    2.0679   -2.3699 H         1 <0>         0.0617
     13 H4         -0.9192    3.5225   -1.4588 H         1 <0>         0.0891
     14 H5         -1.0251   -0.3852    0.1002 H         1 <0>         0.0912
     15 H6          0.4363   -0.3598   -0.9440 H         1 <0>         0.0914
     16 H7         -0.0298   -2.4845    1.1417 H         1 <0>         0.1289
     17 H8          1.4543   -2.3113    0.1448 H         1 <0>         0.1294
     18 H9          1.8726   -3.6118    2.1597 H         1 <0>         0.4542
     19 H10         1.3006   -2.2376    3.1653 H         1 <0>         0.4504
     20 H11         0.6852   -0.4257    3.3617 H         1 <0>         0.3830
     21 H12         2.7848   -2.0644    2.1684 H         1 <0>         0.4566
@<TRIPOS>BOND
     1    1    2 1
     2    1   11 1
     3    1   12 1
     4    1   13 1
     5    2    3 2
     6    2    4 1
     7    2   10 1
     8    4    5 1
     9    4   14 1
    10    4   15 1
    11    5    6 1
    12    5    7 1
    13    5    9 1
    14    7    8 1
    15    7   16 1
    16    7   17 1
    17    8   18 1
    18    8   19 1
    19    8   21 1
    20    9   20 1
@<TRIPOS>MOLECULE
ZINC13742922
   18    17     0     0     0
SMALL
USER_CHARGES
[(2R)-3-amino-2-hydroxy-propyl]phosphinic acid
@<TRIPOS>ATOM
      1 C1         -0.7726    2.1514    4.0050 C.3       1 <0>         0.0091
      2 C2         -0.1313    1.5569    2.7496 C.3       1 <0>         0.1124
      3 H1          0.9414    1.7949    2.6989 H         1 <0>         0.0548
      4 C3         -0.8713    2.0637    1.5100 C.3       1 <0>        -0.8011
      5 P1         -0.0180    1.4758    0.0102 P.3       1 <0>         2.3989
      6 H2          1.0489    1.7132   -0.1137 H         1 <0>        -0.5124
      7 O1          0.0021   -0.0041    0.0020 O.2       1 <0>        -1.1058
      8 O2         -0.7967    2.0091   -1.2942 O.3       1 <0>        -1.1329
      9 O3         -0.2122    0.1312    2.8029 O.3       1 <0>        -0.6296
     10 N1          0.0096    1.7616    5.1858 N.4       1 <0>        -0.6822
     11 H3         -0.7910    3.2482    3.9230 H         1 <0>         0.1304
     12 H4         -1.8009    1.7739    4.1053 H         1 <0>         0.1324
     13 H5         -1.9033    1.6829    1.5178 H         1 <0>         0.1134
     14 H6         -0.8863    3.1636    1.5160 H         1 <0>         0.0859
     15 H7          0.1993   -0.4741    1.9817 H         1 <0>         0.4621
     16 H8         -0.4514    2.1890    6.0884 H         1 <0>         0.4507
     17 H9          1.0379    2.1391    5.0854 H         1 <0>         0.4499
     18 H10         0.0280    0.6648    5.2677 H         1 <0>         0.4641
@<TRIPOS>BOND
     1    1    2 1
     2    1   10 1
     3    1   11 1
     4    1   12 1
     5    2    3 1
     6    2    4 1
     7    2    9 1
     8    4    5 1
     9    4   13 1
    10    4   14 1
    11    5    6 1
    12    5    7 2
    13    5    8 1
    14    9   15 1
    15   10   16 1
    16   10   17 1
    17   10   18 1
@<TRIPOS>MOLECULE
ZINC13742923
   18    17     0     0     0
SMALL
USER_CHARGES
[(2S)-3-amino-2-hydroxy-propyl]phosphinic acid
@<TRIPOS>ATOM
      1 C1          2.5332    5.6118    0.1338 C.3       1 <0>         0.0139
      2 C2          2.6712    4.0940   -0.0014 C.3       1 <0>         0.1011
      3 H1          3.3077    3.6789    0.7939 H         1 <0>         0.0913
      4 C3          1.2821    3.4528    0.0084 C.3       1 <0>        -0.7971
      5 P1          1.4507    1.6376   -0.0030 P.3       1 <0>         2.3879
      6 H2          2.0321    1.1695   -0.8109 H         1 <0>        -0.5139
      7 O1          2.2025    1.2045    1.1960 O.2       1 <0>        -1.1123
      8 O2         -0.0110    0.9628    0.0073 O.3       1 <0>        -1.1322
      9 O3          3.3306    3.7833   -1.2305 O.3       1 <0>        -0.6257
     10 N1          3.8670    6.2275    0.1244 N.4       1 <0>        -0.6827
     11 H3          1.9429    6.0027   -0.7081 H         1 <0>         0.1282
     12 H4          2.0256    5.8510    1.0799 H         1 <0>         0.1381
     13 H5          0.7405    3.7651    0.9135 H         1 <0>         0.1114
     14 H6          0.7233    3.7748   -0.8827 H         1 <0>         0.0897
     15 H7          3.5201    2.7346   -1.5032 H         1 <0>         0.4348
     16 H8          3.7678    7.3187    0.2216 H         1 <0>         0.4514
     17 H9          4.3746    5.9883   -0.8217 H         1 <0>         0.4612
     18 H10         4.4572    5.8365    0.9663 H         1 <0>         0.4549
@<TRIPOS>BOND
     1    1    2 1
     2    1   10 1
     3    1   11 1
     4    1   12 1
     5    2    3 1
     6    2    4 1
     7    2    9 1
     8    4    5 1
     9    4   13 1
    10    4   14 1
    11    5    6 1
    12    5    7 2
    13    5    8 1
    14    9   15 1
    15   10   16 1
    16   10   17 1
    17   10   18 1
@<TRIPOS>MOLECULE
ZINC13742906
   20    19     0     0     0
SMALL
USER_CHARGES
[(3R)-3-aminobutyl]phosphinic acid
@<TRIPOS>ATOM
      1 C1         -1.4266   -0.5342    0.1385 C.3       1 <0>        -0.1825
      2 C2          0.0021   -0.0041    0.0020 C.3       1 <0>         0.0390
      3 H1          0.6352   -0.3863    0.8163 H         1 <0>         0.1310
      4 C3         -0.0187    1.5258    0.0104 C.3       1 <0>        -0.1325
      5 C4          1.4167    2.0553   -0.0004 C.3       1 <0>        -0.7813
      6 P1          1.3920    3.8782    0.0096 P.3       1 <0>         2.3912
      7 H2          0.8345    4.4000   -0.7821 H         1 <0>        -0.5124
      8 O1          0.6993    4.3554    1.2273 O.2       1 <0>        -1.1123
      9 O2          2.9024    4.4354   -0.0018 O.3       1 <0>        -1.1359
     10 N1          0.5820   -0.4790   -1.2614 N.4       1 <0>        -0.6863
     11 H3         -1.4117   -1.6341    0.1325 H         1 <0>         0.0767
     12 H4         -2.0344   -0.1711   -0.7034 H         1 <0>         0.0790
     13 H5         -1.8608   -0.1785    1.0845 H         1 <0>         0.1057
     14 H6         -0.5507    1.8901   -0.8808 H         1 <0>         0.0752
     15 H7         -0.5336    1.8806    0.9154 H         1 <0>         0.1228
     16 H8          1.9486    1.6909    0.8908 H         1 <0>         0.1076
     17 H9          1.9316    1.7005   -0.9054 H         1 <0>         0.0636
     18 H10         1.6092   -0.0979   -1.3595 H         1 <0>         0.4551
     19 H11        -0.0258   -0.1158   -2.1032 H         1 <0>         0.4466
     20 H12         0.5969   -1.5789   -1.2675 H         1 <0>         0.4495
@<TRIPOS>BOND
     1    1    2 1
     2    1   11 1
     3    1   12 1
     4    1   13 1
     5    2    3 1
     6    2    4 1
     7    2   10 1
     8    4    5 1
     9    4   14 1
    10    4   15 1
    11    5    6 1
    12    5   16 1
    13    5   17 1
    14    6    7 1
    15    6    8 2
    16    6    9 1
    17   10   18 1
    18   10   19 1
    19   10   20 1
@<TRIPOS>MOLECULE
ZINC13742907
   20    19     0     0     0
SMALL
USER_CHARGES
[(3S)-3-aminobutyl]phosphinic acid
@<TRIPOS>ATOM
      1 C1          3.9122    6.2589   -0.1274 C.3       1 <0>        -0.1832
      2 C2          2.5297    5.6175    0.0081 C.3       1 <0>         0.0403
      3 H1          1.8686    5.9491   -0.8061 H         1 <0>         0.1253
      4 C3          2.6712    4.0940   -0.0015 C.3       1 <0>        -0.1340
      5 C4          1.2821    3.4528    0.0084 C.3       1 <0>        -0.7845
      6 P1          1.4507    1.6376   -0.0030 P.3       1 <0>         2.3983
      7 H2          2.0321    1.1695   -0.8109 H         1 <0>        -0.5128
      8 O1          2.2025    1.2045    1.1960 O.2       1 <0>        -1.1160
      9 O2         -0.0110    0.9628    0.0073 O.3       1 <0>        -1.1381
     10 N1          1.9137    6.0441    1.2715 N.4       1 <0>        -0.6851
     11 H3          3.8105    7.3542   -0.1205 H         1 <0>         0.0768
     12 H4          4.3735    5.9394   -1.0735 H         1 <0>         0.1011
     13 H5          4.5465    5.9442    0.7144 H         1 <0>         0.0827
     14 H6          3.2128    3.7818   -0.9066 H         1 <0>         0.0966
     15 H7          3.2301    3.7720    0.8896 H         1 <0>         0.1022
     16 H8          0.7406    3.7651    0.9135 H         1 <0>         0.0885
     17 H9          0.7232    3.7748   -0.8827 H         1 <0>         0.0844
     18 H10         0.9198    5.5830    1.3689 H         1 <0>         0.4569
     19 H11         1.8120    7.1394    1.2784 H         1 <0>         0.4480
     20 H12         2.5480    5.7294    2.1133 H         1 <0>         0.4524
@<TRIPOS>BOND
     1    1    2 1
     2    1   11 1
     3    1   12 1
     4    1   13 1
     5    2    3 1
     6    2    4 1
     7    2   10 1
     8    4    5 1
     9    4   14 1
    10    4   15 1
    11    5    6 1
    12    5   16 1
    13    5   17 1
    14    6    7 1
    15    6    8 2
    16    6    9 1
    17   10   18 1
    18   10   19 1
    19   10   20 1
@<TRIPOS>MOLECULE
ZINC00000061
   26    26     0     0     0
SMALL
USER_CHARGES

@<TRIPOS>ATOM
      1 C1         -0.0167    1.3782    0.0096 C.ar      1 <0>        -0.1063
      2 C2          1.1706    2.0858    0.0021 C.ar      1 <0>        -0.1054
      3 C3          2.3780    1.4104   -0.0130 C.ar      1 <0>        -0.0330
      4 C4          2.3961    0.0270   -0.0206 C.ar      1 <0>        -0.1045
      5 C5          1.2082   -0.6795   -0.0130 C.ar      1 <0>        -0.1032
      6 C6          0.0021   -0.0041    0.0020 C.ar      1 <0>        -0.1110
      7 C7         -1.2928   -0.7750    0.0107 C.3       1 <0>        -0.0437
      8 H1         -2.1306   -0.0778    0.0227 H         1 <0>         0.1039
      9 C8         -1.3745   -1.6489   -1.2425 C.3       1 <0>        -0.1780
     10 C9         -2.7200   -2.3254   -1.2963 C.2       1 <0>         0.4888
     11 O1         -3.5378   -2.1270   -0.4141 O.co2     1 <0>        -0.7038
     12 O2         -2.9907   -3.0712   -2.2221 O.co2     1 <0>        -0.6758
     13 C10        -1.3498   -1.6623    1.2558 C.3       1 <0>        -0.0077
     14 N1         -1.3920   -0.8180    2.4572 N.4       1 <0>        -0.6337
     15 Cl1         3.8696    2.2984   -0.0231 Cl        1 <0>        -0.0609
     16 H2         -0.9592    1.9053    0.0259 H         1 <0>         0.1367
     17 H3          1.1558    3.1656    0.0076 H         1 <0>         0.1377
     18 H4          3.3383   -0.5007   -0.0327 H         1 <0>         0.1377
     19 H5          1.2222   -1.7594   -0.0193 H         1 <0>         0.1361
     20 H6         -1.2448   -1.0269   -2.1282 H         1 <0>         0.0796
     21 H7         -0.5891   -2.4040   -1.2107 H         1 <0>         0.0708
     22 H8         -2.2436   -2.2849    1.2177 H         1 <0>         0.1675
     23 H9         -0.4651   -2.2982    1.2896 H         1 <0>         0.1201
     24 H10        -0.5646   -0.2416    2.4925 H         1 <0>         0.4220
     25 H11        -2.2109   -0.2293    2.4260 H         1 <0>         0.4347
     26 H12        -1.4296   -1.4032    3.2784 H         1 <0>         0.4314
@<TRIPOS>BOND
     1    1    6 ar
     2    1    2 ar
     3    1   16 1
     4    2    3 ar
     5    2   17 1
     6    3    4 ar
     7    3   15 1
     8    4    5 ar
     9    4   18 1
    10    5    6 ar
    11    5   19 1
    12    6    7 1
    13    7    8 1
    14    7    9 1
    15    7   13 1
    16    9   10 1
    17    9   20 1
    18    9   21 1
    19   10   11 2
    20   10   12 1
    21   13   14 1
    22   13   22 1
    23   13   23 1
    24   14   24 1
    25   14   25 1
    26   14   26 1
@<TRIPOS>MOLECULE
ZINC00085733
   26    26     0     0     0
SMALL
USER_CHARGES

@<TRIPOS>ATOM
      1 C1          0.3887    1.1565   -0.0609 C.ar      1 <0>        -0.0595
      2 C2          1.6839    1.6378   -0.0938 C.ar      1 <0>        -0.1110
      3 C3          2.7493    0.7554   -0.1109 C.ar      1 <0>        -0.0309
      4 C4          2.5175   -0.6085   -0.0949 C.ar      1 <0>        -0.1136
      5 C5          1.2219   -1.0886   -0.0620 C.ar      1 <0>        -0.1087
      6 C6          0.1577   -0.2064   -0.0450 C.ar      1 <0>        -0.0598
      7 C7         -1.2547   -0.7306   -0.0087 C.3       1 <0>        -0.0514
      8 H1         -1.9528    0.1065    0.0008 H         1 <0>         0.1066
      9 C8         -1.4532   -1.5744    1.2520 C.3       1 <0>        -0.1972
     10 C9         -1.3492   -0.6917    2.4690 C.2       1 <0>         0.4894
     11 O1         -1.2462    0.5162    2.3389 O.co2     1 <0>        -0.6798
     12 O2         -1.3679   -1.1853    3.5836 O.co2     1 <0>        -0.6877
     13 C10        -1.5104   -1.5939   -1.2457 C.3       1 <0>        -0.0074
     14 N1         -2.9125   -2.0318   -1.2560 N.4       1 <0>        -0.6357
     15 Cl1         4.3764    1.3592   -0.1528 Cl        1 <0>        -0.0716
     16 H2         -0.4430    1.8453   -0.0431 H         1 <0>         0.1347
     17 H3          1.8642    2.7026   -0.1066 H         1 <0>         0.1339
     18 H4          3.3488   -1.2978   -0.1086 H         1 <0>         0.1322
     19 H5          1.0408   -2.1533   -0.0499 H         1 <0>         0.1253
     20 H6         -2.4377   -2.0417    1.2252 H         1 <0>         0.0536
     21 H7         -0.6855   -2.3469    1.2968 H         1 <0>         0.0745
     22 H8         -1.3050   -1.0115   -2.1439 H         1 <0>         0.1323
     23 H9         -0.8574   -2.4663   -1.2212 H         1 <0>         0.1305
     24 H10        -3.0771   -2.6515   -0.4769 H         1 <0>         0.4349
     25 H11        -3.5167   -1.2273   -1.1793 H         1 <0>         0.4347
     26 H12        -3.1069   -2.5174   -2.1188 H         1 <0>         0.4314
@<TRIPOS>BOND
     1    1    6 ar
     2    1    2 ar
     3    1   16 1
     4    2    3 ar
     5    2   17 1
     6    3    4 ar
     7    3   15 1
     8    4    5 ar
     9    4   18 1
    10    5    6 ar
    11    5   19 1
    12    6    7 1
    13    7    8 1
    14    7    9 1
    15    7   13 1
    16    9   10 1
    17    9   20 1
    18    9   21 1
    19   10   11 2
    20   10   12 1
    21   13   14 1
    22   13   22 1
    23   13   23 1
    24   14   24 1
    25   14   25 1
    26   14   26 1
@<TRIPOS>MOLECULE
ZINC13742935
   15    14     0     0     0
SMALL
USER_CHARGES
[(Z)-3-aminoprop-1-enyl]phosphinic acid
@<TRIPOS>ATOM
      1 C1         -0.7955    1.5269   -1.1198 C.3       1 <0>         0.0154
      2 C2         -0.7931    3.0333   -1.0784 C.2       1 <0>        -0.1948
      3 C3         -0.3950    3.7167   -2.1227 C.2       1 <0>        -0.6869
      4 P1          0.1536    2.8496   -3.6187 P.3       1 <0>         2.3851
      5 H1          0.9661    2.1140   -3.5253 H         1 <0>        -0.5107
      6 O1         -0.9523    2.0144   -4.1383 O.2       1 <0>        -1.1009
      7 O2          0.5836    3.9263   -4.7358 O.3       1 <0>        -1.1230
      8 N1         -0.0116    1.0048    0.0076 N.4       1 <0>        -0.6820
      9 H2         -1.8300    1.1598   -1.0483 H         1 <0>         0.1500
     10 H3         -0.3498    1.1854   -2.0657 H         1 <0>         0.1271
     11 H4         -1.1257    3.5590   -0.1712 H         1 <0>         0.1153
     12 H5         -0.3934    4.8163   -2.0924 H         1 <0>         0.1414
     13 H6         -0.0134   -0.0948   -0.0226 H         1 <0>         0.4589
     14 H7         -0.4574    1.3463    0.9535 H         1 <0>         0.4528
     15 H8          1.0229    1.3719   -0.0639 H         1 <0>         0.4523
@<TRIPOS>BOND
     1    1    2 1
     2    1    8 1
     3    1    9 1
     4    1   10 1
     5    2    3 2
     6    2   11 1
     7    3    4 1
     8    3   12 1
     9    4    5 1
    10    4    6 2
    11    4    7 1
    12    8   13 1
    13    8   14 1
    14    8   15 1
@<TRIPOS>MOLECULE
ZINC13742894
   23    22     0     0     0
SMALL
USER_CHARGES
3-aminopropyl-ethyl-phosphinic acid
@<TRIPOS>ATOM
      1 C1         -0.1083    0.8241    5.4700 C.3       1 <0>        -0.1296
      2 C2         -0.7809    1.4368    4.2399 C.3       1 <0>        -0.7483
      3 P1          0.1529    0.9753    2.7437 P.3       1 <0>         2.3294
      4 O1          0.2785   -0.4977    2.6753 O.2       1 <0>        -1.0604
      5 C3         -0.7288    1.5792    1.2668 C.3       1 <0>        -0.7473
      6 C4         -0.0127    1.0858    0.0080 C.3       1 <0>        -0.1257
      7 C5         -0.7527    1.5927   -1.2315 C.3       1 <0>        -0.0019
      8 N1         -0.0651    1.1189   -2.4401 N.4       1 <0>        -0.6850
      9 O2          1.6195    1.6370    2.8011 O.3       1 <0>        -1.0888
     10 H1         -0.6717    1.1025    6.3728 H         1 <0>         0.0374
     11 H2          0.9221    1.2006    5.5502 H         1 <0>         0.0675
     12 H3         -0.0918   -0.2713    5.3714 H         1 <0>         0.0674
     13 H4         -1.8113    1.0603    4.1597 H         1 <0>         0.0636
     14 H5         -0.7975    2.5322    4.3385 H         1 <0>         0.0681
     15 H6         -1.7608    1.1985    1.2746 H         1 <0>         0.0772
     16 H7         -0.7437    2.6791    1.2728 H         1 <0>         0.0809
     17 H8          1.0193    1.4665    0.0002 H         1 <0>         0.0972
     18 H9          0.0022   -0.0141    0.0019 H         1 <0>         0.0976
     19 H10        -1.7847    1.2120   -1.2237 H         1 <0>         0.1189
     20 H11        -0.7676    2.6926   -1.2254 H         1 <0>         0.1198
     21 H12        -0.5971    1.4833   -3.3313 H         1 <0>         0.4495
     22 H13        -0.0502    0.0190   -2.4461 H         1 <0>         0.4559
     23 H14         0.9669    1.4996   -2.4479 H         1 <0>         0.4565
@<TRIPOS>BOND
     1    1    2 1
     2    1   10 1
     3    1   11 1
     4    1   12 1
     5    2    3 1
     6    2   13 1
     7    2   14 1
     8    3    4 2
     9    3    5 1
    10    3    9 1
    11    5    6 1
    12    5   15 1
    13    5   16 1
    14    6    7 1
    15    6   17 1
    16    6   18 1
    17    7    8 1
    18    7   19 1
    19    7   20 1
    20    8   21 1
    21    8   22 1
    22    8   23 1
@<TRIPOS>MOLECULE
ZINC13742895
   23    22     0     0     0
SMALL
USER_CHARGES
3-aminopropyl-ethyl-phosphinic acid
@<TRIPOS>ATOM
      1 C1          1.6378    1.6745   -2.7393 C.3       1 <0>        -0.1296
      2 C2          2.3483    1.1201   -1.5029 C.3       1 <0>        -0.7483
      3 P1          1.4507    1.6376   -0.0030 P.3       1 <0>         2.3293
      4 O1          1.3138    3.1113    0.0062 O.2       1 <0>        -1.0604
      5 C3          2.3767    1.1041    1.4739 C.3       1 <0>        -0.7473
      6 C4          1.6900    1.6452    2.7295 C.3       1 <0>        -0.1257
      7 C5          2.4672    1.1974    3.9690 C.3       1 <0>        -0.0020
      8 N1          1.8079    1.7170    5.1745 N.4       1 <0>        -0.6850
      9 O2         -0.0110    0.9628    0.0073 O.3       1 <0>        -1.0888
     10 H1          2.1795    1.3622   -3.6443 H         1 <0>         0.0374
     11 H2          1.6141    2.7730   -2.6868 H         1 <0>         0.0674
     12 H3          0.6090    1.2869   -2.7756 H         1 <0>         0.0675
     13 H4          2.3720    0.0216   -1.5554 H         1 <0>         0.0681
     14 H5          3.3771    1.5077   -1.4666 H         1 <0>         0.0636
     15 H6          2.4012    0.0051    1.5141 H         1 <0>         0.0809
     16 H7          3.4047    1.4921    1.4221 H         1 <0>         0.0772
     17 H8          1.6655    2.7442    2.6893 H         1 <0>         0.0976
     18 H9          0.6620    1.2572    2.7813 H         1 <0>         0.0972
     19 H10         2.4916    0.0984    4.0092 H         1 <0>         0.1198
     20 H11         3.4952    1.5853    3.9172 H         1 <0>         0.1189
     21 H12         2.3667    1.3951    6.0656 H         1 <0>         0.4495
     22 H13         0.7799    1.3290    5.2263 H         1 <0>         0.4565
     23 H14         1.7835    2.8160    5.1342 H         1 <0>         0.4559
@<TRIPOS>BOND
     1    1    2 1
     2    1   10 1
     3    1   11 1
     4    1   12 1
     5    2    3 1
     6    2   13 1
     7    2   14 1
     8    3    4 2
     9    3    5 1
    10    3    9 1
    11    5    6 1
    12    5   15 1
    13    5   16 1
    14    6    7 1
    15    6   17 1
    16    6   18 1
    17    7    8 1
    18    7   19 1
    19    7   20 1
    20    8   21 1
    21    8   22 1
    22    8   23 1
@<TRIPOS>MOLECULE
ZINC01532620
   16    15     0     0     0
SMALL
USER_CHARGES

@<TRIPOS>ATOM
      1 C1         -0.0187    1.5258    0.0104 C.3       1 <0>        -0.1250
      2 C2          0.0021   -0.0041    0.0020 C.3       1 <0>        -0.1856
      3 C3         -1.4117   -0.5257    0.0127 C.2       1 <0>         0.4870
      4 O1         -2.3491    0.2539    0.0259 O.co2     1 <0>        -0.6970
      5 O2         -1.6182   -1.7273    0.0082 O.co2     1 <0>        -0.6862
      6 C4          1.4167    2.0553   -0.0004 C.3       1 <0>        -0.0130
      7 N1          1.3968    3.5242    0.0076 N.4       1 <0>        -0.6362
      8 H1         -0.5459    1.8868   -0.8726 H         1 <0>         0.0846
      9 H2         -0.5289    1.8773    0.9072 H         1 <0>         0.0846
     10 H3          0.5123   -0.3556   -0.8948 H         1 <0>         0.0679
     11 H4          0.5293   -0.3651    0.8851 H         1 <0>         0.0679
     12 H5          1.9439    1.6943    0.8826 H         1 <0>         0.1275
     13 H6          1.9269    1.7038   -0.8972 H         1 <0>         0.1275
     14 H7          2.3434    3.8734    0.0005 H         1 <0>         0.4293
     15 H8          0.9088    3.8584   -0.8098 H         1 <0>         0.4334
     16 H9          0.9245    3.8496    0.8378 H         1 <0>         0.4334
@<TRIPOS>BOND
     1    1    2 1
     2    1    6 1
     3    1    8 1
     4    1    9 1
     5    2    3 1
     6    2   10 1
     7    2   11 1
     8    3    4 2
     9    3    5 1
    10    6    7 1
    11    6   12 1
    12    6   13 1
    13    7   14 1
    14    7   15 1
    15    7   16 1
