@<TRIPOS>MOLECULE
ZINC26172693
   16    16     0     0     0
SMALL
USER_CHARGES
(4S)-4-amino-4,5-dihydrofuran-2-carboxylic acid
@<TRIPOS>ATOM
      1 C1          1.3414    1.8327   -0.0009 C.3       1 <0>         0.0173
      2 C2          2.0931    0.6623   -0.6804 C.3       1 <0>         0.0755
      3 H1          2.3300    0.8003   -1.7457 H         1 <0>         0.1391
      4 C3          1.1724   -0.5102   -0.3877 C.2       1 <0>        -0.3635
      5 C4          0.0021   -0.0041    0.0020 C.2       1 <0>         0.1305
      6 O1         -0.0163    1.3518    0.0095 O.3       1 <0>        -0.2733
      7 C5         -1.1537   -0.8337    0.3856 C.2       1 <0>         0.4923
      8 O2         -1.0685   -2.0454    0.3556 O.co2     1 <0>        -0.5914
      9 O3         -2.3055   -0.2484    0.7697 O.co2     1 <0>        -0.7057
     10 N1          3.4133    0.4592   -0.0689 N.4       1 <0>        -0.6842
     11 H2          1.3941    2.7696   -0.5749 H         1 <0>         0.1267
     12 H3          1.6733    2.0162    1.0316 H         1 <0>         0.0969
     13 H4          1.3094   -1.6003   -0.4424 H         1 <0>         0.1840
     14 H5          3.9246   -0.3763   -0.5695 H         1 <0>         0.4578
     15 H6          3.2908    0.2270    0.9993 H         1 <0>         0.4503
     16 H7          4.0130    1.3748   -0.1787 H         1 <0>         0.4476
@<TRIPOS>BOND
     1    1    6 1
     2    1    2 1
     3    1   11 1
     4    1   12 1
     5    2    3 1
     6    2    4 1
     7    2   10 1
     8    4    5 2
     9    4   13 1
    10    5    6 1
    11    5    7 1
    12    7    8 2
    13    7    9 1
    14   10   14 1
    15   10   15 1
    16   10   16 1
@<TRIPOS>MOLECULE
ZINC26172697
   16    16     0     0     0
SMALL
USER_CHARGES
(4R)-4-amino-4,5-dihydrofuran-2-carboxylic acid
@<TRIPOS>ATOM
      1 C1          1.3414    1.8327   -0.0009 C.3       1 <0>         0.0151
      2 C2          2.0931    0.6624   -0.6804 C.3       1 <0>         0.0682
      3 H1          3.1352    0.5137   -0.3613 H         1 <0>         0.1420
      4 C3          1.1724   -0.5102   -0.3877 C.2       1 <0>        -0.3525
      5 C4          0.0021   -0.0041    0.0020 C.2       1 <0>         0.1276
      6 O1         -0.0163    1.3518    0.0095 O.3       1 <0>        -0.2830
      7 C5         -1.1537   -0.8337    0.3856 C.2       1 <0>         0.4915
      8 O2         -1.0685   -2.0454    0.3556 O.co2     1 <0>        -0.5889
      9 O3         -2.3055   -0.2484    0.7697 O.co2     1 <0>        -0.7057
     10 N1          2.2157    0.8859   -2.1271 N.4       1 <0>        -0.6876
     11 H2          1.3941    2.7696   -0.5749 H         1 <0>         0.1206
     12 H3          1.6734    2.0161    1.0316 H         1 <0>         0.1184
     13 H4          1.3094   -1.6003   -0.4424 H         1 <0>         0.1837
     14 H5          2.7524    0.0416   -2.5843 H         1 <0>         0.4546
     15 H6          2.7736    1.8165   -2.3084 H         1 <0>         0.4454
     16 H7          1.2129    0.9670   -2.5718 H         1 <0>         0.4506
@<TRIPOS>BOND
     1    1    6 1
     2    1    2 1
     3    1   11 1
     4    1   12 1
     5    2    3 1
     6    2    4 1
     7    2   10 1
     8    4    5 2
     9    4   13 1
    10    5    6 1
    11    5    7 1
    12    7    8 2
    13    7    9 1
    14   10   14 1
    15   10   15 1
    16   10   16 1
@<TRIPOS>MOLECULE
ZINC01678195
   21    21     0     0     0
SMALL
USER_CHARGES
3-chloro-1-(4-hydroxyphenyl)propan-1-one
@<TRIPOS>ATOM
      1 C1         -1.3178    3.3258    0.0322 C.ar      1 <0>        -0.0530
      2 C2         -2.5171    3.9904    0.0362 C.ar      1 <0>        -0.1594
      3 C3         -3.7106    3.2763    0.0384 C.ar      1 <0>         0.1449
      4 C4         -3.6945    1.8856    0.0303 C.ar      1 <0>        -0.1595
      5 C5         -2.5006    1.2115    0.0205 C.ar      1 <0>        -0.0398
      6 C6         -1.2960    1.9257    0.0187 C.ar      1 <0>        -0.1862
      7 C7         -0.0144    1.2087    0.0087 C.2       1 <0>         0.4017
      8 O1          0.0021   -0.0041    0.0020 O.2       1 <0>        -0.4491
      9 C8          1.2803    1.9799    0.0005 C.3       1 <0>        -0.1681
     10 C9          2.4566    1.0016   -0.0160 C.3       1 <0>        -0.0272
     11 Cl1         4.0056    1.9243   -0.0259 Cl        1 <0>        -0.1776
     12 O2         -4.8946    3.9386    0.0481 O.3       1 <0>        -0.4975
     13 H1         -0.3915    3.8812    0.0350 H         1 <0>         0.1384
     14 H2         -2.5351    5.0702    0.0422 H         1 <0>         0.1381
     15 H3         -4.6241    1.3358    0.0321 H         1 <0>         0.1378
     16 H4         -2.4892    0.1315    0.0138 H         1 <0>         0.1399
     17 H5          1.3177    2.5599   -0.8133 H         1 <0>         0.1013
     18 H6          1.3381    2.6025    0.8933 H         1 <0>         0.1136
     19 H7          2.4158    0.3695    0.8710 H         1 <0>         0.1016
     20 H8          2.3988    0.3790   -0.9088 H         1 <0>         0.1012
     21 H9         -5.2334    4.1255    0.9343 H         1 <0>         0.3990
@<TRIPOS>BOND
     1    1    6 ar
     2    1    2 ar
     3    1   13 1
     4    2    3 ar
     5    2   14 1
     6    3    4 ar
     7    3   12 1
     8    4    5 ar
     9    4   15 1
    10    5    6 ar
    11    5   16 1
    12    6    7 1
    13    7    8 2
    14    7    9 1
    15    9   10 1
    16    9   17 1
    17    9   18 1
    18   10   11 1
    19   10   19 1
    20   10   20 1
    21   12   21 1
