@<TRIPOS>MOLECULE
ZINC13829331
   51    53     0     0     0
SMALL
USER_CHARGES

@<TRIPOS>ATOM
      1 C1         -0.0167    1.3781    0.0096 C.ar      1 <0>        -0.1061
      2 C2          1.1709    2.0855    0.0021 C.ar      1 <0>        -0.1205
      3 C3          2.3773    1.4107   -0.0130 C.ar      1 <0>        -0.0938
      4 C4          2.3960    0.0285   -0.0201 C.ar      1 <0>        -0.1018
      5 C5          1.2084   -0.6789   -0.0117 C.ar      1 <0>        -0.0955
      6 C6          0.0021   -0.0041    0.0020 C.ar      1 <0>        -0.1223
      7 C7          3.7112   -0.7071   -0.0376 C.3       1 <0>         0.1033
      8 O1          4.1410   -0.9464    1.3041 O.3       1 <0>        -0.3066
      9 C8          5.3186   -1.6049    1.4665 C.ar      1 <0>         0.1455
     10 C9          6.0484   -2.0075    0.3573 C.ar      1 <0>        -0.2076
     11 C10         7.2453   -2.6763    0.5250 C.ar      1 <0>        -0.0719
     12 C11         7.7163   -2.9447    1.7972 C.ar      1 <0>        -0.1593
     13 C12         6.9908   -2.5451    2.9040 C.ar      1 <0>        -0.0586
     14 C13         5.7958   -1.8708    2.7416 C.ar      1 <0>        -0.1203
     15 C14         5.0085   -1.4299    3.9486 C.3       1 <0>         0.1927
     16 H1          3.9424   -1.5095    3.7359 H         1 <0>         0.0892
     17 C15         5.3500    0.0009    4.2759 C.ar      1 <0>        -0.0844
     18 C16         6.5131    0.2938    4.9638 C.ar      1 <0>        -0.1016
     19 C17         6.8277    1.6057    5.2647 C.ar      1 <0>        -0.0934
     20 C18         5.9794    2.6264    4.8786 C.ar      1 <0>        -0.1476
     21 C19         4.8146    2.3344    4.1898 C.ar      1 <0>         0.0974
     22 C20         4.5035    1.0201    3.8835 C.ar      1 <0>        -0.1321
     23 F1          3.9844    3.3311    3.8123 F         1 <0>        -0.1379
     24 O2          5.3358   -2.2643    5.0615 O.3       1 <0>        -0.3884
     25 C21         4.2693   -2.4282    5.9985 C.3       1 <0>         0.0526
     26 C22         4.7296   -3.3350    7.1416 C.3       1 <0>        -0.0391
     27 H2          5.6387   -2.9282    7.5846 H         1 <0>         0.1411
     28 C23         3.6497   -3.4091    8.1900 C.2       1 <0>         0.4893
     29 O3          2.7922   -4.2732    8.1219 O.co2     1 <0>        -0.6626
     30 O4          3.6334   -2.6051    9.1064 O.co2     1 <0>        -0.6293
     31 N1          4.9992   -4.6816    6.6202 N.4       1 <0>        -0.6127
     32 H3         -0.9591    1.9053    0.0259 H         1 <0>         0.1257
     33 H4          1.1563    3.1654    0.0076 H         1 <0>         0.1264
     34 H5          3.3051    1.9634   -0.0196 H         1 <0>         0.1231
     35 H6          1.2231   -1.7588   -0.0176 H         1 <0>         0.1234
     36 H7         -0.9258   -0.5567    0.0082 H         1 <0>         0.1263
     37 H8          3.5884   -1.6586   -0.5549 H         1 <0>         0.0731
     38 H9          4.4573   -0.1052   -0.5563 H         1 <0>         0.0729
     39 H10         5.6809   -1.7984   -0.6365 H         1 <0>         0.1310
     40 H11         7.8135   -2.9902   -0.3381 H         1 <0>         0.1270
     41 H12         8.6523   -3.4678    1.9263 H         1 <0>         0.1262
     42 H13         7.3605   -2.7562    3.8966 H         1 <0>         0.1336
     43 H14         7.1762   -0.5031    5.2665 H         1 <0>         0.1309
     44 H15         7.7364    1.8333    5.8021 H         1 <0>         0.1344
     45 H16         6.2250    3.6513    5.1144 H         1 <0>         0.1360
     46 H17         3.5973    0.7915    3.3423 H         1 <0>         0.1371
     47 H18         3.9846   -1.4551    6.3988 H         1 <0>         0.0951
     48 H19         3.4127   -2.8802    5.4986 H         1 <0>         0.0753
     49 H20         4.1577   -5.0582    6.2102 H         1 <0>         0.4321
     50 H21         5.7223   -4.6320    5.9182 H         1 <0>         0.4218
     51 H22         5.3027   -5.2797    7.3740 H         1 <0>         0.4308
@<TRIPOS>BOND
     1    1    6 ar
     2    1    2 ar
     3    1   32 1
     4    2    3 ar
     5    2   33 1
     6    3    4 ar
     7    3   34 1
     8    4    5 ar
     9    4    7 1
    10    5    6 ar
    11    5   35 1
    12    6   36 1
    13    7    8 1
    14    7   37 1
    15    7   38 1
    16    8    9 1
    17    9   14 ar
    18    9   10 ar
    19   10   11 ar
    20   10   39 1
    21   11   12 ar
    22   11   40 1
    23   12   13 ar
    24   12   41 1
    25   13   14 ar
    26   13   42 1
    27   14   15 1
    28   15   16 1
    29   15   17 1
    30   15   24 1
    31   17   22 ar
    32   17   18 ar
    33   18   19 ar
    34   18   43 1
    35   19   20 ar
    36   19   44 1
    37   20   21 ar
    38   20   45 1
    39   21   22 ar
    40   21   23 1
    41   22   46 1
    42   24   25 1
    43   25   26 1
    44   25   47 1
    45   25   48 1
    46   26   27 1
    47   26   28 1
    48   26   31 1
    49   28   29 2
    50   28   30 1
    51   31   49 1
    52   31   50 1
    53   31   51 1
@<TRIPOS>MOLECULE
ZINC13829333
   51    53     0     0     0
SMALL
USER_CHARGES

@<TRIPOS>ATOM
      1 C1         -0.0167    1.3781    0.0096 C.ar      1 <0>        -0.1064
      2 C2          1.1709    2.0855    0.0021 C.ar      1 <0>        -0.1217
      3 C3          2.3773    1.4107   -0.0130 C.ar      1 <0>        -0.0947
      4 C4          2.3960    0.0285   -0.0201 C.ar      1 <0>        -0.1015
      5 C5          1.2084   -0.6789   -0.0117 C.ar      1 <0>        -0.0948
      6 C6          0.0021   -0.0041    0.0020 C.ar      1 <0>        -0.1213
      7 C7          3.7112   -0.7071   -0.0376 C.3       1 <0>         0.1030
      8 O1          4.1410   -0.9464    1.3041 O.3       1 <0>        -0.3078
      9 C8          5.3186   -1.6049    1.4665 C.ar      1 <0>         0.1452
     10 C9          6.0484   -2.0075    0.3573 C.ar      1 <0>        -0.2081
     11 C10         7.2453   -2.6763    0.5250 C.ar      1 <0>        -0.0713
     12 C11         7.7163   -2.9447    1.7972 C.ar      1 <0>        -0.1593
     13 C12         6.9908   -2.5451    2.9040 C.ar      1 <0>        -0.0534
     14 C13         5.7958   -1.8708    2.7416 C.ar      1 <0>        -0.1206
     15 C14         5.0085   -1.4299    3.9486 C.3       1 <0>         0.1914
     16 H1          4.5176   -0.4804    3.7352 H         1 <0>         0.0916
     17 C15         3.9689   -2.4701    4.2776 C.ar      1 <0>        -0.0789
     18 C16         4.3035   -3.5568    5.0643 C.ar      1 <0>        -0.1158
     19 C17         3.3511   -4.5117    5.3669 C.ar      1 <0>        -0.0932
     20 C18         2.0630   -4.3814    4.8830 C.ar      1 <0>        -0.1502
     21 C19         1.7268   -3.2938    4.0953 C.ar      1 <0>         0.1027
     22 C20         2.6803   -2.3346    3.7978 C.ar      1 <0>        -0.1322
     23 F1          0.4681   -3.1656    3.6213 F         1 <0>        -0.1363
     24 O2          5.8913   -1.2703    5.0608 O.3       1 <0>        -0.3875
     25 C21         5.4727   -0.2751    5.9970 C.3       1 <0>         0.0523
     26 C22         6.4870   -0.1908    7.1394 C.3       1 <0>        -0.0391
     27 H2          7.4812   -0.0116    6.7301 H         1 <0>         0.1417
     28 C23         6.1120    0.9406    8.0616 C.2       1 <0>         0.4895
     29 O3          5.3703    0.7359    9.0074 O.co2     1 <0>        -0.6618
     30 O4          6.5504    2.0606    7.8619 O.co2     1 <0>        -0.6298
     31 N1          6.4864   -1.4542    7.8890 N.4       1 <0>        -0.6130
     32 H3         -0.9591    1.9053    0.0259 H         1 <0>         0.1255
     33 H4          1.1563    3.1654    0.0076 H         1 <0>         0.1266
     34 H5          3.3051    1.9634   -0.0196 H         1 <0>         0.1244
     35 H6          1.2231   -1.7588   -0.0176 H         1 <0>         0.1227
     36 H7         -0.9258   -0.5567    0.0082 H         1 <0>         0.1259
     37 H8          3.5884   -1.6586   -0.5549 H         1 <0>         0.0727
     38 H9          4.4573   -0.1052   -0.5563 H         1 <0>         0.0737
     39 H10         5.6809   -1.7984   -0.6365 H         1 <0>         0.1310
     40 H11         7.8135   -2.9902   -0.3381 H         1 <0>         0.1271
     41 H12         8.6523   -3.4678    1.9263 H         1 <0>         0.1262
     42 H13         7.3605   -2.7562    3.8966 H         1 <0>         0.1323
     43 H14         5.3100   -3.6599    5.4423 H         1 <0>         0.1275
     44 H15         3.6136   -5.3602    5.9814 H         1 <0>         0.1341
     45 H16         1.3191   -5.1280    5.1190 H         1 <0>         0.1364
     46 H17         2.4180   -1.4833    3.1870 H         1 <0>         0.1404
     47 H18         5.4086    0.6909    5.4961 H         1 <0>         0.0959
     48 H19         4.4950   -0.5420    6.3982 H         1 <0>         0.0751
     49 H20         5.5660   -1.6200    8.2679 H         1 <0>         0.4323
     50 H21         6.7374   -2.2117    7.2715 H         1 <0>         0.4203
     51 H22         7.1553   -1.3986    8.6424 H         1 <0>         0.4312
@<TRIPOS>BOND
     1    1    6 ar
     2    1    2 ar
     3    1   32 1
     4    2    3 ar
     5    2   33 1
     6    3    4 ar
     7    3   34 1
     8    4    5 ar
     9    4    7 1
    10    5    6 ar
    11    5   35 1
    12    6   36 1
    13    7    8 1
    14    7   37 1
    15    7   38 1
    16    8    9 1
    17    9   14 ar
    18    9   10 ar
    19   10   11 ar
    20   10   39 1
    21   11   12 ar
    22   11   40 1
    23   12   13 ar
    24   12   41 1
    25   13   14 ar
    26   13   42 1
    27   14   15 1
    28   15   16 1
    29   15   17 1
    30   15   24 1
    31   17   22 ar
    32   17   18 ar
    33   18   19 ar
    34   18   43 1
    35   19   20 ar
    36   19   44 1
    37   20   21 ar
    38   20   45 1
    39   21   22 ar
    40   21   23 1
    41   22   46 1
    42   24   25 1
    43   25   26 1
    44   25   47 1
    45   25   48 1
    46   26   27 1
    47   26   28 1
    48   26   31 1
    49   28   29 2
    50   28   30 1
    51   31   49 1
    52   31   50 1
    53   31   51 1
