@<TRIPOS>MOLECULE
ZINC00088466
   37    40     0     0     0
SMALL
USER_CHARGES
dimethyl-phenyl-BLAHone
@<TRIPOS>ATOM
      1 C1         -4.7234    2.5475   -1.0428 C.3       1 <0>        -0.0790
      2 C2         -3.3349    2.5767   -0.4579 C.2       1 <0>         0.1534
      3 C3         -2.8435    3.5355    0.4499 C.2       1 <0>        -0.2849
      4 C4         -1.5190    3.1861    0.7369 C.2       1 <0>         0.1830
      5 C5         -0.7558    4.0314    1.6629 C.ar      1 <0>        -0.0963
      6 C6          0.5711    3.7298    1.9783 C.ar      1 <0>        -0.0742
      7 C7          1.2663    4.5341    2.8535 C.ar      1 <0>        -0.1462
      8 C8          0.6543    5.6410    3.4225 C.ar      1 <0>        -0.0591
      9 C9         -0.6543    5.9515    3.1211 C.ar      1 <0>        -0.1617
     10 C10        -1.3757    5.1527    2.2393 C.ar      1 <0>         0.2060
     11 N1         -2.6892    5.4646    1.9369 N.am      1 <0>        -0.5349
     12 C11        -3.4211    4.7189    1.0895 C.2       1 <0>         0.5877
     13 O1         -4.5739    5.0312    0.8521 O.2       1 <0>        -0.5222
     14 C12        -3.3012    6.6421    2.5576 C.3       1 <0>         0.0620
     15 N2         -1.2382    2.0697    0.0192 N.pl3     1 <0>        -0.3072
     16 N3         -2.3839    1.7176   -0.7062 N.2       1 <0>        -0.2761
     17 C13        -0.0168    1.3845    0.0097 C.ar      1 <0>         0.1334
     18 C14         0.6096    1.0954   -1.1956 C.ar      1 <0>        -0.0961
     19 C15         1.8111    0.4146   -1.2019 C.ar      1 <0>        -0.1030
     20 C16         2.3906    0.0208   -0.0097 C.ar      1 <0>        -0.1063
     21 C17         1.7695    0.3071    1.1922 C.ar      1 <0>        -0.1039
     22 C18         0.5678    0.9877    1.2052 C.ar      1 <0>        -0.1182
     23 H1         -5.3770    1.9599   -0.3980 H         1 <0>         0.0862
     24 H2         -5.1072    3.5649   -1.1187 H         1 <0>         0.0930
     25 H3         -4.6905    2.0966   -2.0346 H         1 <0>         0.0793
     26 H4          1.0504    2.8684    1.5371 H         1 <0>         0.1419
     27 H5          2.2923    4.3019    3.0981 H         1 <0>         0.1339
     28 H6          1.2080    6.2651    4.1083 H         1 <0>         0.1363
     29 H7         -1.1205    6.8160    3.5703 H         1 <0>         0.1403
     30 H8         -4.3305    6.7410    2.2128 H         1 <0>         0.1039
     31 H9         -3.2905    6.5283    3.6416 H         1 <0>         0.0762
     32 H10        -2.7379    7.5330    2.2802 H         1 <0>         0.0761
     33 H11         0.1573    1.4024   -2.1271 H         1 <0>         0.1339
     34 H12         2.2985    0.1891   -2.1389 H         1 <0>         0.1368
     35 H13         3.3305   -0.5112   -0.0172 H         1 <0>         0.1344
     36 H14         2.2244   -0.0021    2.1216 H         1 <0>         0.1381
     37 H15         0.0833    1.2113    2.1442 H         1 <0>         0.1331
@<TRIPOS>BOND
     1    1    2 1
     2    1   23 1
     3    1   24 1
     4    1   25 1
     5    2   16 2
     6    2    3 1
     7    3   12 1
     8    3    4 2
     9    4    5 1
    10    4   15 1
    11    5   10 ar
    12    5    6 ar
    13    6    7 ar
    14    6   26 1
    15    7    8 ar
    16    7   27 1
    17    8    9 ar
    18    8   28 1
    19    9   10 ar
    20    9   29 1
    21   10   11 1
    22   11   12 am
    23   11   14 1
    24   12   13 2
    25   14   30 1
    26   14   31 1
    27   14   32 1
    28   15   16 1
    29   15   17 1
    30   17   22 ar
    31   17   18 ar
    32   18   19 ar
    33   18   33 1
    34   19   20 ar
    35   19   34 1
    36   20   21 ar
    37   20   35 1
    38   21   22 ar
    39   21   36 1
    40   22   37 1
@<TRIPOS>MOLECULE
ZINC06507046
   30    32     0     0     0
SMALL
USER_CHARGES

@<TRIPOS>ATOM
      1 C1         -0.0187    1.5258    0.0104 C.3       1 <0>        -0.1516
      2 C2          0.0021   -0.0041    0.0020 C.3       1 <0>         0.0576
      3 O1          0.6932   -0.4774    1.1597 O.3       1 <0>        -0.3290
      4 C3          0.8010   -1.8125    1.3044 C.2       1 <0>         0.5310
      5 O2          0.3215   -2.5545    0.4707 O.2       1 <0>        -0.5021
      6 C4          1.5026   -2.3743    2.4772 C.ar      1 <0>         0.0402
      7 C5          1.6143   -3.7553    2.6160 C.ar      1 <0>        -0.0333
      8 C6          2.2792   -4.2624    3.7284 C.ar      1 <0>        -0.0831
      9 C7          2.5953   -5.6144    4.2150 C.ar      1 <0>        -0.1038
     10 C8          2.3393   -6.8954    3.7304 C.ar      1 <0>        -0.0556
     11 C9          2.7783   -7.9949    4.4350 C.ar      1 <0>        -0.1428
     12 C10         3.4736   -7.8308    5.6237 C.ar      1 <0>        -0.0754
     13 C11         3.7339   -6.5702    6.1150 C.ar      1 <0>        -0.1379
     14 C12         3.2989   -5.4466    5.4180 C.ar      1 <0>         0.1403
     15 N1          3.4169   -4.0919    5.6699 N.pl3     1 <0>        -0.5953
     16 C13         2.8128   -3.3630    4.6699 C.ar      1 <0>         0.1173
     17 C14         2.6538   -1.9943    4.4511 C.ar      1 <0>         0.0980
     18 N2          2.0253   -1.5542    3.3864 N.ar      1 <0>        -0.4039
     19 H1          1.0039    1.9031    0.0027 H         1 <0>         0.0677
     20 H2         -0.5459    1.8868   -0.8726 H         1 <0>         0.0803
     21 H3         -0.5289    1.8773    0.9072 H         1 <0>         0.0677
     22 H4         -1.0205   -0.3814    0.0098 H         1 <0>         0.0690
     23 H5          0.5123   -0.3556   -0.8948 H         1 <0>         0.0690
     24 H6          1.1933   -4.4194    1.8756 H         1 <0>         0.1539
     25 H7          1.7978   -7.0261    2.8052 H         1 <0>         0.1310
     26 H8          2.5801   -8.9882    4.0604 H         1 <0>         0.1325
     27 H9          3.8135   -8.6987    6.1693 H         1 <0>         0.1343
     28 H10         4.2762   -6.4537    7.0417 H         1 <0>         0.1294
     29 H11         3.0568   -1.2892    5.1630 H         1 <0>         0.1699
     30 H12         3.8619   -3.7092    6.4422 H         1 <0>         0.4248
@<TRIPOS>BOND
     1    1    2 1
     2    1   19 1
     3    1   20 1
     4    1   21 1
     5    2    3 1
     6    2   22 1
     7    2   23 1
     8    3    4 1
     9    4    5 2
    10    4    6 1
    11    6   18 ar
    12    6    7 ar
    13    7    8 ar
    14    7   24 1
    15    8   16 ar
    16    8    9 1
    17    9   14 ar
    18    9   10 ar
    19   10   11 ar
    20   10   25 1
    21   11   12 ar
    22   11   26 1
    23   12   13 ar
    24   12   27 1
    25   13   14 ar
    26   13   28 1
    27   14   15 1
    28   15   16 1
    29   15   30 1
    30   16   17 ar
    31   17   18 ar
    32   17   29 1
@<TRIPOS>MOLECULE
ZINC06507046
   31    33     0     0     0
SMALL
USER_CHARGES

@<TRIPOS>ATOM
      1 C1         -0.0187    1.5258    0.0104 C.3       1 <0>        -0.1574
      2 C2          0.0021   -0.0041    0.0020 C.3       1 <0>         0.0635
      3 O1          0.6709   -0.4649   -1.1737 O.3       1 <0>        -0.3539
      4 C3          0.7758   -1.7984   -1.3347 C.2       1 <0>         0.5063
      5 O2          0.3122   -2.5493   -0.5000 O.2       1 <0>        -0.4447
      6 C4          1.4548   -2.3474   -2.5266 C.ar      1 <0>         0.0584
      7 C5          1.5538   -3.7270   -2.6880 C.ar      1 <0>         0.0150
      8 C6          2.1974   -4.2220   -3.8182 C.ar      1 <0>        -0.0128
      9 C7          2.4947   -5.5688   -4.3305 C.ar      1 <0>        -0.1156
     10 C8          2.2352   -6.8550   -3.8620 C.ar      1 <0>        -0.0440
     11 C9          2.6535   -7.9469   -4.5907 C.ar      1 <0>        -0.1219
     12 C10         3.3312   -7.7700   -5.7877 C.ar      1 <0>        -0.0454
     13 C11         3.5947   -6.5040   -6.2632 C.ar      1 <0>        -0.1296
     14 C12         3.1805   -5.3879   -5.5419 C.ar      1 <0>         0.1539
     15 N1          3.3056   -4.0304   -5.7748 N.pl3     1 <0>        -0.5653
     16 C13         2.7234   -3.3124   -4.7542 C.ar      1 <0>         0.1319
     17 C14         2.5790   -1.9460   -4.5119 C.ar      1 <0>         0.1494
     18 N2          1.9602   -1.5175   -3.4368 N.ar      1 <0>        -0.3940
     19 H1          1.0039    1.9031    0.0027 H         1 <0>         0.0711
     20 H2         -0.5459    1.8868   -0.8726 H         1 <0>         0.0710
     21 H3         -0.5289    1.8773    0.9072 H         1 <0>         0.0933
     22 H4          0.5293   -0.3651    0.8851 H         1 <0>         0.0826
     23 H5         -1.0205   -0.3814    0.0098 H         1 <0>         0.0826
     24 H6          1.1398   -4.3991   -1.9509 H         1 <0>         0.1968
     25 H7          1.7080   -6.9958   -2.9300 H         1 <0>         0.1443
     26 H8          2.4532   -8.9444   -4.2283 H         1 <0>         0.1478
     27 H9          3.6554   -8.6320   -6.3518 H         1 <0>         0.1500
     28 H10         4.1232   -6.3775   -7.1965 H         1 <0>         0.1440
     29 H11         2.9763   -1.2332   -5.2193 H         1 <0>         0.2207
     30 H12         3.7422   -3.6394   -6.5476 H         1 <0>         0.4401
     31 H13         1.8718   -0.5616   -3.2980 H         1 <0>         0.4618
@<TRIPOS>BOND
     1    1    2 1
     2    1   19 1
     3    1   20 1
     4    1   21 1
     5    2    3 1
     6    2   22 1
     7    2   23 1
     8    3    4 1
     9    4    5 2
    10    4    6 1
    11    6   18 ar
    12    6    7 ar
    13    7    8 ar
    14    7   24 1
    15    8   16 ar
    16    8    9 1
    17    9   14 ar
    18    9   10 ar
    19   10   11 ar
    20   10   25 1
    21   11   12 ar
    22   11   26 1
    23   12   13 ar
    24   12   27 1
    25   13   14 ar
    26   13   28 1
    27   14   15 1
    28   15   16 1
    29   15   30 1
    30   16   17 ar
    31   17   18 ar
    32   17   29 1
    33   18   31 1
@<TRIPOS>MOLECULE
ZINC20104435
   24    26     0     0     0
SMALL
USER_CHARGES

@<TRIPOS>ATOM
      1 C1         -0.0166    1.3736    0.0096 C.ar      1 <0>        -0.1394
      2 C2          1.1716    2.0887    0.0021 C.ar      1 <0>        -0.0570
      3 C3          2.3833    1.4333   -0.0134 C.ar      1 <0>        -0.1404
      4 C4          2.4235    0.0420   -0.0212 C.ar      1 <0>         0.1578
      5 C5          1.2200   -0.6806   -0.0132 C.ar      1 <0>        -0.1213
      6 C6          0.0021   -0.0041    0.0020 C.ar      1 <0>        -0.0397
      7 C7          1.5924   -2.1039   -0.0245 C.ar      1 <0>        -0.0140
      8 C8          0.8813   -3.3004   -0.0239 C.ar      1 <0>        -0.0298
      9 C9          1.5907   -4.4991   -0.0373 C.ar      1 <0>         0.0661
     10 N1          2.9229   -4.5024   -0.0501 N.ar      1 <0>        -0.3902
     11 H1          3.3884   -5.3534   -0.0593 H         1 <0>         0.4563
     12 C10         3.6276   -3.3964   -0.0511 C.ar      1 <0>         0.0978
     13 C11         2.9986   -2.1496   -0.0386 C.ar      1 <0>         0.1132
     14 N2          3.4734   -0.8581   -0.0364 N.pl3     1 <0>        -0.5901
     15 C12         0.8582   -5.7802   -0.0370 C.2       1 <0>         0.5233
     16 O1          1.4741   -6.8367   -0.0487 O.co2     1 <0>        -0.6473
     17 O2         -0.3647   -5.7853   -0.0249 O.co2     1 <0>        -0.6200
     18 H2         -0.9603    1.8986    0.0259 H         1 <0>         0.1398
     19 H3          1.1468    3.1684    0.0081 H         1 <0>         0.1409
     20 H4          3.3029    1.9996   -0.0198 H         1 <0>         0.1353
     21 H5         -0.9249   -0.5581    0.0082 H         1 <0>         0.1403
     22 H6         -0.1987   -3.2994   -0.0128 H         1 <0>         0.1865
     23 H7          4.7062   -3.4503   -0.0617 H         1 <0>         0.2013
     24 H8          4.4120   -0.6135   -0.0447 H         1 <0>         0.4307
@<TRIPOS>BOND
     1    1    6 ar
     2    1    2 ar
     3    1   18 1
     4    2    3 ar
     5    2   19 1
     6    3    4 ar
     7    3   20 1
     8    4   14 1
     9    4    5 ar
    10    5    6 ar
    11    5    7 1
    12    6   21 1
    13    7   13 ar
    14    7    8 ar
    15    8    9 ar
    16    8   22 1
    17    9   10 ar
    18    9   15 1
    19   10   11 1
    20   10   12 ar
    21   12   13 ar
    22   12   23 1
    23   13   14 1
    24   14   24 1
    25   15   16 2
    26   15   17 1
@<TRIPOS>MOLECULE
ZINC00006427
   33    35     0     0     0
SMALL
USER_CHARGES

@<TRIPOS>ATOM
      1 C1          0.5645    1.4220    0.1928 C.3       1 <0>         0.0583
      2 N1          0.3235   -0.0204    0.1049 N.am      1 <0>        -0.5555
      3 C2         -0.9927   -0.4531    0.1626 C.ar      1 <0>         0.1844
      4 C3         -1.9457    0.2992   -0.5272 C.ar      1 <0>        -0.1319
      5 C4         -3.2733   -0.0670   -0.5149 C.ar      1 <0>        -0.0651
      6 C5         -3.6777   -1.1917    0.1872 C.ar      1 <0>        -0.0514
      7 C6         -2.7519   -1.9453    0.8726 C.ar      1 <0>        -0.0516
      8 C7         -1.3954   -1.5853    0.8674 C.ar      1 <0>        -0.1200
      9 C8         -0.4607   -2.4388    1.6175 C.2       1 <0>         0.2679
     10 N2          0.7150   -2.7715    1.2168 N.2       1 <0>        -0.4888
     11 C9          1.2537   -2.3110   -0.0624 C.3       1 <0>         0.0242
     12 C10         1.3847   -0.8126   -0.0296 C.2       1 <0>         0.5094
     13 O1          2.4861   -0.3137   -0.1239 O.2       1 <0>        -0.5107
     14 C11        -0.9076   -2.9538    2.9327 C.ar      1 <0>        -0.0709
     15 C12        -0.3330   -4.1079    3.4647 C.ar      1 <0>        -0.0682
     16 C13        -0.7535   -4.5827    4.6901 C.ar      1 <0>        -0.1263
     17 C14        -1.7429   -3.9163    5.3909 C.ar      1 <0>        -0.0986
     18 C15        -2.3166   -2.7710    4.8684 C.ar      1 <0>        -0.1241
     19 C16        -1.9005   -2.2832    3.6466 C.ar      1 <0>        -0.0904
     20 Cl1        -5.3522   -1.6496    0.2025 Cl        1 <0>        -0.0531
     21 H1          1.6353    1.6160    0.1296 H         1 <0>         0.1025
     22 H2          0.0549    1.9262   -0.6283 H         1 <0>         0.0740
     23 H3          0.1827    1.7970    1.1424 H         1 <0>         0.0729
     24 H4         -1.6385    1.1774   -1.0758 H         1 <0>         0.1452
     25 H5         -4.0004    0.5233   -1.0528 H         1 <0>         0.1468
     26 H6         -3.0719   -2.8206    1.4183 H         1 <0>         0.1484
     27 H7          2.2331   -2.7595   -0.2287 H         1 <0>         0.1343
     28 H8          0.5774   -2.5976   -0.8678 H         1 <0>         0.0942
     29 H9          0.4392   -4.6292    2.9184 H         1 <0>         0.1347
     30 H10        -0.3096   -5.4765    5.1029 H         1 <0>         0.1285
     31 H11        -2.0690   -4.2920    6.3495 H         1 <0>         0.1264
     32 H12        -3.0889   -2.2553    5.4199 H         1 <0>         0.1284
     33 H13        -2.3460   -1.3865    3.2417 H         1 <0>         0.1261
@<TRIPOS>BOND
     1    1    2 1
     2    1   21 1
     3    1   22 1
     4    1   23 1
     5    2   12 am
     6    2    3 1
     7    3    8 ar
     8    3    4 ar
     9    4    5 ar
    10    4   24 1
    11    5    6 ar
    12    5   25 1
    13    6    7 ar
    14    6   20 1
    15    7    8 ar
    16    7   26 1
    17    8    9 1
    18    9   10 2
    19    9   14 1
    20   10   11 1
    21   11   12 1
    22   11   27 1
    23   11   28 1
    24   12   13 2
    25   14   19 ar
    26   14   15 ar
    27   15   16 ar
    28   15   29 1
    29   16   17 ar
    30   16   30 1
    31   17   18 ar
    32   17   31 1
    33   18   19 ar
    34   18   32 1
    35   19   33 1
@<TRIPOS>MOLECULE
ZINC04163149
   35    37     0     0     0
SMALL
USER_CHARGES
N-[(4-fluorophenyl)methyl]-2-(1H-indol-3-yl)-2-oxo-acetamide
@<TRIPOS>ATOM
      1 C1         -0.7100    3.7645    0.0291 C.ar      1 <0>        -0.1295
      2 C2          0.6182    4.1637    0.0185 C.ar      1 <0>        -0.1039
      3 C3          1.6321    3.2303    0.0038 C.ar      1 <0>        -0.1176
      4 C4          1.3268    1.8732   -0.0005 C.ar      1 <0>         0.0701
      5 C5         -0.0179    1.4716    0.0101 C.ar      1 <0>        -0.0547
      6 C6         -1.0324    2.4243    0.0300 C.ar      1 <0>        -0.0763
      7 C7          0.0021   -0.0041    0.0020 C.2       1 <0>        -0.2774
      8 C8          1.3349   -0.3701   -0.0127 C.2       1 <0>         0.1668
      9 N1          2.1053    0.7326   -0.0141 N.pl3     1 <0>        -0.5676
     10 H1          3.0753    0.7274   -0.0229 H         1 <0>         0.4238
     11 C9         -1.1545   -0.8984    0.0087 C.2       1 <0>         0.4209
     12 O1         -2.2791   -0.4374    0.0223 O.2       1 <0>        -0.4387
     13 C10        -0.9545   -2.3766   -0.0012 C.2       1 <0>         0.4906
     14 O2          0.1686   -2.8370   -0.0148 O.2       1 <0>        -0.5180
     15 N2         -2.0207   -3.2010    0.0049 N.am      1 <0>        -0.7017
     16 C11        -1.8242   -4.6527   -0.0048 C.3       1 <0>         0.1598
     17 C12        -3.1647   -5.3411    0.0048 C.ar      1 <0>        -0.1271
     18 C13        -3.7646   -5.6682    1.2066 C.ar      1 <0>        -0.0682
     19 C14        -4.9961   -6.2952    1.2167 C.ar      1 <0>        -0.1552
     20 C15        -5.6243   -6.6053    0.0224 C.ar      1 <0>         0.1105
     21 C16        -5.0201   -6.2820   -1.1807 C.ar      1 <0>        -0.1552
     22 C17        -3.7910   -5.6502   -1.1883 C.ar      1 <0>        -0.0682
     23 F1         -6.8261   -7.2225    0.0310 F         1 <0>        -0.1361
     24 H2         -1.4946    4.5065    0.0402 H         1 <0>         0.1277
     25 H3          0.8603    5.2163    0.0215 H         1 <0>         0.1293
     26 H4          2.6630    3.5523   -0.0046 H         1 <0>         0.1240
     27 H5         -2.0671    2.1151    0.0426 H         1 <0>         0.1319
     28 H6          1.7016   -1.3859   -0.0220 H         1 <0>         0.2030
     29 H7         -2.9181   -2.8331    0.0158 H         1 <0>         0.4134
     30 H8         -1.2751   -4.9390   -0.9018 H         1 <0>         0.0855
     31 H9         -1.2575   -4.9486    0.8780 H         1 <0>         0.0855
     32 H10        -3.2725   -5.4300    2.1380 H         1 <0>         0.1365
     33 H11        -5.4665   -6.5469    2.1557 H         1 <0>         0.1396
     34 H12        -5.5093   -6.5230   -2.1129 H         1 <0>         0.1396
     35 H13        -3.3197   -5.3976   -2.1266 H         1 <0>         0.1365
@<TRIPOS>BOND
     1    1    6 ar
     2    1    2 ar
     3    1   24 1
     4    2    3 ar
     5    2   25 1
     6    3    4 ar
     7    3   26 1
     8    4    9 1
     9    4    5 ar
    10    5    6 ar
    11    5    7 1
    12    6   27 1
    13    7    8 2
    14    7   11 1
    15    8    9 1
    16    8   28 1
    17    9   10 1
    18   11   12 2
    19   11   13 1
    20   13   14 2
    21   13   15 am
    22   15   16 1
    23   15   29 1
    24   16   17 1
    25   16   30 1
    26   16   31 1
    27   17   22 ar
    28   17   18 ar
    29   18   19 ar
    30   18   32 1
    31   19   20 ar
    32   19   33 1
    33   20   21 ar
    34   20   23 1
    35   21   22 ar
    36   21   34 1
    37   22   35 1
@<TRIPOS>MOLECULE
ZINC04311748
   32    34     0     0     0
SMALL
USER_CHARGES

@<TRIPOS>ATOM
      1 C1         -0.0169    1.3789    0.0123 C.ar      1 <0>        -0.0944
      2 C2          0.0291    0.0538   -0.3826 C.ar      1 <0>        -0.1207
      3 C3          1.2319   -0.6222   -0.4012 C.ar      1 <0>        -0.0932
      4 C4          2.4028    0.0333   -0.0212 C.ar      1 <0>        -0.0761
      5 C5          2.3501    1.3693    0.3755 C.ar      1 <0>        -0.0654
      6 C6          1.1413    2.0345    0.3903 C.ar      1 <0>        -0.1240
      7 C7          3.6974   -0.6869   -0.0384 C.2       1 <0>         0.2687
      8 N1          4.7685    0.0173   -0.1399 N.2       1 <0>        -0.4811
      9 C8          6.0956   -0.5960   -0.1727 C.3       1 <0>         0.0203
     10 C9          6.2068   -1.4515   -1.4051 C.2       1 <0>         0.5134
     11 O1          7.0263   -1.1641   -2.2518 O.2       1 <0>        -0.4981
     12 N2          5.4292   -2.5160   -1.5903 N.am      1 <0>        -0.6638
     13 C10         4.4938   -2.9880   -0.6827 C.ar      1 <0>         0.2270
     14 C11         3.6617   -2.1539    0.0677 C.ar      1 <0>        -0.1321
     15 C12         2.7421   -2.7190    0.9641 C.ar      1 <0>         0.0069
     16 C13         2.6600   -4.0843    1.1131 C.ar      1 <0>        -0.0647
     17 C14         3.4888   -4.9132    0.3757 C.ar      1 <0>        -0.0142
     18 C15         4.3969   -4.3715   -0.5227 C.ar      1 <0>        -0.1420
     19 N3          1.6856   -4.6675    2.0625 N.pl3     1 <0>         0.0337
     20 O2          0.9621   -3.9442    2.7067 O.2       1 <0>        -0.1492
     21 O3          1.6131   -5.8672    2.1936 O.3       1 <0>        -0.1499
     22 H1         -0.9600    1.9049    0.0213 H         1 <0>         0.1287
     23 H2         -0.8783   -0.4528   -0.6767 H         1 <0>         0.1299
     24 H3          1.2665   -1.6568   -0.7090 H         1 <0>         0.1219
     25 H4          3.2535    1.8821    0.6712 H         1 <0>         0.1361
     26 H5          1.0991    3.0690    0.6973 H         1 <0>         0.1306
     27 H6          6.8574    0.1832   -0.1992 H         1 <0>         0.1393
     28 H7          6.2341   -1.2142    0.7144 H         1 <0>         0.0976
     29 H8          5.5244   -2.9990   -2.4261 H         1 <0>         0.4193
     30 H9          2.0938   -2.0772    1.5421 H         1 <0>         0.1678
     31 H10         3.4243   -5.9846    0.4951 H         1 <0>         0.1668
     32 H11         5.0409   -5.0223   -1.0954 H         1 <0>         0.1610
@<TRIPOS>BOND
     1    1    6 ar
     2    1    2 ar
     3    1   22 1
     4    2    3 ar
     5    2   23 1
     6    3    4 ar
     7    3   24 1
     8    4    5 ar
     9    4    7 1
    10    5    6 ar
    11    5   25 1
    12    6   26 1
    13    7   14 1
    14    7    8 2
    15    8    9 1
    16    9   10 1
    17    9   27 1
    18    9   28 1
    19   10   11 2
    20   10   12 am
    21   12   13 1
    22   12   29 1
    23   13   18 ar
    24   13   14 ar
    25   14   15 ar
    26   15   16 ar
    27   15   30 1
    28   16   17 ar
    29   16   19 1
    30   17   18 ar
    31   17   31 1
    32   18   32 1
    33   19   20 2
    34   19   21 1
@<TRIPOS>MOLECULE
ZINC04751579
   35    37     0     0     0
SMALL
USER_CHARGES
N-[(2-fluorophenyl)methyl]-2-(1H-indol-3-yl)-2-oxo-acetamide
@<TRIPOS>ATOM
      1 C1         -4.9027   -6.4795    1.1950 C.ar      1 <0>        -0.1310
      2 C2         -5.6255   -6.6047    0.0229 C.ar      1 <0>        -0.0790
      3 C3         -5.1193   -6.0987   -1.1590 C.ar      1 <0>        -0.1556
      4 C4         -3.8875   -5.4659   -1.1693 C.ar      1 <0>         0.1172
      5 C5         -3.1648   -5.3411    0.0048 C.ar      1 <0>        -0.1507
      6 C6         -3.6706   -5.8531    1.1848 C.ar      1 <0>        -0.0696
      7 C7         -1.8242   -4.6527   -0.0048 C.3       1 <0>         0.1606
      8 N1         -2.0207   -3.2009    0.0049 N.am      1 <0>        -0.7002
      9 C8         -0.9545   -2.3766   -0.0012 C.2       1 <0>         0.4915
     10 O1          0.1686   -2.8370   -0.0148 O.2       1 <0>        -0.5180
     11 C9         -1.1545   -0.8983    0.0087 C.2       1 <0>         0.4216
     12 O2         -2.2791   -0.4373    0.0223 O.2       1 <0>        -0.4386
     13 C10         0.0021   -0.0041    0.0020 C.2       1 <0>        -0.2769
     14 C11         1.3349   -0.3702   -0.0127 C.2       1 <0>         0.1671
     15 N2          2.1055    0.7324   -0.0141 N.pl3     1 <0>        -0.5678
     16 H1          3.0754    0.7270   -0.0231 H         1 <0>         0.4237
     17 C12         1.3272    1.8732   -0.0006 C.ar      1 <0>         0.0705
     18 C13        -0.0179    1.4716    0.0101 C.ar      1 <0>        -0.0545
     19 C14        -1.0320    2.4241    0.0299 C.ar      1 <0>        -0.0762
     20 C15        -0.7093    3.7647    0.0303 C.ar      1 <0>        -0.1296
     21 C16         0.6185    4.1637    0.0203 C.ar      1 <0>        -0.1039
     22 C17         1.6326    3.2299    0.0047 C.ar      1 <0>        -0.1178
     23 F1         -3.3914   -4.9711   -2.3244 F         1 <0>        -0.1326
     24 H2         -5.2992   -6.8753    2.1183 H         1 <0>         0.1341
     25 H3         -6.5859   -7.0986    0.0311 H         1 <0>         0.1363
     26 H4         -5.6838   -6.1969   -2.0744 H         1 <0>         0.1392
     27 H5         -3.1049   -5.7598    2.1001 H         1 <0>         0.1365
     28 H6         -1.2752   -4.9390   -0.9018 H         1 <0>         0.0861
     29 H7         -1.2575   -4.9486    0.8780 H         1 <0>         0.0893
     30 H8         -2.9182   -2.8330    0.0158 H         1 <0>         0.4127
     31 H9          1.7015   -1.3860   -0.0216 H         1 <0>         0.2030
     32 H10        -2.0667    2.1150    0.0430 H         1 <0>         0.1319
     33 H11        -1.4939    4.5068    0.0421 H         1 <0>         0.1277
     34 H12         0.8606    5.2162    0.0243 H         1 <0>         0.1293
     35 H13         2.6634    3.5518   -0.0038 H         1 <0>         0.1240
@<TRIPOS>BOND
     1    1    6 ar
     2    1    2 ar
     3    1   24 1
     4    2    3 ar
     5    2   25 1
     6    3    4 ar
     7    3   26 1
     8    4    5 ar
     9    4   23 1
    10    5    6 ar
    11    5    7 1
    12    6   27 1
    13    7    8 1
    14    7   28 1
    15    7   29 1
    16    8    9 am
    17    8   30 1
    18    9   10 2
    19    9   11 1
    20   11   12 2
    21   11   13 1
    22   13   18 1
    23   13   14 2
    24   14   15 1
    25   14   31 1
    26   15   16 1
    27   15   17 1
    28   17   22 ar
    29   17   18 ar
    30   18   19 ar
    31   19   20 ar
    32   19   32 1
    33   20   21 ar
    34   20   33 1
    35   21   22 ar
    36   21   34 1
    37   22   35 1
@<TRIPOS>MOLECULE
ZINC34929023
   34    36     0     0     0
SMALL
USER_CHARGES

@<TRIPOS>ATOM
      1 C1         -0.0187    1.5258    0.0104 C.3       1 <0>        -0.1530
      2 C2          0.0021   -0.0041    0.0020 C.3       1 <0>         0.0597
      3 O1          0.6932   -0.4774    1.1597 O.3       1 <0>        -0.3513
      4 C3          0.8006   -1.8076    1.3039 C.2       1 <0>         0.4623
      5 O2          0.3237   -2.5457    0.4746 O.2       1 <0>        -0.4856
      6 C4          1.5162   -2.3806    2.5000 C.3       1 <0>         0.1011
      7 H1          1.2630   -1.8003    3.3873 H         1 <0>         0.0815
      8 C5          3.0319   -2.3225    2.2659 C.3       1 <0>        -0.0273
      9 C6          3.7010   -3.1406    3.3416 C.2       1 <0>        -0.1558
     10 C7          5.0876   -3.1576    3.7507 C.ar      1 <0>        -0.0979
     11 C8          6.2171   -2.4596    3.3118 C.ar      1 <0>        -0.0669
     12 C9          7.4030   -2.7352    3.9462 C.ar      1 <0>        -0.1479
     13 C10         7.4902   -3.6590    4.9748 C.ar      1 <0>        -0.0989
     14 C11         6.3893   -4.3640    5.4294 C.ar      1 <0>        -0.1308
     15 C12         5.1715   -4.1053    4.8040 C.ar      1 <0>         0.1001
     16 N1          3.9173   -4.6097    4.9991 N.pl3     1 <0>        -0.5795
     17 H2          3.6817   -5.2788    5.6607 H         1 <0>         0.4164
     18 C13         3.0432   -4.0287    4.1213 C.2       1 <0>         0.0644
     19 C14         1.5625   -4.2977    3.9929 C.3       1 <0>         0.1281
     20 N2          1.1044   -3.7780    2.6944 N.3       1 <0>        -0.6650
     21 H3          1.0039    1.9031    0.0027 H         1 <0>         0.0681
     22 H4         -0.5459    1.8868   -0.8726 H         1 <0>         0.0810
     23 H5         -0.5289    1.8773    0.9072 H         1 <0>         0.0668
     24 H6         -1.0205   -0.3814    0.0098 H         1 <0>         0.0683
     25 H7          0.5123   -0.3556   -0.8948 H         1 <0>         0.0698
     26 H8          3.2696   -2.7370    1.2862 H         1 <0>         0.0852
     27 H9          3.3742   -1.2891    2.3224 H         1 <0>         0.0884
     28 H10         6.1592   -1.7371    2.5111 H         1 <0>         0.1296
     29 H11         8.2963   -2.2149    3.6337 H         1 <0>         0.1192
     30 H12         8.4500   -3.8355    5.4375 H         1 <0>         0.1218
     31 H13         6.4706   -5.0820    6.2320 H         1 <0>         0.1279
     32 H14         1.3796   -5.3711    4.0430 H         1 <0>         0.1006
     33 H15         1.0276   -3.7941    4.7982 H         1 <0>         0.0580
     34 H16         0.1050   -3.8773    2.5973 H         1 <0>         0.3616
@<TRIPOS>BOND
     1    1    2 1
     2    1   21 1
     3    1   22 1
     4    1   23 1
     5    2    3 1
     6    2   24 1
     7    2   25 1
     8    3    4 1
     9    4    5 2
    10    4    6 1
    11    6    7 1
    12    6   20 1
    13    6    8 1
    14    8    9 1
    15    8   26 1
    16    8   27 1
    17    9   18 2
    18    9   10 1
    19   10   15 ar
    20   10   11 ar
    21   11   12 ar
    22   11   28 1
    23   12   13 ar
    24   12   29 1
    25   13   14 ar
    26   13   30 1
    27   14   15 ar
    28   14   31 1
    29   15   16 1
    30   16   17 1
    31   16   18 1
    32   18   19 1
    33   19   20 1
    34   19   32 1
    35   19   33 1
    36   20   34 1
@<TRIPOS>MOLECULE
ZINC34929024
   34    36     0     0     0
SMALL
USER_CHARGES

@<TRIPOS>ATOM
      1 C1         -0.0187    1.5258    0.0104 C.3       1 <0>        -0.1529
      2 C2          0.0021   -0.0041    0.0020 C.3       1 <0>         0.0603
      3 O1          0.6932   -0.4774    1.1597 O.3       1 <0>        -0.3517
      4 C3          0.8006   -1.8076    1.3039 C.2       1 <0>         0.4711
      5 O2          0.3237   -2.5457    0.4746 O.2       1 <0>        -0.4918
      6 C4          1.5162   -2.3806    2.5000 C.3       1 <0>         0.0990
      7 H1          2.4006   -1.7812    2.7160 H         1 <0>         0.1213
      8 C5          0.5775   -2.3637    3.7143 C.3       1 <0>        -0.0668
      9 C6          1.2161   -3.1824    4.8080 C.2       1 <0>        -0.1719
     10 C7          0.9047   -3.2280    6.2191 C.ar      1 <0>        -0.0961
     11 C8         -0.0431   -2.5656    7.0055 C.ar      1 <0>        -0.0682
     12 C9         -0.0544   -2.8618    8.3460 C.ar      1 <0>        -0.1467
     13 C10         0.8264   -3.7727    8.9060 C.ar      1 <0>        -0.0987
     14 C11         1.7739   -4.4430    8.1520 C.ar      1 <0>        -0.1301
     15 C12         1.8095   -4.1620    6.7878 C.ar      1 <0>         0.0979
     16 N1          2.5989   -4.6319    5.7771 N.pl3     1 <0>        -0.5770
     17 H2          3.3079   -5.2858    5.8808 H         1 <0>         0.4174
     18 C13         2.2385   -4.0422    4.5961 C.2       1 <0>         0.0322
     19 C14         2.8482   -4.2760    3.2342 C.3       1 <0>         0.1270
     20 N2          1.9200   -3.7643    2.2131 N.3       1 <0>        -0.6572
     21 H3          1.0039    1.9031    0.0027 H         1 <0>         0.0674
     22 H4         -0.5459    1.8868   -0.8726 H         1 <0>         0.0805
     23 H5         -0.5289    1.8773    0.9072 H         1 <0>         0.0672
     24 H6         -1.0205   -0.3814    0.0098 H         1 <0>         0.0682
     25 H7          0.5123   -0.3556   -0.8948 H         1 <0>         0.0690
     26 H8          0.4359   -1.3385    4.0564 H         1 <0>         0.0923
     27 H9         -0.3844   -2.7984    3.4425 H         1 <0>         0.0796
     28 H10        -0.7338   -1.8537    6.5783 H         1 <0>         0.1291
     29 H11        -0.7726   -2.3688    8.9844 H         1 <0>         0.1197
     30 H12         0.7716   -3.9667    9.9671 H         1 <0>         0.1224
     31 H13         2.4549   -5.1511    8.6006 H         1 <0>         0.1285
     32 H14         3.7988   -3.7475    3.1629 H         1 <0>         0.0999
     33 H15         3.0072   -5.3437    3.0825 H         1 <0>         0.0991
     34 H16         1.1143   -4.3649    2.1234 H         1 <0>         0.3601
@<TRIPOS>BOND
     1    1    2 1
     2    1   21 1
     3    1   22 1
     4    1   23 1
     5    2    3 1
     6    2   24 1
     7    2   25 1
     8    3    4 1
     9    4    5 2
    10    4    6 1
    11    6    7 1
    12    6   20 1
    13    6    8 1
    14    8    9 1
    15    8   26 1
    16    8   27 1
    17    9   18 2
    18    9   10 1
    19   10   15 ar
    20   10   11 ar
    21   11   12 ar
    22   11   28 1
    23   12   13 ar
    24   12   29 1
    25   13   14 ar
    26   13   30 1
    27   14   15 ar
    28   14   31 1
    29   15   16 1
    30   16   17 1
    31   16   18 1
    32   18   19 1
    33   19   20 1
    34   19   32 1
    35   19   33 1
    36   20   34 1
@<TRIPOS>MOLECULE
ZINC02555360
   36    38     0     0     0
SMALL
USER_CHARGES

@<TRIPOS>ATOM
      1 C1         -0.0187    1.5258    0.0104 C.3       1 <0>        -0.1522
      2 C2          0.0021   -0.0041    0.0020 C.3       1 <0>        -0.1223
      3 C3         -1.4333   -0.5336    0.0129 C.3       1 <0>        -0.1189
      4 C4         -1.4126   -2.0635    0.0045 C.3       1 <0>         0.0618
      5 O1         -2.7532   -2.5581    0.0146 O.3       1 <0>        -0.3282
      6 C5         -2.9116   -3.8960    0.0089 C.2       1 <0>         0.5311
      7 O2         -1.9383   -4.6228   -0.0043 O.2       1 <0>        -0.5019
      8 C6         -4.2691   -4.4792    0.0188 C.ar      1 <0>         0.0403
      9 C7         -4.4236   -5.8632    0.0185 C.ar      1 <0>        -0.0333
     10 C8         -5.7114   -6.3906    0.0279 C.ar      1 <0>        -0.0831
     11 C9         -6.2697   -7.7519    0.0312 C.ar      1 <0>        -0.1038
     12 C10        -5.7021   -9.0243    0.0262 C.ar      1 <0>        -0.0556
     13 C11        -6.5147  -10.1369    0.0322 C.ar      1 <0>        -0.1428
     14 C12        -7.8941   -9.9945    0.0431 C.ar      1 <0>        -0.0754
     15 C13        -8.4693   -8.7426    0.0481 C.ar      1 <0>        -0.1378
     16 C14        -7.6658   -7.6060    0.0423 C.ar      1 <0>         0.1402
     17 N1         -7.9640   -6.2555    0.0457 N.pl3     1 <0>        -0.5953
     18 H1         -8.8612   -5.8868    0.0535 H         1 <0>         0.4248
     19 C15        -6.8075   -5.5082    0.0372 C.ar      1 <0>         0.1174
     20 C16        -6.5598   -4.1352    0.0363 C.ar      1 <0>         0.0979
     21 N2         -5.3305   -3.6757    0.0332 N.ar      1 <0>        -0.4037
     22 H2          1.0039    1.9031    0.0027 H         1 <0>         0.0574
     23 H3         -0.5459    1.8868   -0.8726 H         1 <0>         0.0562
     24 H4         -0.5289    1.8773    0.9072 H         1 <0>         0.0562
     25 H5          0.5123   -0.3556   -0.8948 H         1 <0>         0.0655
     26 H6          0.5293   -0.3651    0.8851 H         1 <0>         0.0654
     27 H7         -1.9435   -0.1821    0.9097 H         1 <0>         0.0755
     28 H8         -1.9605   -0.1726   -0.8702 H         1 <0>         0.0755
     29 H9         -0.9024   -2.4150   -0.8923 H         1 <0>         0.0692
     30 H10        -0.8854   -2.4246    0.8875 H         1 <0>         0.0691
     31 H11        -3.5617   -6.5139    0.0109 H         1 <0>         0.1539
     32 H12        -4.6282   -9.1381    0.0174 H         1 <0>         0.1310
     33 H13        -6.0757  -11.1237    0.0279 H         1 <0>         0.1325
     34 H14        -8.5229  -10.8726    0.0473 H         1 <0>         0.1343
     35 H15        -9.5446   -8.6430    0.0566 H         1 <0>         0.1294
     36 H16        -7.3887   -3.4429    0.0434 H         1 <0>         0.1699
@<TRIPOS>BOND
     1    1    2 1
     2    1   22 1
     3    1   23 1
     4    1   24 1
     5    2    3 1
     6    2   25 1
     7    2   26 1
     8    3    4 1
     9    3   27 1
    10    3   28 1
    11    4    5 1
    12    4   29 1
    13    4   30 1
    14    5    6 1
    15    6    7 2
    16    6    8 1
    17    8   21 ar
    18    8    9 ar
    19    9   10 ar
    20    9   31 1
    21   10   19 ar
    22   10   11 1
    23   11   16 ar
    24   11   12 ar
    25   12   13 ar
    26   12   32 1
    27   13   14 ar
    28   13   33 1
    29   14   15 ar
    30   14   34 1
    31   15   16 ar
    32   15   35 1
    33   16   17 1
    34   17   18 1
    35   17   19 1
    36   19   20 ar
    37   20   21 ar
    38   20   36 1
@<TRIPOS>MOLECULE
ZINC02555360
   37    39     0     0     0
SMALL
USER_CHARGES

@<TRIPOS>ATOM
      1 C1         -0.0187    1.5258    0.0104 C.3       1 <0>        -0.1545
      2 C2          0.0021   -0.0041    0.0020 C.3       1 <0>        -0.1235
      3 C3         -1.4333   -0.5336    0.0129 C.3       1 <0>        -0.1210
      4 C4         -1.4126   -2.0635    0.0045 C.3       1 <0>         0.0664
      5 O1         -2.7532   -2.5581    0.0146 O.3       1 <0>        -0.3529
      6 C5         -2.9116   -3.8960    0.0089 C.2       1 <0>         0.5061
      7 O2         -1.9383   -4.6228   -0.0043 O.2       1 <0>        -0.4444
      8 C6         -4.2691   -4.4792    0.0188 C.ar      1 <0>         0.0586
      9 C7         -4.4236   -5.8632    0.0185 C.ar      1 <0>         0.0151
     10 C8         -5.7114   -6.3906    0.0279 C.ar      1 <0>        -0.0128
     11 C9         -6.2697   -7.7519    0.0312 C.ar      1 <0>        -0.1156
     12 C10        -5.7021   -9.0243    0.0262 C.ar      1 <0>        -0.0439
     13 C11        -6.5147  -10.1369    0.0322 C.ar      1 <0>        -0.1219
     14 C12        -7.8941   -9.9945    0.0431 C.ar      1 <0>        -0.0454
     15 C13        -8.4693   -8.7426    0.0481 C.ar      1 <0>        -0.1295
     16 C14        -7.6658   -7.6060    0.0423 C.ar      1 <0>         0.1539
     17 N1         -7.9640   -6.2555    0.0457 N.pl3     1 <0>        -0.5653
     18 H1         -8.8612   -5.8868    0.0535 H         1 <0>         0.4401
     19 C15        -6.8075   -5.5082    0.0372 C.ar      1 <0>         0.1320
     20 C16        -6.5598   -4.1352    0.0363 C.ar      1 <0>         0.1492
     21 N2         -5.3305   -3.6757    0.0332 N.ar      1 <0>        -0.3940
     22 H2          1.0039    1.9031    0.0027 H         1 <0>         0.0630
     23 H3         -0.5459    1.8868   -0.8726 H         1 <0>         0.0574
     24 H4         -0.5289    1.8773    0.9072 H         1 <0>         0.0574
     25 H5          0.5123   -0.3556   -0.8948 H         1 <0>         0.0692
     26 H6          0.5293   -0.3651    0.8851 H         1 <0>         0.0692
     27 H7         -1.9435   -0.1821    0.9097 H         1 <0>         0.0781
     28 H8         -1.9605   -0.1726   -0.8702 H         1 <0>         0.0781
     29 H9         -0.9024   -2.4150   -0.8923 H         1 <0>         0.0828
     30 H10        -0.8854   -2.4246    0.8875 H         1 <0>         0.0828
     31 H11        -3.5617   -6.5139    0.0109 H         1 <0>         0.1968
     32 H12        -4.6282   -9.1381    0.0174 H         1 <0>         0.1443
     33 H13        -6.0757  -11.1237    0.0279 H         1 <0>         0.1478
     34 H14        -8.5229  -10.8726    0.0473 H         1 <0>         0.1500
     35 H15        -9.5446   -8.6430    0.0566 H         1 <0>         0.1440
     36 H16        -7.3887   -3.4429    0.0434 H         1 <0>         0.2207
     37 H17        -5.1901   -2.7159    0.0370 H         1 <0>         0.4619
@<TRIPOS>BOND
     1    1    2 1
     2    1   22 1
     3    1   23 1
     4    1   24 1
     5    2    3 1
     6    2   25 1
     7    2   26 1
     8    3    4 1
     9    3   27 1
    10    3   28 1
    11    4    5 1
    12    4   29 1
    13    4   30 1
    14    5    6 1
    15    6    7 2
    16    6    8 1
    17    8   21 ar
    18    8    9 ar
    19    9   10 ar
    20    9   31 1
    21   10   19 ar
    22   10   11 1
    23   11   16 ar
    24   11   12 ar
    25   12   13 ar
    26   12   32 1
    27   13   14 ar
    28   13   33 1
    29   14   15 ar
    30   14   34 1
    31   15   16 ar
    32   15   35 1
    33   16   17 1
    34   17   18 1
    35   17   19 1
    36   19   20 ar
    37   20   21 ar
    38   20   36 1
    39   21   37 1
@<TRIPOS>MOLECULE
ZINC06116830
   31    34     0     0     0
SMALL
USER_CHARGES

@<TRIPOS>ATOM
      1 C1         -0.0167    1.3787    0.0096 C.ar      1 <0>        -0.1327
      2 C2          1.1696    2.0894    0.0021 C.ar      1 <0>        -0.0965
      3 C3          2.3774    1.4199   -0.0130 C.ar      1 <0>        -0.1294
      4 C4          2.3997    0.0311   -0.0207 C.ar      1 <0>         0.1617
      5 C5          1.2064   -0.6798   -0.0132 C.ar      1 <0>        -0.1479
      6 C6          0.0021   -0.0041    0.0020 C.ar      1 <0>        -0.0920
      7 N1          3.6219   -0.6505   -0.0365 N.am      1 <0>        -0.4119
      8 C7          3.7466   -1.9989   -0.0504 C.2       1 <0>         0.5203
      9 O1          2.8666   -2.8222    0.0884 O.2       1 <0>        -0.4581
     10 C8          5.2111   -2.2553   -0.2756 C.3       1 <0>        -0.1767
     11 H1          5.3894   -2.6474   -1.2769 H         1 <0>         0.1739
     12 C9          5.8444   -3.1341    0.7662 C.2       1 <0>         0.2097
     13 N2          7.0512   -2.9179    1.1732 N.2       1 <0>        -0.4777
     14 C10         7.8612   -1.9112    0.7343 C.ar      1 <0>         0.1051
     15 C11         9.2421   -1.9525    0.8942 C.ar      1 <0>        -0.0788
     16 C12        10.0161   -0.8928    0.4645 C.ar      1 <0>        -0.0921
     17 C13         9.4408    0.2208   -0.1264 C.ar      1 <0>        -0.1117
     18 C14         8.0704    0.2820   -0.3105 C.ar      1 <0>        -0.0636
     19 C15         7.2859   -0.7776    0.0996 C.ar      1 <0>        -0.0651
     20 C16         5.8307   -0.8661   -0.1086 C.2       1 <0>         0.1408
     21 N3          4.8735   -0.0286   -0.0461 N.2       1 <0>        -0.1953
     22 H2         -0.9598    1.9047    0.0260 H         1 <0>         0.1280
     23 H3          1.1515    3.1693    0.0077 H         1 <0>         0.1312
     24 H4          3.3034    1.9756   -0.0193 H         1 <0>         0.1348
     25 H5          1.2204   -1.7596   -0.0191 H         1 <0>         0.1507
     26 H6         -0.9261   -0.5562    0.0079 H         1 <0>         0.1325
     27 H7          5.2824   -3.9579    1.1807 H         1 <0>         0.1840
     28 H8          9.7082   -2.8118    1.3532 H         1 <0>         0.1424
     29 H9         11.0878   -0.9324    0.5914 H         1 <0>         0.1377
     30 H10        10.0638    1.0438   -0.4439 H         1 <0>         0.1382
     31 H11         7.6196    1.1491   -0.7700 H         1 <0>         0.1383
@<TRIPOS>BOND
     1    1    6 ar
     2    1    2 ar
     3    1   22 1
     4    2    3 ar
     5    2   23 1
     6    3    4 ar
     7    3   24 1
     8    4    5 ar
     9    4    7 1
    10    5    6 ar
    11    5   25 1
    12    6   26 1
    13    7   21 1
    14    7    8 am
    15    8    9 2
    16    8   10 1
    17   10   11 1
    18   10   20 1
    19   10   12 1
    20   12   13 2
    21   12   27 1
    22   13   14 1
    23   14   19 ar
    24   14   15 ar
    25   15   16 ar
    26   15   28 1
    27   16   17 ar
    28   16   29 1
    29   17   18 ar
    30   17   30 1
    31   18   19 ar
    32   18   31 1
    33   19   20 1
    34   20   21 2
@<TRIPOS>MOLECULE
ZINC13448368
   31    34     0     0     0
SMALL
USER_CHARGES

@<TRIPOS>ATOM
      1 C1         -0.0167    1.3798    0.0096 C.ar      1 <0>        -0.1121
      2 C2          1.1711    2.0935    0.0021 C.ar      1 <0>        -0.0903
      3 C3          2.3911    1.4477   -0.0289 C.ar      1 <0>        -0.0793
      4 C4          2.4391    0.0581   -0.0492 C.ar      1 <0>         0.1057
      5 C5          1.2150   -0.6634   -0.0118 C.ar      1 <0>        -0.0678
      6 C6          0.0021   -0.0041    0.0020 C.ar      1 <0>        -0.0615
      7 C7          1.3819   -2.1198    0.0400 C.2       1 <0>         0.1460
      8 N1          0.7255   -3.1190   -0.3945 N.2       1 <0>        -0.1976
      9 N2          1.4244   -4.3207   -0.2506 N.am      1 <0>        -0.4133
     10 C8          2.6392   -4.1137    0.3126 C.2       1 <0>         0.5219
     11 O1          3.5391   -4.9164    0.4433 O.2       1 <0>        -0.4551
     12 C9          2.6289   -2.6734    0.7395 C.3       1 <0>        -0.1773
     13 H1          2.5401   -2.5894    1.8227 H         1 <0>         0.1755
     14 C10         3.7817   -1.8623    0.2209 C.2       1 <0>         0.2093
     15 N3          3.6191   -0.6247   -0.1160 N.2       1 <0>        -0.4766
     16 C11         0.9336   -5.5734   -0.6371 C.ar      1 <0>         0.1703
     17 C12         1.7054   -6.7122   -0.4456 C.ar      1 <0>        -0.1360
     18 C13         1.2187   -7.9469   -0.8274 C.ar      1 <0>        -0.0802
     19 C14        -0.0367   -8.0501   -1.4007 C.ar      1 <0>        -0.0503
     20 C15        -0.8076   -6.9169   -1.5931 C.ar      1 <0>        -0.0851
     21 C16        -0.3283   -5.6806   -1.2075 C.ar      1 <0>        -0.1171
     22 Cl1        -0.6452   -9.6037   -1.8800 Cl        1 <0>        -0.0633
     23 H2         -0.9602    1.9051    0.0260 H         1 <0>         0.1386
     24 H3          1.1420    3.1730    0.0204 H         1 <0>         0.1381
     25 H4          3.3065    2.0207   -0.0377 H         1 <0>         0.1426
     26 H5         -0.9224   -0.5623    0.0072 H         1 <0>         0.1386
     27 H6          4.7567   -2.3176    0.1285 H         1 <0>         0.1844
     28 H7          2.6854   -6.6322    0.0011 H         1 <0>         0.1597
     29 H8          1.8184   -8.8327   -0.6787 H         1 <0>         0.1440
     30 H9         -1.7867   -7.0002   -2.0411 H         1 <0>         0.1428
     31 H10        -0.9322   -4.7972   -1.3535 H         1 <0>         0.1452
@<TRIPOS>BOND
     1    1    6 ar
     2    1    2 ar
     3    1   23 1
     4    2    3 ar
     5    2   24 1
     6    3    4 ar
     7    3   25 1
     8    4   15 1
     9    4    5 ar
    10    5    6 ar
    11    5    7 1
    12    6   26 1
    13    7   12 1
    14    7    8 2
    15    8    9 1
    16    9   10 am
    17    9   16 1
    18   10   11 2
    19   10   12 1
    20   12   13 1
    21   12   14 1
    22   14   15 2
    23   14   27 1
    24   16   21 ar
    25   16   17 ar
    26   17   18 ar
    27   17   28 1
    28   18   19 ar
    29   18   29 1
    30   19   20 ar
    31   19   22 1
    32   20   21 ar
    33   20   30 1
    34   21   31 1
@<TRIPOS>MOLECULE
ZINC02561962
   32    34     0     0     0
SMALL
USER_CHARGES

@<TRIPOS>ATOM
      1 C1         -0.0166    1.3742    0.0096 C.ar      1 <0>        -0.1295
      2 C2          1.1717    2.0893    0.0021 C.ar      1 <0>        -0.1038
      3 C3          2.3848    1.4354   -0.0134 C.ar      1 <0>        -0.1177
      4 C4          2.4244    0.0449   -0.0212 C.ar      1 <0>         0.0703
      5 C5          1.2206   -0.6765   -0.0131 C.ar      1 <0>        -0.0546
      6 C6          0.0021   -0.0041    0.0020 C.ar      1 <0>        -0.0762
      7 C7          1.6047   -2.1014   -0.0245 C.2       1 <0>        -0.2771
      8 C8          2.9866   -2.1267   -0.0384 C.2       1 <0>         0.1669
      9 N1          3.4606   -0.8678   -0.0363 N.pl3     1 <0>        -0.5675
     10 H1          4.4018   -0.6331   -0.0447 H         1 <0>         0.4238
     11 C9          0.7049   -3.2538   -0.0213 C.2       1 <0>         0.4217
     12 O1         -0.4987   -3.0851   -0.0081 O.2       1 <0>        -0.4378
     13 C10         1.2641   -4.6367   -0.0343 C.2       1 <0>         0.4921
     14 O2          2.4661   -4.8053   -0.0475 O.2       1 <0>        -0.5174
     15 N2          0.4347   -5.6991   -0.0314 N.am      1 <0>        -0.7024
     16 C11         0.9839   -7.0572   -0.0441 C.3       1 <0>         0.2051
     17 C12        -0.1450   -8.0556   -0.0377 C.2       1 <0>        -0.1827
     18 C13        -0.7915   -8.6197   -1.0870 C.2       1 <0>        -0.1263
     19 C14        -1.8089   -9.5224   -0.8408 C.2       1 <0>        -0.1647
     20 C15        -2.1301   -9.8167    0.4428 C.2       1 <0>        -0.1596
     21 S1         -0.9725   -8.8081    1.3537 S.3       1 <0>         0.0558
     22 H2         -0.9603    1.8992    0.0259 H         1 <0>         0.1277
     23 H3          1.1462    3.1690    0.0081 H         1 <0>         0.1293
     24 H4          3.3042    2.0022   -0.0199 H         1 <0>         0.1241
     25 H5         -0.9242   -0.5594    0.0075 H         1 <0>         0.1320
     26 H6          3.5930   -3.0204   -0.0488 H         1 <0>         0.2031
     27 H7         -0.5259   -5.5644   -0.0208 H         1 <0>         0.4146
     28 H8          1.5873   -7.1967   -0.9411 H         1 <0>         0.0977
     29 H9          1.6055   -7.2060    0.8388 H         1 <0>         0.0901
     30 H10        -0.5160   -8.3675   -2.1004 H         1 <0>         0.1365
     31 H11        -2.3403   -9.9859   -1.6588 H         1 <0>         0.1376
     32 H12        -2.8872  -10.4898    0.8172 H         1 <0>         0.1888
@<TRIPOS>BOND
     1    1    6 ar
     2    1    2 ar
     3    1   22 1
     4    2    3 ar
     5    2   23 1
     6    3    4 ar
     7    3   24 1
     8    4    9 1
     9    4    5 ar
    10    5    6 ar
    11    5    7 1
    12    6   25 1
    13    7    8 2
    14    7   11 1
    15    8    9 1
    16    8   26 1
    17    9   10 1
    18   11   12 2
    19   11   13 1
    20   13   14 2
    21   13   15 am
    22   15   16 1
    23   15   27 1
    24   16   17 1
    25   16   28 1
    26   16   29 1
    27   17   21 1
    28   17   18 2
    29   18   19 1
    30   18   30 1
    31   19   20 2
    32   19   31 1
    33   20   21 1
    34   20   32 1
@<TRIPOS>MOLECULE
ZINC04062322
   34    36     0     0     0
SMALL
USER_CHARGES

@<TRIPOS>ATOM
      1 C1         -0.0166    1.3742    0.0096 C.ar      1 <0>        -0.1294
      2 C2          1.1717    2.0893    0.0021 C.ar      1 <0>        -0.1037
      3 C3          2.3848    1.4354   -0.0134 C.ar      1 <0>        -0.1176
      4 C4          2.4244    0.0449   -0.0212 C.ar      1 <0>         0.0702
      5 C5          1.2206   -0.6765   -0.0131 C.ar      1 <0>        -0.0547
      6 C6          0.0021   -0.0041    0.0020 C.ar      1 <0>        -0.0763
      7 C7          1.6047   -2.1014   -0.0245 C.2       1 <0>        -0.2774
      8 C8          2.9866   -2.1267   -0.0384 C.2       1 <0>         0.1670
      9 N1          3.4606   -0.8678   -0.0363 N.pl3     1 <0>        -0.5674
     10 H1          4.4018   -0.6331   -0.0447 H         1 <0>         0.4239
     11 C9          0.7049   -3.2538   -0.0213 C.2       1 <0>         0.4211
     12 O1         -0.4987   -3.0851   -0.0081 O.2       1 <0>        -0.4386
     13 C10         1.2641   -4.6367   -0.0343 C.2       1 <0>         0.4912
     14 O2          2.4661   -4.8053   -0.0475 O.2       1 <0>        -0.5171
     15 N2          0.4347   -5.6991   -0.0314 N.am      1 <0>        -0.7023
     16 C11         0.9839   -7.0572   -0.0441 C.3       1 <0>         0.1637
     17 C12        -0.1450   -8.0556   -0.0377 C.ar      1 <0>        -0.1686
     18 C13        -0.6624   -8.5226    1.1610 C.ar      1 <0>        -0.0540
     19 C14        -1.7005   -9.4404    1.1186 C.ar      1 <0>        -0.1733
     20 C15        -2.1819   -9.8565   -0.1086 C.ar      1 <0>         0.1094
     21 N3         -1.6651   -9.3912   -1.2288 N.ar      1 <0>        -0.4844
     22 C16        -0.6813   -8.5128   -1.2263 C.ar      1 <0>         0.1212
     23 H2         -0.9603    1.8992    0.0259 H         1 <0>         0.1278
     24 H3          1.1462    3.1690    0.0081 H         1 <0>         0.1294
     25 H4          3.3042    2.0022   -0.0199 H         1 <0>         0.1241
     26 H5         -0.9242   -0.5594    0.0075 H         1 <0>         0.1318
     27 H6          3.5930   -3.0204   -0.0488 H         1 <0>         0.2030
     28 H7         -0.5259   -5.5644   -0.0208 H         1 <0>         0.4129
     29 H8          1.5873   -7.1967   -0.9411 H         1 <0>         0.0876
     30 H9          1.6055   -7.2060    0.8388 H         1 <0>         0.0858
     31 H10        -0.2659   -8.1798    2.1053 H         1 <0>         0.1377
     32 H11        -2.1275   -9.8258    2.0327 H         1 <0>         0.1397
     33 H12        -2.9904  -10.5713   -0.1503 H         1 <0>         0.1595
     34 H13        -0.2871   -8.1503   -2.1642 H         1 <0>         0.1579
@<TRIPOS>BOND
     1    1    6 ar
     2    1    2 ar
     3    1   23 1
     4    2    3 ar
     5    2   24 1
     6    3    4 ar
     7    3   25 1
     8    4    9 1
     9    4    5 ar
    10    5    6 ar
    11    5    7 1
    12    6   26 1
    13    7    8 2
    14    7   11 1
    15    8    9 1
    16    8   27 1
    17    9   10 1
    18   11   12 2
    19   11   13 1
    20   13   14 2
    21   13   15 am
    22   15   16 1
    23   15   28 1
    24   16   17 1
    25   16   29 1
    26   16   30 1
    27   17   22 ar
    28   17   18 ar
    29   18   19 ar
    30   18   31 1
    31   19   20 ar
    32   19   32 1
    33   20   21 ar
    34   20   33 1
    35   21   22 ar
    36   22   34 1
@<TRIPOS>MOLECULE
ZINC04163167
   32    34     0     0     0
SMALL
USER_CHARGES

@<TRIPOS>ATOM
      1 C1         -0.0166    1.3742    0.0096 C.ar      1 <0>        -0.1294
      2 C2          1.1717    2.0893    0.0021 C.ar      1 <0>        -0.1038
      3 C3          2.3848    1.4354   -0.0134 C.ar      1 <0>        -0.1176
      4 C4          2.4244    0.0449   -0.0212 C.ar      1 <0>         0.0702
      5 C5          1.2206   -0.6765   -0.0131 C.ar      1 <0>        -0.0545
      6 C6          0.0021   -0.0041    0.0020 C.ar      1 <0>        -0.0763
      7 C7          1.6047   -2.1014   -0.0245 C.2       1 <0>        -0.2772
      8 C8          2.9866   -2.1267   -0.0384 C.2       1 <0>         0.1672
      9 N1          3.4606   -0.8678   -0.0363 N.pl3     1 <0>        -0.5673
     10 H1          4.4018   -0.6331   -0.0447 H         1 <0>         0.4239
     11 C9          0.7049   -3.2538   -0.0213 C.2       1 <0>         0.4221
     12 O1         -0.4987   -3.0851   -0.0081 O.2       1 <0>        -0.4376
     13 C10         1.2641   -4.6367   -0.0343 C.2       1 <0>         0.4930
     14 O2          2.4661   -4.8053   -0.0475 O.2       1 <0>        -0.5167
     15 N2          0.4347   -5.6991   -0.0314 N.am      1 <0>        -0.7035
     16 C11         0.9839   -7.0572   -0.0441 C.3       1 <0>         0.2013
     17 C12        -0.1450   -8.0556   -0.0377 C.2       1 <0>        -0.0477
     18 C13        -0.7418   -8.5750   -1.1255 C.2       1 <0>        -0.1766
     19 C14        -1.7403   -9.4616   -0.6608 C.2       1 <0>        -0.2185
     20 C15        -1.6938   -9.4309    0.6832 C.2       1 <0>        -0.0231
     21 O3         -0.7218   -8.5819    1.0549 O.3       1 <0>        -0.1708
     22 H2         -0.9603    1.8992    0.0259 H         1 <0>         0.1278
     23 H3          1.1462    3.1690    0.0081 H         1 <0>         0.1294
     24 H4          3.3042    2.0022   -0.0199 H         1 <0>         0.1241
     25 H5         -0.9242   -0.5594    0.0075 H         1 <0>         0.1320
     26 H6          3.5930   -3.0204   -0.0488 H         1 <0>         0.2032
     27 H7         -0.5259   -5.5644   -0.0208 H         1 <0>         0.4153
     28 H8          1.5873   -7.1967   -0.9411 H         1 <0>         0.1063
     29 H9          1.6055   -7.2060    0.8388 H         1 <0>         0.0924
     30 H10        -0.5044   -8.3563   -2.1561 H         1 <0>         0.1524
     31 H11        -2.4117  -10.0503   -1.2683 H         1 <0>         0.1527
     32 H12        -2.3279   -9.9961    1.3502 H         1 <0>         0.2071
@<TRIPOS>BOND
     1    1    6 ar
     2    1    2 ar
     3    1   22 1
     4    2    3 ar
     5    2   23 1
     6    3    4 ar
     7    3   24 1
     8    4    9 1
     9    4    5 ar
    10    5    6 ar
    11    5    7 1
    12    6   25 1
    13    7    8 2
    14    7   11 1
    15    8    9 1
    16    8   26 1
    17    9   10 1
    18   11   12 2
    19   11   13 1
    20   13   14 2
    21   13   15 am
    22   15   16 1
    23   15   27 1
    24   16   17 1
    25   16   28 1
    26   16   29 1
    27   17   21 1
    28   17   18 2
    29   18   19 1
    30   18   30 1
    31   19   20 2
    32   19   31 1
    33   20   21 1
    34   20   32 1
@<TRIPOS>MOLECULE
ZINC00025301
   27    29     0     0     0
SMALL
USER_CHARGES

@<TRIPOS>ATOM
      1 C1         -0.0173    1.4248    0.0099 C.3       1 <0>         0.0312
      2 O1          0.0021   -0.0041    0.0020 O.3       1 <0>        -0.3302
      3 C2          0.6204   -0.6130    1.0325 C.2       1 <0>         0.5293
      4 O2          1.1292    0.0507    1.9135 O.2       1 <0>        -0.5011
      5 C3          0.6797   -2.0882    1.0910 C.ar      1 <0>         0.0397
      6 C4          1.3159   -2.7095    2.1626 C.ar      1 <0>        -0.0329
      7 C5          1.3598   -4.1000    2.1971 C.ar      1 <0>        -0.0832
      8 C6          1.9195   -5.0927    3.1278 C.ar      1 <0>        -0.1038
      9 C7          2.6185   -4.9977    4.3293 C.ar      1 <0>        -0.0556
     10 C8          3.0181   -6.1435    4.9819 C.ar      1 <0>        -0.1427
     11 C9          2.7270   -7.3895    4.4472 C.ar      1 <0>        -0.0753
     12 C10         2.0365   -7.4987    3.2600 C.ar      1 <0>        -0.1378
     13 C11         1.6241   -6.3532    2.5853 C.ar      1 <0>         0.1402
     14 N1          0.9310   -6.1684    1.4028 N.pl3     1 <0>        -0.5952
     15 H1          0.6094   -6.8838    0.8322 H         1 <0>         0.4248
     16 C12         0.7612   -4.8255    1.1505 C.ar      1 <0>         0.1174
     17 C13         0.1456   -4.1204    0.1158 C.ar      1 <0>         0.0983
     18 N2          0.1196   -2.8083    0.1213 N.ar      1 <0>        -0.4043
     19 H2          1.0053    1.8021    0.0021 H         1 <0>         0.0622
     20 H3         -0.5445    1.7859   -0.8732 H         1 <0>         0.1054
     21 H4         -0.5275    1.7763    0.9067 H         1 <0>         0.0622
     22 H5          1.7663   -2.1243    2.9506 H         1 <0>         0.1540
     23 H6          2.8469   -4.0286    4.7478 H         1 <0>         0.1310
     24 H7          3.5603   -6.0709    5.9131 H         1 <0>         0.1325
     25 H8          3.0446   -8.2820    4.9658 H         1 <0>         0.1343
     26 H9          1.8151   -8.4740    2.8524 H         1 <0>         0.1294
     27 H10        -0.3191   -4.6604   -0.6960 H         1 <0>         0.1702
@<TRIPOS>BOND
     1    1    2 1
     2    1   19 1
     3    1   20 1
     4    1   21 1
     5    2    3 1
     6    3    4 2
     7    3    5 1
     8    5   18 ar
     9    5    6 ar
    10    6    7 ar
    11    6   22 1
    12    7   16 ar
    13    7    8 1
    14    8   13 ar
    15    8    9 ar
    16    9   10 ar
    17    9   23 1
    18   10   11 ar
    19   10   24 1
    20   11   12 ar
    21   11   25 1
    22   12   13 ar
    23   12   26 1
    24   13   14 1
    25   14   15 1
    26   14   16 1
    27   16   17 ar
    28   17   18 ar
    29   17   27 1
@<TRIPOS>MOLECULE
ZINC00025301
   28    30     0     0     0
SMALL
USER_CHARGES

@<TRIPOS>ATOM
      1 C1         -0.0173    1.4248    0.0099 C.3       1 <0>         0.0337
      2 O1          0.0021   -0.0041    0.0020 O.3       1 <0>        -0.3534
      3 C2          0.6204   -0.6130    1.0325 C.2       1 <0>         0.5041
      4 O2          1.1292    0.0507    1.9135 O.2       1 <0>        -0.4436
      5 C3          0.6797   -2.0882    1.0910 C.ar      1 <0>         0.0580
      6 C4          1.3159   -2.7095    2.1626 C.ar      1 <0>         0.0154
      7 C5          1.3598   -4.1000    2.1971 C.ar      1 <0>        -0.0130
      8 C6          1.9195   -5.0927    3.1278 C.ar      1 <0>        -0.1156
      9 C7          2.6185   -4.9977    4.3293 C.ar      1 <0>        -0.0440
     10 C8          3.0181   -6.1435    4.9819 C.ar      1 <0>        -0.1218
     11 C9          2.7270   -7.3895    4.4472 C.ar      1 <0>        -0.0454
     12 C10         2.0365   -7.4987    3.2600 C.ar      1 <0>        -0.1295
     13 C11         1.6241   -6.3532    2.5853 C.ar      1 <0>         0.1537
     14 N1          0.9310   -6.1684    1.4028 N.pl3     1 <0>        -0.5651
     15 H1          0.6094   -6.8838    0.8322 H         1 <0>         0.4401
     16 C12         0.7612   -4.8255    1.1505 C.ar      1 <0>         0.1320
     17 C13         0.1456   -4.1204    0.1158 C.ar      1 <0>         0.1499
     18 N2          0.1196   -2.8083    0.1213 N.ar      1 <0>        -0.3940
     19 H2          1.0053    1.8021    0.0021 H         1 <0>         0.0760
     20 H3         -0.5445    1.7859   -0.8732 H         1 <0>         0.1206
     21 H4         -0.5275    1.7763    0.9067 H         1 <0>         0.0760
     22 H5          1.7663   -2.1243    2.9506 H         1 <0>         0.1968
     23 H6          2.8469   -4.0286    4.7478 H         1 <0>         0.1444
     24 H7          3.5603   -6.0709    5.9131 H         1 <0>         0.1479
     25 H8          3.0446   -8.2820    4.9658 H         1 <0>         0.1500
     26 H9          1.8151   -8.4740    2.8524 H         1 <0>         0.1441
     27 H10        -0.3191   -4.6604   -0.6960 H         1 <0>         0.2209
     28 H11        -0.3196   -2.3463   -0.6098 H         1 <0>         0.4620
@<TRIPOS>BOND
     1    1    2 1
     2    1   19 1
     3    1   20 1
     4    1   21 1
     5    2    3 1
     6    3    4 2
     7    3    5 1
     8    5   18 ar
     9    5    6 ar
    10    6    7 ar
    11    6   22 1
    12    7   16 ar
    13    7    8 1
    14    8   13 ar
    15    8    9 ar
    16    9   10 ar
    17    9   23 1
    18   10   11 ar
    19   10   24 1
    20   11   12 ar
    21   11   25 1
    22   12   13 ar
    23   12   26 1
    24   13   14 1
    25   14   15 1
    26   14   16 1
    27   16   17 ar
    28   17   18 ar
    29   17   27 1
    30   18   28 1
@<TRIPOS>MOLECULE
ZINC02391117
   33    35     0     0     0
SMALL
USER_CHARGES

@<TRIPOS>ATOM
      1 C1         -0.0187    1.5258    0.0104 C.3       1 <0>        -0.1508
      2 C2          0.0021   -0.0041    0.0020 C.3       1 <0>        -0.1227
      3 C3          0.7182   -0.4975   -1.2568 C.3       1 <0>         0.0614
      4 O1          0.7376   -1.9263   -1.2646 O.3       1 <0>        -0.3286
      5 C4          1.3361   -2.5241   -2.3132 C.2       1 <0>         0.5311
      6 O2          1.8280   -1.8510   -3.1966 O.2       1 <0>        -0.5019
      7 C5          1.3941   -3.9986   -2.3886 C.ar      1 <0>         0.0403
      8 C6          2.0196   -4.6082   -3.4732 C.ar      1 <0>        -0.0333
      9 C7          2.0625   -5.9983   -3.5236 C.ar      1 <0>        -0.0831
     10 C8          2.6135   -6.9807   -4.4702 C.ar      1 <0>        -0.1039
     11 C9          3.3021   -6.8726   -5.6766 C.ar      1 <0>        -0.0555
     12 C10         3.6962   -8.0112   -6.3449 C.ar      1 <0>        -0.1428
     13 C11         3.4100   -9.2630   -5.8211 C.ar      1 <0>        -0.0754
     14 C12         2.7299   -9.3851   -4.6292 C.ar      1 <0>        -0.1378
     15 C13         2.3231   -8.2470   -3.9387 C.ar      1 <0>         0.1403
     16 N1          1.6410   -8.0751   -2.7479 N.pl3     1 <0>        -0.5953
     17 H1          1.3256   -8.7967   -2.1816 H         1 <0>         0.4248
     18 C14         1.4736   -6.7350   -2.4794 C.ar      1 <0>         0.1173
     19 C15         0.8677   -6.0413   -1.4314 C.ar      1 <0>         0.0981
     20 N2          0.8525   -4.7291   -1.4163 N.ar      1 <0>        -0.4038
     21 H2          1.0039    1.9031    0.0027 H         1 <0>         0.0582
     22 H3         -0.5459    1.8868   -0.8726 H         1 <0>         0.0582
     23 H4         -0.5289    1.8773    0.9072 H         1 <0>         0.0658
     24 H5          0.5293   -0.3651    0.8851 H         1 <0>         0.0750
     25 H6         -1.0205   -0.3814    0.0098 H         1 <0>         0.0751
     26 H7          0.1910   -0.1364   -2.1398 H         1 <0>         0.0692
     27 H8          1.7408   -0.1202   -1.2645 H         1 <0>         0.0692
     28 H9          2.4621   -4.0144   -4.2593 H         1 <0>         0.1539
     29 H10         3.5260   -5.8990   -6.0869 H         1 <0>         0.1310
     30 H11         4.2297   -7.9285   -7.2803 H         1 <0>         0.1325
     31 H12         3.7227  -10.1498   -6.3524 H         1 <0>         0.1343
     32 H13         2.5121  -10.3648   -4.2302 H         1 <0>         0.1294
     33 H14         0.4106   -6.5901   -0.6213 H         1 <0>         0.1699
@<TRIPOS>BOND
     1    1    2 1
     2    1   21 1
     3    1   22 1
     4    1   23 1
     5    2    3 1
     6    2   24 1
     7    2   25 1
     8    3    4 1
     9    3   26 1
    10    3   27 1
    11    4    5 1
    12    5    6 2
    13    5    7 1
    14    7   20 ar
    15    7    8 ar
    16    8    9 ar
    17    8   28 1
    18    9   18 ar
    19    9   10 1
    20   10   15 ar
    21   10   11 ar
    22   11   12 ar
    23   11   29 1
    24   12   13 ar
    25   12   30 1
    26   13   14 ar
    27   13   31 1
    28   14   15 ar
    29   14   32 1
    30   15   16 1
    31   16   17 1
    32   16   18 1
    33   18   19 ar
    34   19   20 ar
    35   19   33 1
@<TRIPOS>MOLECULE
ZINC02391117
   34    36     0     0     0
SMALL
USER_CHARGES

@<TRIPOS>ATOM
      1 C1         -0.0187    1.5258    0.0104 C.3       1 <0>        -0.1549
      2 C2          0.0021   -0.0041    0.0020 C.3       1 <0>        -0.1239
      3 C3         -1.4333   -0.5336    0.0129 C.3       1 <0>         0.0659
      4 O1         -1.4139   -1.9625    0.0050 O.3       1 <0>        -0.3534
      5 C4         -2.6059   -2.5904    0.0130 C.2       1 <0>         0.5062
      6 O2         -3.6334   -1.9428    0.0263 O.2       1 <0>        -0.4444
      7 C5         -2.6632   -4.0668    0.0056 C.ar      1 <0>         0.0585
      8 C6         -3.8995   -4.7076    0.0083 C.ar      1 <0>         0.0151
      9 C7         -3.9297   -6.0989    0.0012 C.ar      1 <0>        -0.0128
     10 C8         -4.9999   -7.1085    0.0007 C.ar      1 <0>        -0.1157
     11 C9         -6.3913   -7.0354    0.0071 C.ar      1 <0>        -0.0439
     12 C10        -7.1382   -8.1930    0.0039 C.ar      1 <0>        -0.1219
     13 C11        -6.5104   -9.4295   -0.0057 C.ar      1 <0>        -0.0454
     14 C12        -5.1354   -9.5171   -0.0122 C.ar      1 <0>        -0.1296
     15 C13        -4.3628   -8.3593   -0.0091 C.ar      1 <0>         0.1539
     16 N1         -2.9953   -8.1531   -0.0143 N.pl3     1 <0>        -0.5653
     17 H1         -2.3292   -8.8582   -0.0218 H         1 <0>         0.4401
     18 C14        -2.7128   -6.8054   -0.0083 C.ar      1 <0>         0.1319
     19 C15        -1.5200   -6.0815   -0.0099 C.ar      1 <0>         0.1494
     20 N2         -1.5323   -4.7692   -0.0089 N.ar      1 <0>        -0.3940
     21 H2          1.0039    1.9031    0.0027 H         1 <0>         0.0729
     22 H3         -0.5459    1.8868   -0.8726 H         1 <0>         0.0624
     23 H4         -0.5289    1.8773    0.9072 H         1 <0>         0.0624
     24 H5          0.5123   -0.3556   -0.8948 H         1 <0>         0.0776
     25 H6          0.5293   -0.3651    0.8851 H         1 <0>         0.0776
     26 H7         -1.9435   -0.1821    0.9097 H         1 <0>         0.0829
     27 H8         -1.9605   -0.1726   -0.8702 H         1 <0>         0.0828
     28 H9         -4.8161   -4.1366    0.0160 H         1 <0>         0.1968
     29 H10        -6.8829   -6.0738    0.0150 H         1 <0>         0.1443
     30 H11        -8.2168   -8.1374    0.0092 H         1 <0>         0.1478
     31 H12        -7.1043  -10.3315   -0.0078 H         1 <0>         0.1500
     32 H13        -4.6566  -10.4852   -0.0197 H         1 <0>         0.1440
     33 H14        -0.5764   -6.6068   -0.0172 H         1 <0>         0.2207
     34 H15        -0.6868   -4.2938   -0.0144 H         1 <0>         0.4619
@<TRIPOS>BOND
     1    1    2 1
     2    1   21 1
     3    1   22 1
     4    1   23 1
     5    2    3 1
     6    2   24 1
     7    2   25 1
     8    3    4 1
     9    3   26 1
    10    3   27 1
    11    4    5 1
    12    5    6 2
    13    5    7 1
    14    7   20 ar
    15    7    8 ar
    16    8    9 ar
    17    8   28 1
    18    9   18 ar
    19    9   10 1
    20   10   15 ar
    21   10   11 ar
    22   11   12 ar
    23   11   29 1
    24   12   13 ar
    25   12   30 1
    26   13   14 ar
    27   13   31 1
    28   14   15 ar
    29   14   32 1
    30   15   16 1
    31   16   17 1
    32   16   18 1
    33   18   19 ar
    34   19   20 ar
    35   19   33 1
    36   20   34 1
@<TRIPOS>MOLECULE
ZINC06018490
   35    38     0     0     0
SMALL
USER_CHARGES

@<TRIPOS>ATOM
      1 C1         -0.0173    1.4248    0.0099 C.3       1 <0>         0.0230
      2 O1          0.0021   -0.0041    0.0020 O.3       1 <0>        -0.3111
      3 C2          0.6060   -0.6073   -1.0560 C.ar      1 <0>         0.1400
      4 C3          1.1727    0.1620   -2.0621 C.ar      1 <0>        -0.1913
      5 C4          1.7862   -0.4500   -3.1368 C.ar      1 <0>        -0.0548
      6 C5          1.8359   -1.8358   -3.2108 C.ar      1 <0>         0.0906
      7 C6          1.2685   -2.6051   -2.2037 C.ar      1 <0>        -0.0737
      8 C7          0.6603   -1.9919   -1.1266 C.ar      1 <0>        -0.1307
      9 N1          2.4583   -2.4579   -4.3022 N.pl3     1 <0>        -0.2920
     10 C8          3.1533   -3.6104   -4.2438 C.2       1 <0>         0.3315
     11 O2          3.3689   -4.3591   -3.1356 O.3       1 <0>        -0.4500
     12 C9          3.6078   -3.8925   -5.5241 C.ar      1 <0>        -0.2847
     13 C10         4.3693   -4.9200   -6.1155 C.ar      1 <0>         0.2491
     14 N2          4.6487   -4.9192   -7.3879 N.ar      1 <0>        -0.5044
     15 C11         4.2483   -3.9587   -8.2513 C.ar      1 <0>         0.1338
     16 C12         4.5945   -4.0373   -9.6070 C.ar      1 <0>        -0.0940
     17 C13         4.1841   -3.0572  -10.4792 C.ar      1 <0>        -0.0955
     18 C14         3.4257   -1.9823  -10.0352 C.ar      1 <0>        -0.1238
     19 C15         3.0713   -1.8812   -8.7078 C.ar      1 <0>        -0.0779
     20 C16         3.4769   -2.8628   -7.8076 C.ar      1 <0>        -0.0650
     21 C17         3.1228   -2.7959   -6.3820 C.ar      1 <0>         0.1462
     22 N3          2.4455   -1.9776   -5.6172 N.2       1 <0>        -0.2589
     23 H1          1.0053    1.8021    0.0021 H         1 <0>         0.0595
     24 H2         -0.5445    1.7859   -0.8732 H         1 <0>         0.0596
     25 H3         -0.5275    1.7763    0.9067 H         1 <0>         0.1056
     26 H4          1.1337    1.2397   -2.0046 H         1 <0>         0.1422
     27 H5          2.2270    0.1488   -3.9200 H         1 <0>         0.1403
     28 H6          1.3065   -3.6829   -2.2609 H         1 <0>         0.1342
     29 H7          0.2228   -2.5901   -0.3410 H         1 <0>         0.1466
     30 H8          4.7310   -5.7288   -5.4980 H         1 <0>         0.1642
     31 H9          5.1840   -4.8677   -9.9665 H         1 <0>         0.1386
     32 H10         4.4553   -3.1239  -11.5225 H         1 <0>         0.1327
     33 H11         3.1123   -1.2210  -10.7342 H         1 <0>         0.1311
     34 H12         2.4816   -1.0432   -8.3665 H         1 <0>         0.1309
     35 H13         2.6915   -5.0306   -2.9767 H         1 <0>         0.4080
@<TRIPOS>BOND
     1    1    2 1
     2    1   23 1
     3    1   24 1
     4    1   25 1
     5    2    3 1
     6    3    8 ar
     7    3    4 ar
     8    4    5 ar
     9    4   26 1
    10    5    6 ar
    11    5   27 1
    12    6    7 ar
    13    6    9 1
    14    7    8 ar
    15    7   28 1
    16    8   29 1
    17    9   22 1
    18    9   10 1
    19   10   11 1
    20   10   12 2
    21   11   35 1
    22   12   21 ar
    23   12   13 ar
    24   13   14 ar
    25   13   30 1
    26   14   15 ar
    27   15   20 ar
    28   15   16 ar
    29   16   17 ar
    30   16   31 1
    31   17   18 ar
    32   17   32 1
    33   18   19 ar
    34   18   33 1
    35   19   20 ar
    36   19   34 1
    37   20   21 ar
    38   21   22 2
@<TRIPOS>MOLECULE
ZINC01803423
   39    41     0     0     0
SMALL
USER_CHARGES
2-(1H-indol-3-yl)-N-[(4-methoxyphenyl)methyl]-2-oxo-acetamide
@<TRIPOS>ATOM
      1 C1          2.4257    4.1084    0.0005 C.3       1 <0>         0.0254
      2 O1          1.1601    3.4449    0.0090 O.3       1 <0>        -0.3160
      3 C2          1.1759    2.0860    0.0020 C.ar      1 <0>         0.1389
      4 C3         -0.0167    1.3772    0.0096 C.ar      1 <0>        -0.1535
      5 C4          0.0021   -0.0041    0.0020 C.ar      1 <0>        -0.0573
      6 C5          1.2080   -0.6802   -0.0131 C.ar      1 <0>        -0.1544
      7 C6          2.3980    0.0239   -0.0207 C.ar      1 <0>        -0.0565
      8 C7          2.3846    1.4052   -0.0127 C.ar      1 <0>        -0.2106
      9 C8          1.2256   -2.1871   -0.0209 C.3       1 <0>         0.1635
     10 N1          1.2178   -2.6684   -1.4045 N.am      1 <0>        -0.7004
     11 C9          1.2308   -3.9921   -1.6576 C.2       1 <0>         0.4894
     12 O2          1.2489   -4.7855   -0.7391 O.2       1 <0>        -0.5198
     13 C10         1.2229   -4.4823   -3.0665 C.2       1 <0>         0.4205
     14 O3          1.2047   -3.6878   -3.9863 O.2       1 <0>        -0.4392
     15 C11         1.2370   -5.9182   -3.3411 C.2       1 <0>        -0.2770
     16 C12         1.2640   -6.9412   -2.4118 C.2       1 <0>         0.1668
     17 N2          1.2664   -8.1272   -3.0467 N.pl3     1 <0>        -0.5680
     18 H1          1.2814   -8.9897   -2.6033 H         1 <0>         0.4236
     19 C13         1.2508   -7.9490   -4.4161 C.ar      1 <0>         0.0703
     20 C14         1.2317   -6.5677   -4.6663 C.ar      1 <0>        -0.0547
     21 C15         1.2127   -6.0942   -5.9745 C.ar      1 <0>        -0.0762
     22 C16         1.2128   -6.9883   -7.0241 C.ar      1 <0>        -0.1298
     23 C17         1.2315   -8.3529   -6.7795 C.ar      1 <0>        -0.1040
     24 C18         1.2504   -8.8349   -5.4880 C.ar      1 <0>        -0.1180
     25 H2          2.9777    3.8266   -0.8961 H         1 <0>         0.0574
     26 H3          2.2703    5.1873    0.0074 H         1 <0>         0.1026
     27 H4          2.9944    3.8176    0.8838 H         1 <0>         0.0573
     28 H5         -0.9589    1.9049    0.0169 H         1 <0>         0.1344
     29 H6         -0.9260   -0.5563    0.0083 H         1 <0>         0.1328
     30 H7          3.3387   -0.5065   -0.0325 H         1 <0>         0.1281
     31 H8          3.3144    1.9547   -0.0186 H         1 <0>         0.1314
     32 H9          2.1247   -2.5426    0.4824 H         1 <0>         0.0818
     33 H10         0.3449   -2.5634    0.4997 H         1 <0>         0.0827
     34 H11         1.2033   -2.0344   -2.1385 H         1 <0>         0.4129
     35 H12         1.2781   -6.8087   -1.3401 H         1 <0>         0.2031
     36 H13         1.1977   -5.0315   -6.1668 H         1 <0>         0.1319
     37 H14         1.1981   -6.6242   -8.0408 H         1 <0>         0.1276
     38 H15         1.2310   -9.0449   -7.6087 H         1 <0>         0.1292
     39 H16         1.2646   -9.8999   -5.3089 H         1 <0>         0.1239
@<TRIPOS>BOND
     1    1    2 1
     2    1   25 1
     3    1   26 1
     4    1   27 1
     5    2    3 1
     6    3    8 ar
     7    3    4 ar
     8    4    5 ar
     9    4   28 1
    10    5    6 ar
    11    5   29 1
    12    6    7 ar
    13    6    9 1
    14    7    8 ar
    15    7   30 1
    16    8   31 1
    17    9   10 1
    18    9   32 1
    19    9   33 1
    20   10   11 am
    21   10   34 1
    22   11   12 2
    23   11   13 1
    24   13   14 2
    25   13   15 1
    26   15   20 1
    27   15   16 2
    28   16   17 1
    29   16   35 1
    30   17   18 1
    31   17   19 1
    32   19   24 ar
    33   19   20 ar
    34   20   21 ar
    35   21   22 ar
    36   21   36 1
    37   22   23 ar
    38   22   37 1
    39   23   24 ar
    40   23   38 1
    41   24   39 1
@<TRIPOS>MOLECULE
ZINC04163146
   35    37     0     0     0
SMALL
USER_CHARGES

@<TRIPOS>ATOM
      1 C1         -0.0167    1.3780    0.0096 C.ar      1 <0>        -0.1158
      2 C2          1.1709    2.0861    0.0021 C.ar      1 <0>        -0.0961
      3 C3          2.3773    1.4123   -0.0135 C.ar      1 <0>        -0.1116
      4 C4          2.3967    0.0287   -0.0210 C.ar      1 <0>        -0.0204
      5 C5          1.2083   -0.6792   -0.0130 C.ar      1 <0>        -0.1075
      6 C6          0.0021   -0.0041    0.0020 C.ar      1 <0>        -0.0860
      7 C7          1.2286   -2.1860   -0.0218 C.3       1 <0>         0.1566
      8 N1          1.4887   -2.6787    1.3331 N.am      1 <0>        -0.6974
      9 C8          1.5517   -4.0045    1.5675 C.2       1 <0>         0.4918
     10 O1          1.3929   -4.7902    0.6560 O.2       1 <0>        -0.5181
     11 C9          1.8166   -4.5062    2.9472 C.2       1 <0>         0.4212
     12 O2          1.9756   -3.7194    3.8599 O.2       1 <0>        -0.4382
     13 C10         1.8849   -5.9443    3.2015 C.2       1 <0>        -0.2767
     14 C11         1.7330   -6.9595    2.2758 C.2       1 <0>         0.1667
     15 N2          1.8628   -8.1506    2.8874 N.pl3     1 <0>        -0.5679
     16 H1          1.7959   -9.0094    2.4414 H         1 <0>         0.4236
     17 C12         2.1049   -7.9839    4.2367 C.ar      1 <0>         0.0705
     18 C13         2.1364   -6.6048    4.4971 C.ar      1 <0>        -0.0546
     19 C14         2.3700   -6.1420    5.7884 C.ar      1 <0>        -0.0761
     20 C15         2.5737   -7.0447    6.8105 C.ar      1 <0>        -0.1298
     21 C16         2.5463   -8.4072    6.5551 C.ar      1 <0>        -0.1040
     22 C17         2.3081   -8.8787    5.2817 C.ar      1 <0>        -0.1180
     23 Cl1         3.9119   -0.8184   -0.0411 Cl        1 <0>        -0.0588
     24 H2         -0.9592    1.9049    0.0259 H         1 <0>         0.1335
     25 H3          1.1556    3.1659    0.0080 H         1 <0>         0.1355
     26 H4          3.3048    1.9655   -0.0201 H         1 <0>         0.1371
     27 H5         -0.9258   -0.5566    0.0079 H         1 <0>         0.1358
     28 H6          0.2643   -2.5603   -0.3656 H         1 <0>         0.0875
     29 H7          2.0139   -2.5349   -0.6923 H         1 <0>         0.0888
     30 H8          1.6155   -2.0509    2.0615 H         1 <0>         0.4128
     31 H9          1.5395   -6.8181    1.2227 H         1 <0>         0.2030
     32 H10         2.3920   -5.0810    5.9889 H         1 <0>         0.1319
     33 H11         2.7556   -6.6891    7.8139 H         1 <0>         0.1276
     34 H12         2.7070   -9.1060    7.3628 H         1 <0>         0.1292
     35 H13         2.2904   -9.9421    5.0936 H         1 <0>         0.1239
@<TRIPOS>BOND
     1    1    6 ar
     2    1    2 ar
     3    1   24 1
     4    2    3 ar
     5    2   25 1
     6    3    4 ar
     7    3   26 1
     8    4    5 ar
     9    4   23 1
    10    5    6 ar
    11    5    7 1
    12    6   27 1
    13    7    8 1
    14    7   28 1
    15    7   29 1
    16    8    9 am
    17    8   30 1
    18    9   10 2
    19    9   11 1
    20   11   12 2
    21   11   13 1
    22   13   18 1
    23   13   14 2
    24   14   15 1
    25   14   31 1
    26   15   16 1
    27   15   17 1
    28   17   22 ar
    29   17   18 ar
    30   18   19 ar
    31   19   20 ar
    32   19   32 1
    33   20   21 ar
    34   20   33 1
    35   21   22 ar
    36   21   34 1
    37   22   35 1
@<TRIPOS>MOLECULE
ZINC04163174
   41    43     0     0     0
SMALL
USER_CHARGES

@<TRIPOS>ATOM
      1 C1         -0.0167    1.3781    0.0096 C.ar      1 <0>        -0.1236
      2 C2          1.1709    2.0855    0.0021 C.ar      1 <0>        -0.1181
      3 C3          2.3773    1.4107   -0.0130 C.ar      1 <0>        -0.1171
      4 C4          2.3960    0.0285   -0.0201 C.ar      1 <0>        -0.0844
      5 C5          1.2084   -0.6789   -0.0117 C.ar      1 <0>        -0.1170
      6 C6          0.0021   -0.0041    0.0020 C.ar      1 <0>        -0.1181
      7 C7          3.7112   -0.7071   -0.0376 C.3       1 <0>        -0.0769
      8 C8          4.1714   -0.9633    1.3989 C.3       1 <0>        -0.1278
      9 C9          5.5066   -1.7102    1.3812 C.3       1 <0>         0.1145
     10 N1          5.9472   -1.9554    2.7567 N.am      1 <0>        -0.7047
     11 C10         7.1061   -2.6035    2.9876 C.2       1 <0>         0.4895
     12 O1          7.7848   -2.9840    2.0559 O.2       1 <0>        -0.5193
     13 C11         7.5548   -2.8533    4.3881 C.2       1 <0>         0.4205
     14 O2          6.8752   -2.4723    5.3211 O.2       1 <0>        -0.4398
     15 C12         8.8120   -3.5563    4.6386 C.2       1 <0>        -0.2775
     16 C13         9.6940   -4.0435    3.6923 C.2       1 <0>         0.1669
     17 N2         10.7375   -4.6286    4.3074 N.pl3     1 <0>        -0.5679
     18 H1         11.4855   -5.0430    3.8495 H         1 <0>         0.4237
     19 C14        10.5988   -4.5581    5.6796 C.ar      1 <0>         0.0703
     20 C15         9.3986   -3.8832    5.9529 C.ar      1 <0>        -0.0548
     21 C16         9.0043   -3.6624    7.2689 C.ar      1 <0>        -0.0762
     22 C17         9.8001   -4.1069    8.3034 C.ar      1 <0>        -0.1296
     23 C18        10.9876   -4.7708    8.0360 C.ar      1 <0>        -0.1039
     24 C19        11.3856   -5.0028    6.7366 C.ar      1 <0>        -0.1179
     25 H2         -0.9591    1.9053    0.0259 H         1 <0>         0.1214
     26 H3          1.1563    3.1654    0.0076 H         1 <0>         0.1220
     27 H4          3.3051    1.9634   -0.0196 H         1 <0>         0.1215
     28 H5          1.2231   -1.7588   -0.0176 H         1 <0>         0.1215
     29 H6         -0.9258   -0.5567    0.0082 H         1 <0>         0.1220
     30 H7          3.5884   -1.6586   -0.5549 H         1 <0>         0.0773
     31 H8          4.4573   -0.1052   -0.5563 H         1 <0>         0.0773
     32 H9          4.2941   -0.0118    1.9163 H         1 <0>         0.0740
     33 H10         3.4252   -1.5652    1.9176 H         1 <0>         0.0740
     34 H11         5.3838   -2.6617    0.8639 H         1 <0>         0.0751
     35 H12         6.2527   -1.1082    0.8625 H         1 <0>         0.0751
     36 H13         5.4048   -1.6514    3.5012 H         1 <0>         0.4122
     37 H14         9.5649   -3.9664    2.6228 H         1 <0>         0.2029
     38 H15         8.0798   -3.1452    7.4789 H         1 <0>         0.1319
     39 H16         9.4974   -3.9370    9.3261 H         1 <0>         0.1277
     40 H17        11.6037   -5.1150    8.8536 H         1 <0>         0.1293
     41 H18        12.3132   -5.5196    6.5396 H         1 <0>         0.1240
@<TRIPOS>BOND
     1    1    6 ar
     2    1    2 ar
     3    1   25 1
     4    2    3 ar
     5    2   26 1
     6    3    4 ar
     7    3   27 1
     8    4    5 ar
     9    4    7 1
    10    5    6 ar
    11    5   28 1
    12    6   29 1
    13    7    8 1
    14    7   30 1
    15    7   31 1
    16    8    9 1
    17    8   32 1
    18    8   33 1
    19    9   10 1
    20    9   34 1
    21    9   35 1
    22   10   11 am
    23   10   36 1
    24   11   12 2
    25   11   13 1
    26   13   14 2
    27   13   15 1
    28   15   20 1
    29   15   16 2
    30   16   17 1
    31   16   37 1
    32   17   18 1
    33   17   19 1
    34   19   24 ar
    35   19   20 ar
    36   20   21 ar
    37   21   22 ar
    38   21   38 1
    39   22   23 ar
    40   22   39 1
    41   23   24 ar
    42   23   40 1
    43   24   41 1
@<TRIPOS>MOLECULE
ZINC06701735
   39    41     0     0     0
SMALL
USER_CHARGES
2-(1H-indol-3-yl)-N-[(3-methoxyphenyl)methyl]-2-oxo-acetamide
@<TRIPOS>ATOM
      1 C1         -1.4654    4.8628   -4.6068 C.3       1 <0>         0.0262
      2 O1         -0.7321    4.4537   -3.4506 O.3       1 <0>        -0.3164
      3 C2         -1.0687    3.2590   -2.8973 C.ar      1 <0>         0.1265
      4 C3         -2.0839    2.4957   -3.4561 C.ar      1 <0>        -0.1981
      5 C4         -2.4238    1.2816   -2.8921 C.ar      1 <0>        -0.0798
      6 C5         -1.7498    0.8241   -1.7746 C.ar      1 <0>        -0.1363
      7 C6         -0.7416    1.5850   -1.2129 C.ar      1 <0>        -0.0755
      8 C7         -0.3977    2.8002   -1.7733 C.ar      1 <0>        -0.1317
      9 C8         -0.0127    1.0858    0.0080 C.3       1 <0>         0.1590
     10 N1         -0.6984    1.5583    1.2133 N.am      1 <0>        -0.6999
     11 C9         -0.2219    1.2324    2.4312 C.2       1 <0>         0.4905
     12 O2          0.7754    0.5475    2.5294 O.2       1 <0>        -0.5187
     13 C10        -0.9202    1.7135    3.6585 C.2       1 <0>         0.4211
     14 O3         -1.9188    2.3994    3.5602 O.2       1 <0>        -0.4386
     15 C11        -0.4033    1.3600    4.9797 C.2       1 <0>        -0.2771
     16 C12         0.7097    0.5885    5.2569 C.2       1 <0>         0.1669
     17 N2          0.8681    0.4877    6.5889 N.pl3     1 <0>        -0.5679
     18 H1          1.5828   -0.0036    7.0234 H         1 <0>         0.4237
     19 C13        -0.1293    1.1739    7.2535 C.ar      1 <0>         0.0703
     20 C14        -0.9682    1.7496    6.2863 C.ar      1 <0>        -0.0545
     21 C15        -2.0684    2.5068    6.6762 C.ar      1 <0>        -0.0762
     22 C16        -2.3308    2.6889    8.0176 C.ar      1 <0>        -0.1297
     23 C17        -1.5037    2.1213    8.9747 C.ar      1 <0>        -0.1040
     24 C18        -0.4104    1.3689    8.6014 C.ar      1 <0>        -0.1179
     25 H2         -2.5232    4.9437   -4.3563 H         1 <0>         0.0569
     26 H3         -1.0975    5.8309   -4.9467 H         1 <0>         0.1024
     27 H4         -1.3350    4.1259   -5.3993 H         1 <0>         0.0567
     28 H5         -2.6075    2.8506   -4.3314 H         1 <0>         0.1305
     29 H6         -3.2136    0.6870   -3.3269 H         1 <0>         0.1292
     30 H7         -2.0141   -0.1276   -1.3377 H         1 <0>         0.1276
     31 H8          0.3925    3.3926   -1.3363 H         1 <0>         0.1336
     32 H9          0.0021   -0.0041    0.0020 H         1 <0>         0.0865
     33 H10         1.0099    1.4631    0.0003 H         1 <0>         0.0854
     34 H11        -1.4954    2.1056    1.1349 H         1 <0>         0.4137
     35 H12         1.3549    0.1379    4.5173 H         1 <0>         0.2031
     36 H13        -2.7135    2.9499    5.9320 H         1 <0>         0.1319
     37 H14        -3.1839    3.2761    8.3239 H         1 <0>         0.1276
     38 H15        -1.7177    2.2703   10.0227 H         1 <0>         0.1292
     39 H16         0.2275    0.9316    9.3552 H         1 <0>         0.1239
@<TRIPOS>BOND
     1    1    2 1
     2    1   25 1
     3    1   26 1
     4    1   27 1
     5    2    3 1
     6    3    8 ar
     7    3    4 ar
     8    4    5 ar
     9    4   28 1
    10    5    6 ar
    11    5   29 1
    12    6    7 ar
    13    6   30 1
    14    7    8 ar
    15    7    9 1
    16    8   31 1
    17    9   10 1
    18    9   32 1
    19    9   33 1
    20   10   11 am
    21   10   34 1
    22   11   12 2
    23   11   13 1
    24   13   14 2
    25   13   15 1
    26   15   20 1
    27   15   16 2
    28   16   17 1
    29   16   35 1
    30   17   18 1
    31   17   19 1
    32   19   24 ar
    33   19   20 ar
    34   20   21 ar
    35   21   22 ar
    36   21   36 1
    37   22   23 ar
    38   22   37 1
    39   23   24 ar
    40   23   38 1
    41   24   39 1
@<TRIPOS>MOLECULE
ZINC34924544
   31    33     0     0     0
SMALL
USER_CHARGES

@<TRIPOS>ATOM
      1 C1         -0.0173    1.4248    0.0099 C.3       1 <0>         0.0333
      2 O1          0.0021   -0.0041    0.0020 O.3       1 <0>        -0.3528
      3 C2          0.6181   -0.6108    1.0287 C.2       1 <0>         0.4691
      4 O2          1.1242    0.0494    1.9050 O.2       1 <0>        -0.4907
      5 C3          0.6786   -2.1154    1.0883 C.3       1 <0>         0.0989
      6 H1         -0.2745   -2.5307    0.7611 H         1 <0>         0.1216
      7 C4          1.7992   -2.6194    0.1685 C.3       1 <0>        -0.0669
      8 C5          2.0136   -4.0843    0.4552 C.2       1 <0>        -0.1720
      9 C6          2.7133   -5.0783   -0.3274 C.ar      1 <0>        -0.0962
     10 C7          3.3925   -5.0217   -1.5486 C.ar      1 <0>        -0.0682
     11 C8          3.9511   -6.1904   -2.0035 C.ar      1 <0>        -0.1466
     12 C9          3.8538   -7.3772   -1.2955 C.ar      1 <0>        -0.0987
     13 C10         3.1885   -7.4623   -0.0849 C.ar      1 <0>        -0.1300
     14 C11         2.6106   -6.2916    0.4018 C.ar      1 <0>         0.0978
     15 N1          1.8976   -6.0261    1.5361 N.pl3     1 <0>        -0.5769
     16 H2          1.6757   -6.6765    2.2207 H         1 <0>         0.4174
     17 C12         1.5441   -4.7045    1.5617 C.2       1 <0>         0.0321
     18 C13         0.7548   -3.9900    2.6331 C.3       1 <0>         0.1270
     19 N2          0.9504   -2.5406    2.4687 N.3       1 <0>        -0.6573
     20 H3          1.0053    1.8021    0.0021 H         1 <0>         0.0614
     21 H4         -0.5445    1.7859   -0.8732 H         1 <0>         0.1040
     22 H5         -0.5275    1.7763    0.9067 H         1 <0>         0.0622
     23 H6          1.5083   -2.4866   -0.8735 H         1 <0>         0.0926
     24 H7          2.7170   -2.0666    0.3689 H         1 <0>         0.0798
     25 H8          3.4736   -4.1014   -2.1080 H         1 <0>         0.1292
     26 H9          4.4829   -6.1845   -2.9434 H         1 <0>         0.1197
     27 H10         4.3130   -8.2662   -1.7020 H         1 <0>         0.1224
     28 H11         3.1198   -8.3937    0.4575 H         1 <0>         0.1285
     29 H12        -0.3033   -4.2307    2.5304 H         1 <0>         0.1000
     30 H13         1.1098   -4.2983    3.6165 H         1 <0>         0.0991
     31 H14         1.8780   -2.2662    2.7556 H         1 <0>         0.3601
@<TRIPOS>BOND
     1    1    2 1
     2    1   20 1
     3    1   21 1
     4    1   22 1
     5    2    3 1
     6    3    4 2
     7    3    5 1
     8    5    6 1
     9    5   19 1
    10    5    7 1
    11    7    8 1
    12    7   23 1
    13    7   24 1
    14    8   17 2
    15    8    9 1
    16    9   14 ar
    17    9   10 ar
    18   10   11 ar
    19   10   25 1
    20   11   12 ar
    21   11   26 1
    22   12   13 ar
    23   12   27 1
    24   13   14 ar
    25   13   28 1
    26   14   15 1
    27   15   16 1
    28   15   17 1
    29   17   18 1
    30   18   19 1
    31   18   29 1
    32   18   30 1
    33   19   31 1
@<TRIPOS>MOLECULE
ZINC35076415
   31    33     0     0     0
SMALL
USER_CHARGES

@<TRIPOS>ATOM
      1 C1         -0.0173    1.4248    0.0099 C.3       1 <0>         0.0327
      2 O1          0.0021   -0.0041    0.0020 O.3       1 <0>        -0.3523
      3 C2          0.6181   -0.6108    1.0287 C.2       1 <0>         0.4603
      4 O2          1.1242    0.0494    1.9050 O.2       1 <0>        -0.4845
      5 C3          0.6786   -2.1154    1.0883 C.3       1 <0>         0.1009
      6 H1          0.8631   -2.5116    0.0898 H         1 <0>         0.0819
      7 C4         -0.6552   -2.6607    1.6169 C.3       1 <0>        -0.0275
      8 C5         -0.4713   -4.1261    1.9216 C.2       1 <0>        -0.1559
      9 C6         -1.4696   -5.1486    2.1408 C.ar      1 <0>        -0.0979
     10 C7         -2.8679   -5.1271    2.1449 C.ar      1 <0>        -0.0669
     11 C8         -3.5067   -6.3161    2.3957 C.ar      1 <0>        -0.1479
     12 C9         -2.8105   -7.4897    2.6349 C.ar      1 <0>        -0.0989
     13 C10        -1.4274   -7.5403    2.6370 C.ar      1 <0>        -0.1307
     14 C11        -0.7515   -6.3482    2.3855 C.ar      1 <0>         0.1001
     15 N1          0.5791   -6.0483    2.3140 N.pl3     1 <0>        -0.5796
     16 H2          1.3017   -6.6829    2.4405 H         1 <0>         0.4164
     17 C12         0.7394   -4.7180    2.0366 C.2       1 <0>         0.0644
     18 C13         2.0405   -3.9684    1.8744 C.3       1 <0>         0.1282
     19 N2          1.7660   -2.5269    1.9874 N.3       1 <0>        -0.6652
     20 H3          1.0053    1.8021    0.0021 H         1 <0>         0.0615
     21 H4         -0.5445    1.7859   -0.8732 H         1 <0>         0.1048
     22 H5         -0.5275    1.7763    0.9067 H         1 <0>         0.0631
     23 H6         -0.9370   -2.1280    2.5252 H         1 <0>         0.0853
     24 H7         -1.4299   -2.5360    0.8604 H         1 <0>         0.0887
     25 H8         -3.4196   -4.2175    1.9589 H         1 <0>         0.1296
     26 H9         -4.5865   -6.3373    2.4066 H         1 <0>         0.1193
     27 H10        -3.3659   -8.3958    2.8267 H         1 <0>         0.1218
     28 H11        -0.8963   -8.4616    2.8254 H         1 <0>         0.1280
     29 H12         2.7374   -4.2710    2.6560 H         1 <0>         0.1007
     30 H13         2.4678   -4.1841    0.8951 H         1 <0>         0.0581
     31 H14         2.6003   -1.9854    1.8173 H         1 <0>         0.3616
@<TRIPOS>BOND
     1    1    2 1
     2    1   20 1
     3    1   21 1
     4    1   22 1
     5    2    3 1
     6    3    4 2
     7    3    5 1
     8    5    6 1
     9    5   19 1
    10    5    7 1
    11    7    8 1
    12    7   23 1
    13    7   24 1
    14    8   17 2
    15    8    9 1
    16    9   14 ar
    17    9   10 ar
    18   10   11 ar
    19   10   25 1
    20   11   12 ar
    21   11   26 1
    22   12   13 ar
    23   12   27 1
    24   13   14 ar
    25   13   28 1
    26   14   15 1
    27   15   16 1
    28   15   17 1
    29   17   18 1
    30   18   19 1
    31   18   29 1
    32   18   30 1
    33   19   31 1
@<TRIPOS>MOLECULE
ZINC04062324
   34    36     0     0     0
SMALL
USER_CHARGES
2-(1H-indol-3-yl)-2-oxo-N-(2-pyridylmethyl)acetamide
@<TRIPOS>ATOM
      1 C1         -1.1604   10.1317   -6.8829 C.ar      1 <0>        -0.1298
      2 C2         -1.2140   11.4931   -6.6239 C.ar      1 <0>        -0.1040
      3 C3         -1.1169   11.9668   -5.3332 C.ar      1 <0>        -0.1178
      4 C4         -0.9640   11.0758   -4.2760 C.ar      1 <0>         0.0704
      5 C5         -0.9105    9.6986   -4.5406 C.ar      1 <0>        -0.0546
      6 C6         -1.0101    9.2331   -5.8485 C.ar      1 <0>        -0.0761
      7 C7         -0.7461    9.0423   -3.2290 C.2       1 <0>        -0.2768
      8 C8         -0.7195   10.0580   -2.2918 C.2       1 <0>         0.1671
      9 N1         -0.8419   11.2460   -2.9110 N.pl3     1 <0>        -0.5677
     10 H1         -0.8476   12.1047   -2.4599 H         1 <0>         0.4238
     11 C9         -0.6393    7.6070   -2.9721 C.2       1 <0>         0.4220
     12 O1         -0.6838    6.8191   -3.8966 O.2       1 <0>        -0.4389
     13 C10        -0.4757    7.1094   -1.5753 C.2       1 <0>         0.4925
     14 O2         -0.4313    7.8962   -0.6521 O.2       1 <0>        -0.5177
     15 N2         -0.3773    5.7862   -1.3385 N.am      1 <0>        -0.6974
     16 C11        -0.2167    5.2976    0.0332 C.3       1 <0>         0.1701
     17 C12        -0.1317    3.7930    0.0238 C.ar      1 <0>         0.1000
     18 C13         1.1065    3.1788    0.0086 C.ar      1 <0>        -0.1514
     19 C14         1.1736    1.7941    0.0005 C.ar      1 <0>        -0.0749
     20 C15        -0.0126    1.0758    0.0080 C.ar      1 <0>        -0.1626
     21 C16        -1.2136    1.7592    0.0173 C.ar      1 <0>         0.1012
     22 N3         -1.2394    3.0777    0.0305 N.ar      1 <0>        -0.4689
     23 H2         -1.2373    9.7741   -7.8991 H         1 <0>         0.1276
     24 H3         -1.3326   12.1888   -7.4414 H         1 <0>         0.1292
     25 H4         -1.1591   13.0291   -5.1429 H         1 <0>         0.1240
     26 H5         -0.9688    8.1733   -6.0520 H         1 <0>         0.1318
     27 H6         -0.6138    9.9193   -1.2260 H         1 <0>         0.2033
     28 H7         -0.4128    5.1575   -2.0763 H         1 <0>         0.4129
     29 H8         -1.0721    5.6094    0.6325 H         1 <0>         0.0932
     30 H9          0.6968    5.7104    0.4614 H         1 <0>         0.0917
     31 H10         2.0102    3.7701    0.0035 H         1 <0>         0.1387
     32 H11         2.1270    1.2869   -0.0110 H         1 <0>         0.1391
     33 H12         0.0021   -0.0041    0.0020 H         1 <0>         0.1393
     34 H13        -2.1418    1.2071    0.0183 H         1 <0>         0.1606
@<TRIPOS>BOND
     1    1    6 ar
     2    1    2 ar
     3    1   23 1
     4    2    3 ar
     5    2   24 1
     6    3    4 ar
     7    3   25 1
     8    4    9 1
     9    4    5 ar
    10    5    6 ar
    11    5    7 1
    12    6   26 1
    13    7    8 2
    14    7   11 1
    15    8    9 1
    16    8   27 1
    17    9   10 1
    18   11   12 2
    19   11   13 1
    20   13   14 2
    21   13   15 am
    22   15   16 1
    23   15   28 1
    24   16   17 1
    25   16   29 1
    26   16   30 1
    27   17   22 ar
    28   17   18 ar
    29   18   19 ar
    30   18   31 1
    31   19   20 ar
    32   19   32 1
    33   20   21 ar
    34   20   33 1
    35   21   22 ar
    36   21   34 1
@<TRIPOS>MOLECULE
ZINC02561713
   34    36     0     0     0
SMALL
USER_CHARGES
2-(1H-indol-3-yl)-2-oxo-N-(4-pyridylmethyl)acetamide
@<TRIPOS>ATOM
      1 C1         -6.7613    6.3791   -6.8829 C.ar      1 <0>        -0.1292
      2 C2         -7.9350    7.0686   -6.6172 C.ar      1 <0>        -0.1036
      3 C3         -8.3334    7.3030   -5.3188 C.ar      1 <0>        -0.1175
      4 C4         -7.5553    6.8457   -4.2602 C.ar      1 <0>         0.0702
      5 C5         -6.3683    6.1478   -4.5316 C.ar      1 <0>        -0.0547
      6 C6         -5.9774    5.9174   -5.8474 C.ar      1 <0>        -0.0764
      7 C7         -5.7905    5.8088   -3.2165 C.2       1 <0>        -0.2775
      8 C8         -6.6628    6.3155   -2.2715 C.2       1 <0>         0.1671
      9 N1         -7.6907    6.9259   -2.8883 N.pl3     1 <0>        -0.5672
     10 H1         -8.4284    7.3598   -2.4317 H         1 <0>         0.4239
     11 C9         -4.5492    5.0788   -2.9642 C.2       1 <0>         0.4214
     12 O1         -3.8769    4.6827   -3.8962 O.2       1 <0>        -0.4383
     13 C10        -4.1077    4.8200   -1.5630 C.2       1 <0>         0.4918
     14 O2         -4.7790    5.2156   -0.6323 O.2       1 <0>        -0.5164
     15 N2         -2.9634    4.1470   -1.3304 N.am      1 <0>        -0.7016
     16 C11        -2.5298    3.8929    0.0457 C.3       1 <0>         0.1573
     17 C12        -1.2309    3.1289    0.0302 C.ar      1 <0>        -0.0695
     18 C13        -1.2232    1.7424    0.0174 C.ar      1 <0>        -0.1533
     19 C14        -0.0126    1.0758    0.0080 C.ar      1 <0>         0.1004
     20 N3          1.1248    1.7431    0.0007 N.ar      1 <0>        -0.4780
     21 C15         1.1555    3.0614    0.0075 C.ar      1 <0>         0.1005
     22 C16        -0.0153    3.7957    0.0221 C.ar      1 <0>        -0.1533
     23 H2         -6.4608    6.2027   -7.9051 H         1 <0>         0.1279
     24 H3         -8.5425    7.4257   -7.4357 H         1 <0>         0.1296
     25 H4         -9.2489    7.8416   -5.1233 H         1 <0>         0.1243
     26 H5         -5.0638    5.3805   -6.0560 H         1 <0>         0.1319
     27 H6         -6.5369    6.2360   -1.2018 H         1 <0>         0.2029
     28 H7         -2.4269    3.8309   -2.0741 H         1 <0>         0.4136
     29 H8         -3.2894    3.3076    0.5638 H         1 <0>         0.0883
     30 H9         -2.3869    4.8418    0.5627 H         1 <0>         0.0883
     31 H10        -2.1514    1.1904    0.0184 H         1 <0>         0.1386
     32 H11         0.0021   -0.0041    0.0020 H         1 <0>         0.1599
     33 H12         2.1065    3.5732    0.0011 H         1 <0>         0.1599
     34 H13         0.0163    4.8752    0.0269 H         1 <0>         0.1386
@<TRIPOS>BOND
     1    1    6 ar
     2    1    2 ar
     3    1   23 1
     4    2    3 ar
     5    2   24 1
     6    3    4 ar
     7    3   25 1
     8    4    9 1
     9    4    5 ar
    10    5    6 ar
    11    5    7 1
    12    6   26 1
    13    7    8 2
    14    7   11 1
    15    8    9 1
    16    8   27 1
    17    9   10 1
    18   11   12 2
    19   11   13 1
    20   13   14 2
    21   13   15 am
    22   15   16 1
    23   15   28 1
    24   16   17 1
    25   16   29 1
    26   16   30 1
    27   17   22 ar
    28   17   18 ar
    29   18   19 ar
    30   18   31 1
    31   19   20 ar
    32   19   32 1
    33   20   21 ar
    34   21   22 ar
    35   21   33 1
    36   22   34 1
@<TRIPOS>MOLECULE
ZINC00001464
   36    38     0     0     0
SMALL
USER_CHARGES

@<TRIPOS>ATOM
      1 C1         -0.0187    1.5258    0.0104 C.3       1 <0>        -0.1527
      2 C2          0.0021   -0.0041    0.0020 C.3       1 <0>         0.0595
      3 O1         -1.3386   -0.4987    0.0122 O.3       1 <0>        -0.3295
      4 C3         -1.4970   -1.8373    0.0065 C.2       1 <0>         0.5595
      5 O2         -0.5232   -2.5645   -0.0067 O.2       1 <0>        -0.5059
      6 C4         -2.8491   -2.4182    0.0163 C.2       1 <0>        -0.0204
      7 C5         -3.1574   -3.7441    0.0176 C.2       1 <0>         0.0514
      8 N1         -4.5094   -3.8420    0.0002 N.pl3     1 <0>        -0.4034
      9 C6         -5.0118   -2.5765    0.0278 C.2       1 <0>         0.2113
     10 N2         -4.0219   -1.7299    0.0316 N.2       1 <0>        -0.4291
     11 C7         -5.2437   -5.0283   -0.0696 C.ar      1 <0>         0.1361
     12 C8         -6.4178   -5.0243   -0.8179 C.ar      1 <0>        -0.0943
     13 C9         -7.1677   -6.1733   -0.9504 C.ar      1 <0>        -0.1054
     14 C10        -6.7527   -7.3466   -0.3378 C.ar      1 <0>         0.1093
     15 C11        -5.6005   -7.3636    0.4163 C.ar      1 <0>        -0.0832
     16 C12        -4.8343   -6.1965    0.5748 C.ar      1 <0>        -0.0860
     17 C13        -3.6619   -6.2637    1.4502 C.2       1 <0>         0.5507
     18 O3         -3.7840   -6.9146    2.4698 O.2       1 <0>        -0.5260
     19 N3         -2.4758   -5.6895    1.2509 N.am      1 <0>        -0.5964
     20 C14        -2.1949   -4.9033    0.0447 C.3       1 <0>         0.1632
     21 C15        -1.4269   -5.8469    2.2614 C.3       1 <0>         0.0754
     22 F1         -7.4809   -8.4755   -0.4809 F         1 <0>        -0.1229
     23 H1          1.0039    1.9031    0.0027 H         1 <0>         0.0814
     24 H2         -0.5459    1.8868   -0.8726 H         1 <0>         0.0681
     25 H3         -0.5289    1.8773    0.9072 H         1 <0>         0.0679
     26 H4          0.5123   -0.3556   -0.8948 H         1 <0>         0.0706
     27 H5          0.5293   -0.3651    0.8851 H         1 <0>         0.0701
     28 H6         -6.0600   -2.3172    0.0476 H         1 <0>         0.2269
     29 H7         -6.7439   -4.1135   -1.2980 H         1 <0>         0.1544
     30 H8         -8.0784   -6.1600   -1.5308 H         1 <0>         0.1586
     31 H9         -5.2835   -8.2812    0.8896 H         1 <0>         0.1586
     32 H10        -2.3373   -5.5225   -0.8409 H         1 <0>         0.0971
     33 H11        -1.1705   -4.5322    0.0760 H         1 <0>         0.1471
     34 H12        -1.8034   -6.4548    3.0841 H         1 <0>         0.0976
     35 H13        -0.5619   -6.3366    1.8141 H         1 <0>         0.0726
     36 H14        -1.1351   -4.8666    2.6380 H         1 <0>         0.0680
@<TRIPOS>BOND
     1    1    2 1
     2    1   23 1
     3    1   24 1
     4    1   25 1
     5    2    3 1
     6    2   26 1
     7    2   27 1
     8    3    4 1
     9    4    5 2
    10    4    6 1
    11    6   10 1
    12    6    7 2
    13    7   20 1
    14    7    8 1
    15    8    9 1
    16    8   11 1
    17    9   10 2
    18    9   28 1
    19   11   16 ar
    20   11   12 ar
    21   12   13 ar
    22   12   29 1
    23   13   14 ar
    24   13   30 1
    25   14   15 ar
    26   14   22 1
    27   15   16 ar
    28   15   31 1
    29   16   17 1
    30   17   18 2
    31   17   19 am
    32   19   20 1
    33   19   21 1
    34   20   32 1
    35   20   33 1
    36   21   34 1
    37   21   35 1
    38   21   36 1
@<TRIPOS>MOLECULE
ZINC04071646
   33    36     0     0     0
SMALL
USER_CHARGES
methyl-phenyl-BLAHone
@<TRIPOS>ATOM
      1 C1         -4.7239    2.5476   -1.0433 C.3       1 <0>        -0.0822
      2 C2         -3.3353    2.5768   -0.4585 C.2       1 <0>         0.1614
      3 C3         -2.8437    3.5350    0.4484 C.2       1 <0>        -0.3184
      4 C4         -1.5183    3.1846    0.7360 C.2       1 <0>         0.1877
      5 C5         -0.7664    4.0278    1.6750 C.ar      1 <0>        -0.1158
      6 C6          0.5590    3.7303    1.9982 C.ar      1 <0>        -0.0769
      7 C7          1.2453    4.5343    2.8816 C.ar      1 <0>        -0.1346
      8 C8          0.6237    5.6359    3.4490 C.ar      1 <0>        -0.0603
      9 C9         -0.6849    5.9404    3.1386 C.ar      1 <0>        -0.1280
     10 C10        -1.3958    5.1430    2.2494 C.ar      1 <0>         0.1614
     11 O1         -2.6780    5.4475    1.9498 O.3       1 <0>        -0.2704
     12 C11        -3.4118    4.7203    1.0918 C.2       1 <0>         0.5604
     13 O2         -4.5626    5.0402    0.8598 O.2       1 <0>        -0.4492
     14 N1         -1.2382    2.0697    0.0192 N.pl3     1 <0>        -0.2971
     15 N2         -2.3840    1.7173   -0.7064 N.2       1 <0>        -0.2726
     16 C12        -0.0168    1.3845    0.0097 C.ar      1 <0>         0.1268
     17 C13         0.6077    1.0923   -1.1958 C.ar      1 <0>        -0.0934
     18 C14         1.8094    0.4114   -1.2021 C.ar      1 <0>        -0.1024
     19 C15         2.3907    0.0208   -0.0097 C.ar      1 <0>        -0.1035
     20 C16         1.7713    0.3103    1.1924 C.ar      1 <0>        -0.1033
     21 C17         0.5696    0.9909    1.2054 C.ar      1 <0>        -0.1180
     22 H1         -5.3775    1.9604   -0.3982 H         1 <0>         0.0897
     23 H2         -5.1074    3.5650   -1.1197 H         1 <0>         0.0941
     24 H3         -4.6911    2.0962   -2.0349 H         1 <0>         0.0828
     25 H4          1.0448    2.8727    1.5568 H         1 <0>         0.1449
     26 H5          2.2706    4.3059    3.1325 H         1 <0>         0.1393
     27 H6          1.1691    6.2609    4.1406 H         1 <0>         0.1449
     28 H7         -1.1585    6.8012    3.5870 H         1 <0>         0.1501
     29 H8          0.1541    1.3967   -2.1274 H         1 <0>         0.1351
     30 H9          2.2955    0.1838   -2.1392 H         1 <0>         0.1382
     31 H10         3.3305   -0.5111   -0.0172 H         1 <0>         0.1358
     32 H11         2.2276    0.0036    2.1219 H         1 <0>         0.1395
     33 H12         0.0866    1.2170    2.1445 H         1 <0>         0.1338
@<TRIPOS>BOND
     1    1    2 1
     2    1   22 1
     3    1   23 1
     4    1   24 1
     5    2   15 2
     6    2    3 1
     7    3   12 1
     8    3    4 2
     9    4    5 1
    10    4   14 1
    11    5   10 ar
    12    5    6 ar
    13    6    7 ar
    14    6   25 1
    15    7    8 ar
    16    7   26 1
    17    8    9 ar
    18    8   27 1
    19    9   10 ar
    20    9   28 1
    21   10   11 1
    22   11   12 1
    23   12   13 2
    24   14   15 1
    25   14   16 1
    26   16   21 ar
    27   16   17 ar
    28   17   18 ar
    29   17   29 1
    30   18   19 ar
    31   18   30 1
    32   19   20 ar
    33   19   31 1
    34   20   21 ar
    35   20   32 1
    36   21   33 1
@<TRIPOS>MOLECULE
ZINC19632917
   35    37     0     0     0
SMALL
USER_CHARGES
7-chloro-N-methyl-4-oxido-5-phenyl-3H-1,4-benzodiazepin-4-ium-2-amine
@<TRIPOS>ATOM
      1 C1          0.3869    1.6257   -0.4688 C.3       1 <0>         0.0950
      2 N1         -0.4381    1.8111    0.7275 N.pl3     1 <0>        -0.7042
      3 C2         -0.6877    3.0703    1.1972 C.2       1 <0>         0.4378
      4 N2         -0.1880    4.0751    0.5725 N.2       1 <0>        -0.5908
      5 C3         -0.3144    5.3787    0.9381 C.ar      1 <0>         0.1969
      6 C4          0.8182    6.1971    0.8113 C.ar      1 <0>        -0.1083
      7 C5          0.7611    7.5284    1.1532 C.ar      1 <0>        -0.0648
      8 C6         -0.4211    8.0763    1.6280 C.ar      1 <0>        -0.0582
      9 C7         -1.5431    7.2893    1.7639 C.ar      1 <0>        -0.0451
     10 C8         -1.5051    5.9298    1.4246 C.ar      1 <0>        -0.1385
     11 C9         -2.7355    5.1437    1.6090 C.2       1 <0>         0.2524
     12 N3         -2.7652    3.9385    2.0629 N.pl3     1 <0>        -0.1798
     13 O1         -4.0124    3.2849    2.2127 O.3       1 <0>        -0.5210
     14 C10        -1.5427    3.2309    2.4234 C.3       1 <0>         0.0460
     15 C11        -4.0245    5.7803    1.2495 C.ar      1 <0>        -0.0872
     16 C12        -5.1583    5.5542    2.0290 C.ar      1 <0>        -0.0406
     17 C13        -6.3546    6.1540    1.6923 C.ar      1 <0>        -0.1353
     18 C14        -6.4331    6.9690    0.5772 C.ar      1 <0>        -0.0907
     19 C15        -5.3129    7.1929   -0.2030 C.ar      1 <0>        -0.1331
     20 C16        -4.1098    6.6032    0.1270 C.ar      1 <0>        -0.0779
     21 Cl1        -0.4868    9.7583    2.0526 Cl        1 <0>        -0.0571
     22 H1          0.4748    0.5519   -0.6907 H         1 <0>         0.0788
     23 H2          1.3877    2.0469   -0.2929 H         1 <0>         0.0662
     24 H3         -0.0824    2.1390   -1.3210 H         1 <0>         0.0623
     25 H4         -0.8567    0.9370    1.2478 H         1 <0>         0.4420
     26 H5          1.7426    5.7784    0.4417 H         1 <0>         0.1453
     27 H6          1.6395    8.1486    1.0520 H         1 <0>         0.1449
     28 H7         -2.4601    7.7233    2.1343 H         1 <0>         0.1431
     29 H8         -1.7945    2.2392    2.8273 H         1 <0>         0.1402
     30 H9         -0.9918    3.8066    3.1818 H         1 <0>         0.1292
     31 H10        -5.0994    4.9142    2.8970 H         1 <0>         0.1447
     32 H11        -7.2324    5.9831    2.2978 H         1 <0>         0.1283
     33 H12        -7.3726    7.4327    0.3150 H         1 <0>         0.1263
     34 H13        -5.3800    7.8307   -1.0720 H         1 <0>         0.1287
     35 H14        -3.2358    6.7790   -0.4827 H         1 <0>         0.1246
@<TRIPOS>BOND
     1    1    2 1
     2    1   22 1
     3    1   23 1
     4    1   24 1
     5    2    3 1
     6    2   25 1
     7    3   14 1
     8    3    4 2
     9    4    5 1
    10    5   10 ar
    11    5    6 ar
    12    6    7 ar
    13    6   26 1
    14    7    8 ar
    15    7   27 1
    16    8    9 ar
    17    8   21 1
    18    9   10 ar
    19    9   28 1
    20   10   11 1
    21   11   12 2
    22   11   15 1
    23   12   13 1
    24   12   14 1
    25   14   29 1
    26   14   30 1
    27   15   20 ar
    28   15   16 ar
    29   16   17 ar
    30   16   31 1
    31   17   18 ar
    32   17   32 1
    33   18   19 ar
    34   18   33 1
    35   19   20 ar
    36   19   34 1
    37   20   35 1
@<TRIPOS>MOLECULE
ZINC19632917
   36    38     0     0     0
SMALL
USER_CHARGES
7-chloro-N-methyl-4-oxido-5-phenyl-3H-1,4-benzodiazepin-4-ium-2-amine
@<TRIPOS>ATOM
      1 C1          0.3869    1.6257   -0.4688 C.3       1 <0>         0.0260
      2 N1         -0.4381    1.8111    0.7275 N.pl3     1 <0>        -0.6524
      3 C2         -0.6877    3.0703    1.1972 C.cat     1 <0>         0.4984
      4 N2         -0.1880    4.0751    0.5725 N.pl3     1 <0>        -0.5579
      5 C3         -0.3144    5.3787    0.9381 C.ar      1 <0>         0.1017
      6 C4          0.8182    6.1971    0.8113 C.ar      1 <0>        -0.0937
      7 C5          0.7611    7.5284    1.1532 C.ar      1 <0>        -0.0563
      8 C6         -0.4211    8.0763    1.6280 C.ar      1 <0>        -0.0154
      9 C7         -1.5431    7.2893    1.7639 C.ar      1 <0>        -0.0439
     10 C8         -1.5051    5.9298    1.4246 C.ar      1 <0>        -0.0688
     11 C9         -2.7355    5.1437    1.6090 C.2       1 <0>         0.2576
     12 N3         -2.7652    3.9385    2.0629 N.pl3     1 <0>        -0.1943
     13 O1         -4.0124    3.2849    2.2127 O.3       1 <0>        -0.4829
     14 C10        -1.5427    3.2309    2.4234 C.3       1 <0>         0.0643
     15 C11        -4.0245    5.7803    1.2495 C.ar      1 <0>        -0.1098
     16 C12        -5.1583    5.5542    2.0290 C.ar      1 <0>        -0.0323
     17 C13        -6.3546    6.1540    1.6923 C.ar      1 <0>        -0.1301
     18 C14        -6.4331    6.9690    0.5772 C.ar      1 <0>        -0.0738
     19 C15        -5.3129    7.1929   -0.2030 C.ar      1 <0>        -0.1292
     20 C16        -4.1098    6.6032    0.1270 C.ar      1 <0>        -0.0779
     21 Cl1        -0.4868    9.7583    2.0526 Cl        1 <0>        -0.0128
     22 H1          0.4748    0.5519   -0.6907 H         1 <0>         0.1302
     23 H2          1.3877    2.0469   -0.2929 H         1 <0>         0.0959
     24 H3         -0.0824    2.1390   -1.3210 H         1 <0>         0.0928
     25 H4         -0.8567    0.9370    1.2478 H         1 <0>         0.4846
     26 H5          1.7426    5.7784    0.4417 H         1 <0>         0.1609
     27 H6          1.6395    8.1486    1.0520 H         1 <0>         0.1658
     28 H7         -2.4601    7.7233    2.1343 H         1 <0>         0.1657
     29 H8         -1.7945    2.2392    2.8273 H         1 <0>         0.1778
     30 H9         -0.9918    3.8066    3.1818 H         1 <0>         0.1627
     31 H10        -5.0994    4.9142    2.8970 H         1 <0>         0.1478
     32 H11        -7.2324    5.9831    2.2978 H         1 <0>         0.1357
     33 H12        -7.3726    7.4327    0.3150 H         1 <0>         0.1340
     34 H13        -5.3800    7.8307   -1.0720 H         1 <0>         0.1349
     35 H14        -3.2358    6.7790   -0.4827 H         1 <0>         0.1240
     36 H15         0.4010    3.9161   -0.3428 H         1 <0>         0.4708
@<TRIPOS>BOND
     1    1    2 1
     2    1   22 1
     3    1   23 1
     4    1   24 1
     5    2    3 2
     6    2   25 1
     7    3   14 1
     8    3    4 1
     9    4    5 1
    10    4   36 1
    11    5   10 ar
    12    5    6 ar
    13    6    7 ar
    14    6   26 1
    15    7    8 ar
    16    7   27 1
    17    8    9 ar
    18    8   21 1
    19    9   10 ar
    20    9   28 1
    21   10   11 1
    22   11   12 2
    23   11   15 1
    24   12   13 1
    25   12   14 1
    26   14   29 1
    27   14   30 1
    28   15   20 ar
    29   15   16 ar
    30   16   17 ar
    31   16   31 1
    32   17   18 ar
    33   17   32 1
    34   18   19 ar
    35   18   33 1
    36   19   20 ar
    37   19   34 1
    38   20   35 1
@<TRIPOS>MOLECULE
ZINC03813003
   32    34     0     0     0
SMALL
USER_CHARGES
6-(2-chlorophenyl)-9-nitro-2,5-diazabicyclo[5.4.0]undeca-5,7,9,11-tetraen-3-one
@<TRIPOS>ATOM
      1 C1         -0.9263    2.6093    1.0664 C.ar      1 <0>        -0.1113
      2 C2         -1.2194    1.7464    0.0248 C.ar      1 <0>        -0.0882
      3 C3         -0.3364    1.6002   -1.0293 C.ar      1 <0>        -0.1087
      4 C4          0.8504    2.3075   -1.0426 C.ar      1 <0>        -0.0117
      5 C5          1.1536    3.1748    0.0081 C.ar      1 <0>        -0.0589
      6 C6          0.2552    3.3212    1.0652 C.ar      1 <0>        -0.0703
      7 C7          2.4236    3.9367    0.0005 C.2       1 <0>         0.2679
      8 N1          2.3488    5.2171   -0.0965 N.2       1 <0>        -0.4640
      9 C8          3.5433    6.0613   -0.1155 C.3       1 <0>         0.0173
     10 C9          4.3425    5.7386   -1.3485 C.2       1 <0>         0.5139
     11 O1          4.5038    6.5976   -2.1894 O.2       1 <0>        -0.4972
     12 N2          4.8775    4.5351   -1.5405 N.am      1 <0>        -0.6621
     13 C10         4.8170    3.4830   -0.6398 C.ar      1 <0>         0.2310
     14 C11         3.6768    3.1720    0.0986 C.ar      1 <0>        -0.1270
     15 C12         3.7066    2.0828    0.9824 C.ar      1 <0>         0.0090
     16 C13         4.8482    1.3279    1.1230 C.ar      1 <0>        -0.0573
     17 C14         5.9805    1.6403    0.3896 C.ar      1 <0>        -0.0148
     18 C15         5.9663    2.7060   -0.4835 C.ar      1 <0>        -0.1418
     19 N3          4.8662    0.1814    2.0592 N.pl3     1 <0>         0.0285
     20 O2          3.8706   -0.0934    2.7047 O.2       1 <0>        -0.1516
     21 O3          5.8767   -0.4871    2.1840 O.3       1 <0>        -0.1507
     22 Cl1         1.9618    2.1175   -2.3626 Cl        1 <0>        -0.0619
     23 H1         -1.6223    2.7222    1.8844 H         1 <0>         0.1389
     24 H2         -2.1437    1.1878    0.0333 H         1 <0>         0.1393
     25 H3         -0.5727    0.9284   -1.8412 H         1 <0>         0.1406
     26 H4          0.4843    3.9905    1.8812 H         1 <0>         0.1385
     27 H5          4.1458    5.8660    0.7715 H         1 <0>         0.1004
     28 H6          3.2510    7.1112   -0.1344 H         1 <0>         0.1410
     29 H7          5.3466    4.3823   -2.3756 H         1 <0>         0.4193
     30 H8          2.8264    1.8351    1.5571 H         1 <0>         0.1644
     31 H9          6.8762    1.0474    0.5020 H         1 <0>         0.1668
     32 H10         6.8534    2.9432   -1.0520 H         1 <0>         0.1605
@<TRIPOS>BOND
     1    1    6 ar
     2    1    2 ar
     3    1   23 1
     4    2    3 ar
     5    2   24 1
     6    3    4 ar
     7    3   25 1
     8    4    5 ar
     9    4   22 1
    10    5    6 ar
    11    5    7 1
    12    6   26 1
    13    7   14 1
    14    7    8 2
    15    8    9 1
    16    9   10 1
    17    9   27 1
    18    9   28 1
    19   10   11 2
    20   10   12 am
    21   12   13 1
    22   12   29 1
    23   13   18 ar
    24   13   14 ar
    25   14   15 ar
    26   15   16 ar
    27   15   30 1
    28   16   17 ar
    29   16   19 1
    30   17   18 ar
    31   17   31 1
    32   18   32 1
    33   19   20 2
    34   19   21 1
@<TRIPOS>MOLECULE
ZINC01537184
   43    45     0     0     0
SMALL
USER_CHARGES
2-isopropyl-8,8-dimethyl-6,7-dihydro-5H-phenanthrene-3,4-dione
@<TRIPOS>ATOM
      1 C1          5.5321   -3.4383   -5.5347 C.3       1 <0>        -0.1538
      2 C2          5.0855   -2.0265   -5.9199 C.3       1 <0>        -0.0450
      3 C3          4.3034   -2.0797   -7.2338 C.3       1 <0>        -0.1538
      4 C4          4.2052   -1.4642   -4.8336 C.2       1 <0>        -0.1833
      5 C5          4.5814   -0.3357   -4.2033 C.2       1 <0>        -0.0173
      6 C6          3.7675    0.2619   -3.1381 C.ar      1 <0>        -0.0372
      7 C7          4.1784    1.4322   -2.5015 C.ar      1 <0>        -0.1028
      8 C8          3.3971    1.9757   -1.4995 C.ar      1 <0>        -0.0857
      9 C9          2.2044    1.3773   -1.1114 C.ar      1 <0>        -0.0619
     10 C10         1.7784    0.2210   -1.7341 C.ar      1 <0>        -0.0070
     11 C11         2.5581   -0.3419   -2.7469 C.ar      1 <0>        -0.1574
     12 C12         2.1248   -1.5818   -3.4246 C.2       1 <0>         0.3569
     13 O1          1.0886   -2.1331   -3.1176 O.2       1 <0>        -0.3843
     14 C13         3.0043   -2.1359   -4.5030 C.2       1 <0>         0.3585
     15 O2          2.6897   -3.1531   -5.0884 O.2       1 <0>        -0.3854
     16 C14         0.4920   -0.4711   -1.3670 C.3       1 <0>        -0.0944
     17 C15         0.0021   -0.0041    0.0020 C.3       1 <0>        -0.1254
     18 C16        -0.0187    1.5290    0.0104 C.3       1 <0>        -0.1128
     19 C17         1.4236    2.0308   -0.0006 C.3       1 <0>        -0.0261
     20 C18         1.4284    3.5470   -0.2052 C.3       1 <0>        -0.1442
     21 C19         2.0824    1.7016    1.3405 C.3       1 <0>        -0.1416
     22 H1          6.1688   -3.8450   -6.3203 H         1 <0>         0.0627
     23 H2          6.0893   -3.4004   -4.5986 H         1 <0>         0.0543
     24 H3          4.6563   -4.0752   -5.4107 H         1 <0>         0.0683
     25 H4          5.9613   -1.3896   -6.0439 H         1 <0>         0.0839
     26 H5          3.9853   -1.0739   -7.5082 H         1 <0>         0.0542
     27 H6          4.9402   -2.4864   -8.0194 H         1 <0>         0.0627
     28 H7          3.4276   -2.7166   -7.1098 H         1 <0>         0.0683
     29 H8          5.5064    0.1428   -4.4893 H         1 <0>         0.1445
     30 H9          5.1024    1.9113   -2.7896 H         1 <0>         0.1389
     31 H10         3.7192    2.8824   -1.0091 H         1 <0>         0.1356
     32 H11         0.6581   -1.5480   -1.3411 H         1 <0>         0.0994
     33 H12        -0.2652   -0.2422   -2.1169 H         1 <0>         0.0852
     34 H13         0.6776   -0.3664    0.7770 H         1 <0>         0.0697
     35 H14        -1.0028   -0.3859    0.1823 H         1 <0>         0.0729
     36 H15        -0.5411    1.8938   -0.8739 H         1 <0>         0.0676
     37 H16        -0.5241    1.8843    0.9085 H         1 <0>         0.0723
     38 H17         0.8815    4.0250    0.6075 H         1 <0>         0.0633
     39 H18         2.4565    3.9092   -0.2137 H         1 <0>         0.0602
     40 H19         0.9508    3.7870   -1.1551 H         1 <0>         0.0586
     41 H20         2.0721    0.6227    1.4952 H         1 <0>         0.0603
     42 H21         3.1123    2.0583    1.3366 H         1 <0>         0.0577
     43 H22         1.5320    2.1893    2.1450 H         1 <0>         0.0635
@<TRIPOS>BOND
     1    1    2 1
     2    1   22 1
     3    1   23 1
     4    1   24 1
     5    2    3 1
     6    2    4 1
     7    2   25 1
     8    3   26 1
     9    3   27 1
    10    3   28 1
    11    4   14 1
    12    4    5 2
    13    5    6 1
    14    5   29 1
    15    6   11 ar
    16    6    7 ar
    17    7    8 ar
    18    7   30 1
    19    8    9 ar
    20    8   31 1
    21    9   19 1
    22    9   10 ar
    23   10   11 ar
    24   10   16 1
    25   11   12 1
    26   12   13 2
    27   12   14 1
    28   14   15 2
    29   16   17 1
    30   16   32 1
    31   16   33 1
    32   17   18 1
    33   17   34 1
    34   17   35 1
    35   18   19 1
    36   18   36 1
    37   18   37 1
    38   19   20 1
    39   19   21 1
    40   20   38 1
    41   20   39 1
    42   20   40 1
    43   21   41 1
    44   21   42 1
    45   21   43 1
@<TRIPOS>MOLECULE
ZINC03202988
   42    44     0     0     0
SMALL
USER_CHARGES

@<TRIPOS>ATOM
      1 C1         -0.0173    1.4248    0.0099 C.3       1 <0>         0.0264
      2 O1          0.0021   -0.0041    0.0020 O.3       1 <0>        -0.3177
      3 C2          0.6058   -0.6071   -1.0557 C.ar      1 <0>         0.1277
      4 C3          1.1730    0.1607   -2.0624 C.ar      1 <0>        -0.2065
      5 C4          1.7865   -0.4547   -3.1363 C.ar      1 <0>        -0.0716
      6 C5          1.8352   -1.8346   -3.2086 C.ar      1 <0>        -0.1230
      7 C6          1.2702   -2.6021   -2.2068 C.ar      1 <0>        -0.0720
      8 C7          0.6609   -1.9915   -1.1277 C.ar      1 <0>        -0.1498
      9 C8          2.5046   -2.5033   -4.3815 C.3       1 <0>        -0.0877
     10 C9          3.9857   -2.7227   -4.0663 C.3       1 <0>         0.1199
     11 N1          4.6365   -3.3728   -5.2065 N.am      1 <0>        -0.7054
     12 C10         5.9509   -3.6662   -5.1548 C.2       1 <0>         0.4896
     13 O2          6.5955   -3.3919   -4.1635 O.2       1 <0>        -0.5184
     14 C11         6.6136   -4.3282   -6.3158 C.2       1 <0>         0.4210
     15 O3          5.9682   -4.6029   -7.3085 O.2       1 <0>        -0.4399
     16 C12         8.0394   -4.6465   -6.2597 C.2       1 <0>        -0.2776
     17 C13         8.9035   -4.4055   -5.2080 C.2       1 <0>         0.1670
     18 N2         10.1360   -4.8385   -5.5287 N.pl3     1 <0>        -0.5679
     19 H1         10.9103   -4.7773   -4.9476 H         1 <0>         0.4237
     20 C14        10.1485   -5.3829   -6.7978 C.ar      1 <0>         0.0702
     21 C15         8.8452   -5.2957   -7.3121 C.ar      1 <0>        -0.0546
     22 C16         8.5623   -5.7785   -8.5860 C.ar      1 <0>        -0.0763
     23 C17         9.5677   -6.3461   -9.3397 C.ar      1 <0>        -0.1296
     24 C18        10.8550   -6.4364   -8.8326 C.ar      1 <0>        -0.1040
     25 C19        11.1500   -5.9547   -7.5749 C.ar      1 <0>        -0.1178
     26 H2          1.0053    1.8021    0.0021 H         1 <0>         0.0563
     27 H3         -0.5445    1.7859   -0.8732 H         1 <0>         0.0563
     28 H4         -0.5275    1.7763    0.9067 H         1 <0>         0.1015
     29 H5          1.1347    1.2385   -2.0068 H         1 <0>         0.1291
     30 H6          2.2283    0.1425   -3.9203 H         1 <0>         0.1259
     31 H7          1.3092   -3.6798   -2.2657 H         1 <0>         0.1307
     32 H8          0.2237   -2.5913   -0.3432 H         1 <0>         0.1321
     33 H9          2.0276   -3.4646   -4.5726 H         1 <0>         0.0820
     34 H10         2.4108   -1.8695   -5.2632 H         1 <0>         0.0811
     35 H11         4.4627   -1.7615   -3.8752 H         1 <0>         0.0753
     36 H12         4.0795   -3.3566   -3.1846 H         1 <0>         0.0761
     37 H13         4.1214   -3.5920   -5.9987 H         1 <0>         0.4122
     38 H14         8.6308   -3.9404   -4.2722 H         1 <0>         0.2028
     39 H15         7.5600   -5.7092   -8.9824 H         1 <0>         0.1320
     40 H16         9.3516   -6.7221  -10.3288 H         1 <0>         0.1277
     41 H17        11.6354   -6.8827   -9.4310 H         1 <0>         0.1292
     42 H18        12.1558   -6.0315   -7.1891 H         1 <0>         0.1239
@<TRIPOS>BOND
     1    1    2 1
     2    1   26 1
     3    1   27 1
     4    1   28 1
     5    2    3 1
     6    3    8 ar
     7    3    4 ar
     8    4    5 ar
     9    4   29 1
    10    5    6 ar
    11    5   30 1
    12    6    7 ar
    13    6    9 1
    14    7    8 ar
    15    7   31 1
    16    8   32 1
    17    9   10 1
    18    9   33 1
    19    9   34 1
    20   10   11 1
    21   10   35 1
    22   10   36 1
    23   11   12 am
    24   11   37 1
    25   12   13 2
    26   12   14 1
    27   14   15 2
    28   14   16 1
    29   16   21 1
    30   16   17 2
    31   17   18 1
    32   17   38 1
    33   18   19 1
    34   18   20 1
    35   20   25 ar
    36   20   21 ar
    37   21   22 ar
    38   22   23 ar
    39   22   39 1
    40   23   24 ar
    41   23   40 1
    42   24   25 ar
    43   24   41 1
    44   25   42 1
@<TRIPOS>MOLECULE
ZINC02815535
   38    40     0     0     0
SMALL
USER_CHARGES

@<TRIPOS>ATOM
      1 C1         -0.0167    1.3781    0.0096 C.ar      1 <0>        -0.1200
      2 C2          1.1709    2.0855    0.0021 C.ar      1 <0>        -0.1180
      3 C3          2.3773    1.4107   -0.0130 C.ar      1 <0>        -0.1135
      4 C4          2.3960    0.0285   -0.0201 C.ar      1 <0>        -0.0851
      5 C5          1.2084   -0.6789   -0.0117 C.ar      1 <0>        -0.1135
      6 C6          0.0021   -0.0041    0.0020 C.ar      1 <0>        -0.1180
      7 C7          3.7112   -0.7071   -0.0376 C.3       1 <0>        -0.0933
      8 C8          4.1714   -0.9633    1.3989 C.3       1 <0>         0.1210
      9 N1          5.4498   -1.6784    1.3820 N.am      1 <0>        -0.7055
     10 C9          6.0502   -2.0132    2.5413 C.2       1 <0>         0.4897
     11 O1          5.5315   -1.7222    3.5994 O.2       1 <0>        -0.5181
     12 C10         7.3520   -2.7414    2.5240 C.2       1 <0>         0.4212
     13 O2          7.8713   -3.0328    1.4644 O.2       1 <0>        -0.4398
     14 C11         8.0032   -3.1046    3.7816 C.2       1 <0>        -0.2776
     15 C12         7.5409   -2.8518    5.0595 C.2       1 <0>         0.1670
     16 N2          8.4146   -3.3378    5.9595 N.pl3     1 <0>        -0.5678
     17 H1          8.3045   -3.2799    6.9215 H         1 <0>         0.4237
     18 C13         9.4893   -3.9312    5.3269 C.ar      1 <0>         0.0702
     19 C14         9.2836   -3.8206    3.9427 C.ar      1 <0>        -0.0546
     20 C15        10.2173   -4.3428    3.0530 C.ar      1 <0>        -0.0763
     21 C16        11.3441   -4.9724    3.5377 C.ar      1 <0>        -0.1296
     22 C17        11.5478   -5.0857    4.9044 C.ar      1 <0>        -0.1040
     23 C18        10.6342   -4.5657    5.7964 C.ar      1 <0>        -0.1178
     24 H2         -0.9591    1.9053    0.0259 H         1 <0>         0.1224
     25 H3          1.1563    3.1654    0.0076 H         1 <0>         0.1232
     26 H4          3.3051    1.9634   -0.0196 H         1 <0>         0.1227
     27 H5          1.2231   -1.7588   -0.0176 H         1 <0>         0.1227
     28 H6         -0.9258   -0.5567    0.0082 H         1 <0>         0.1232
     29 H7          3.5884   -1.6586   -0.5549 H         1 <0>         0.0825
     30 H8          4.4573   -0.1052   -0.5563 H         1 <0>         0.0825
     31 H9          4.2941   -0.0118    1.9163 H         1 <0>         0.0761
     32 H10         3.4252   -1.5652    1.9176 H         1 <0>         0.0761
     33 H11         5.8643   -1.9110    0.5363 H         1 <0>         0.4123
     34 H12         6.6194   -2.3419    5.2988 H         1 <0>         0.2028
     35 H13        10.0600   -4.2557    1.9881 H         1 <0>         0.1320
     36 H14        12.0708   -5.3792    2.8500 H         1 <0>         0.1277
     37 H15        12.4338   -5.5807    5.2739 H         1 <0>         0.1293
     38 H16        10.8020   -4.6609    6.8591 H         1 <0>         0.1240
@<TRIPOS>BOND
     1    1    6 ar
     2    1    2 ar
     3    1   24 1
     4    2    3 ar
     5    2   25 1
     6    3    4 ar
     7    3   26 1
     8    4    5 ar
     9    4    7 1
    10    5    6 ar
    11    5   27 1
    12    6   28 1
    13    7    8 1
    14    7   29 1
    15    7   30 1
    16    8    9 1
    17    8   31 1
    18    8   32 1
    19    9   10 am
    20    9   33 1
    21   10   11 2
    22   10   12 1
    23   12   13 2
    24   12   14 1
    25   14   19 1
    26   14   15 2
    27   15   16 1
    28   15   34 1
    29   16   17 1
    30   16   18 1
    31   18   23 ar
    32   18   19 ar
    33   19   20 ar
    34   20   21 ar
    35   20   35 1
    36   21   22 ar
    37   21   36 1
    38   22   23 ar
    39   22   37 1
    40   23   38 1
@<TRIPOS>MOLECULE
ZINC02025902
   42    45     0     0     0
SMALL
USER_CHARGES

@<TRIPOS>ATOM
      1 C1         -0.0165    1.3620    0.0095 C.ar      1 <0>        -0.1444
      2 C2          1.1697    2.0834    0.0021 C.ar      1 <0>        -0.0979
      3 C3          2.3856    1.4362   -0.0134 C.ar      1 <0>        -0.1301
      4 C4          2.4281    0.0456   -0.0212 C.ar      1 <0>         0.0946
      5 C5          1.2234   -0.6807   -0.0132 C.ar      1 <0>        -0.1005
      6 C6          0.0021   -0.0041    0.0020 C.ar      1 <0>        -0.0715
      7 C7          1.6036   -2.0953   -0.0245 C.2       1 <0>        -0.1733
      8 C8          2.9451   -2.1410   -0.0380 C.2       1 <0>         0.0623
      9 N1          3.4551   -0.8713   -0.0363 N.pl3     1 <0>        -0.5945
     10 H1          4.3995   -0.6501   -0.0442 H         1 <0>         0.4172
     11 C9          0.6664   -3.2754   -0.0210 C.3       1 <0>        -0.0542
     12 C10         0.2361   -3.5891   -1.4554 C.3       1 <0>         0.1205
     13 N2         -0.6750   -4.7364   -1.4520 N.am      1 <0>        -0.7048
     14 C11        -1.1856   -5.1948   -2.6120 C.2       1 <0>         0.4891
     15 O1         -0.8907   -4.6570   -3.6595 O.2       1 <0>        -0.5191
     16 C12        -2.1133   -6.3630   -2.6086 C.2       1 <0>         0.4208
     17 O2         -2.4087   -6.9014   -1.5597 O.2       1 <0>        -0.4401
     18 C13        -2.6673   -6.8602   -3.8670 C.2       1 <0>        -0.2772
     19 C14        -2.4255   -6.3642   -5.1344 C.2       1 <0>         0.1667
     20 N3         -3.1136   -7.0837   -6.0390 N.pl3     1 <0>        -0.5682
     21 H2         -3.1016   -6.9230   -6.9956 H         1 <0>         0.4235
     22 C15        -3.8386   -8.0830   -5.4202 C.ar      1 <0>         0.0702
     23 C16        -3.5923   -7.9969   -4.0408 C.ar      1 <0>        -0.0547
     24 C17        -4.1957   -8.8944   -3.1653 C.ar      1 <0>        -0.0760
     25 C18        -5.0343   -9.8709   -3.6596 C.ar      1 <0>        -0.1300
     26 C19        -5.2765   -9.9600   -5.0219 C.ar      1 <0>        -0.1041
     27 C20        -4.6909   -9.0720   -5.8991 C.ar      1 <0>        -0.1180
     28 H3         -0.9613    1.8849    0.0259 H         1 <0>         0.1228
     29 H4          1.1388    3.1630    0.0081 H         1 <0>         0.1255
     30 H5          3.3028    2.0064   -0.0198 H         1 <0>         0.1198
     31 H6         -0.9246   -0.5587    0.0082 H         1 <0>         0.1208
     32 H7          3.5346   -3.0459   -0.0490 H         1 <0>         0.1710
     33 H8          1.1742   -4.1414    0.4036 H         1 <0>         0.0788
     34 H9         -0.2127   -3.0396    0.5787 H         1 <0>         0.0793
     35 H10        -0.2717   -2.7231   -1.8800 H         1 <0>         0.0751
     36 H11         1.1152   -3.8250   -2.0551 H         1 <0>         0.0736
     37 H12        -0.9107   -5.1661   -0.6150 H         1 <0>         0.4116
     38 H13        -1.7828   -5.5270   -5.3632 H         1 <0>         0.2029
     39 H14        -4.0079   -8.8266   -2.1040 H         1 <0>         0.1320
     40 H15        -5.5041  -10.5694   -2.9830 H         1 <0>         0.1276
     41 H16        -5.9350  -10.7285   -5.3989 H         1 <0>         0.1291
     42 H17        -4.8853   -9.1514   -6.9585 H         1 <0>         0.1238
@<TRIPOS>BOND
     1    1    6 ar
     2    1    2 ar
     3    1   28 1
     4    2    3 ar
     5    2   29 1
     6    3    4 ar
     7    3   30 1
     8    4    9 1
     9    4    5 ar
    10    5    6 ar
    11    5    7 1
    12    6   31 1
    13    7    8 2
    14    7   11 1
    15    8    9 1
    16    8   32 1
    17    9   10 1
    18   11   12 1
    19   11   33 1
    20   11   34 1
    21   12   13 1
    22   12   35 1
    23   12   36 1
    24   13   14 am
    25   13   37 1
    26   14   15 2
    27   14   16 1
    28   16   17 2
    29   16   18 1
    30   18   23 1
    31   18   19 2
    32   19   20 1
    33   19   38 1
    34   20   21 1
    35   20   22 1
    36   22   27 ar
    37   22   23 ar
    38   23   24 ar
    39   24   25 ar
    40   24   39 1
    41   25   26 ar
    42   25   40 1
    43   26   27 ar
    44   26   41 1
    45   27   42 1
@<TRIPOS>MOLECULE
ZINC02873929
   38    40     0     0     0
SMALL
USER_CHARGES

@<TRIPOS>ATOM
      1 C1         -0.0166    1.3742    0.0096 C.ar      1 <0>        -0.1295
      2 C2          1.1717    2.0893    0.0021 C.ar      1 <0>        -0.1039
      3 C3          2.3848    1.4354   -0.0134 C.ar      1 <0>        -0.1176
      4 C4          2.4244    0.0449   -0.0212 C.ar      1 <0>         0.0701
      5 C5          1.2206   -0.6765   -0.0131 C.ar      1 <0>        -0.0547
      6 C6          0.0021   -0.0041    0.0020 C.ar      1 <0>        -0.0763
      7 C7          1.6047   -2.1014   -0.0245 C.2       1 <0>        -0.2778
      8 C8          2.9866   -2.1267   -0.0384 C.2       1 <0>         0.1669
      9 N1          3.4606   -0.8678   -0.0363 N.pl3     1 <0>        -0.5675
     10 H1          4.4018   -0.6331   -0.0447 H         1 <0>         0.4238
     11 C9          0.7049   -3.2538   -0.0213 C.2       1 <0>         0.4212
     12 O1         -0.4987   -3.0851   -0.0081 O.2       1 <0>        -0.4396
     13 C10         1.2641   -4.6367   -0.0343 C.2       1 <0>         0.4902
     14 O2          2.4661   -4.8053   -0.0475 O.2       1 <0>        -0.5173
     15 N2          0.4347   -5.6991   -0.0314 N.am      1 <0>        -0.7059
     16 C11         0.9839   -7.0572   -0.0441 C.3       1 <0>         0.1204
     17 C12        -0.1622   -8.0708   -0.0376 C.3       1 <0>        -0.0943
     18 C13         0.4027   -9.4678   -0.0507 C.ar      1 <0>        -0.0799
     19 C14         0.6547  -10.1000   -1.2541 C.ar      1 <0>        -0.1001
     20 C15         1.1728  -11.3813   -1.2667 C.ar      1 <0>        -0.1080
     21 C16         1.4392  -12.0312   -0.0748 C.ar      1 <0>        -0.0351
     22 C17         1.1868  -11.3981    1.1292 C.ar      1 <0>        -0.1079
     23 C18         0.6740  -10.1146    1.1405 C.ar      1 <0>        -0.1001
     24 Cl1         2.0894  -13.6408   -0.0899 Cl        1 <0>        -0.0680
     25 H2         -0.9603    1.8992    0.0259 H         1 <0>         0.1278
     26 H3          1.1462    3.1690    0.0081 H         1 <0>         0.1294
     27 H4          3.3042    2.0022   -0.0199 H         1 <0>         0.1240
     28 H5         -0.9242   -0.5594    0.0075 H         1 <0>         0.1320
     29 H6          3.5930   -3.0204   -0.0488 H         1 <0>         0.2028
     30 H7         -0.5259   -5.5644   -0.0208 H         1 <0>         0.4126
     31 H8          1.5873   -7.1967   -0.9411 H         1 <0>         0.0769
     32 H9          1.6055   -7.2060    0.8388 H         1 <0>         0.0769
     33 H10        -0.7656   -7.9313    0.8593 H         1 <0>         0.0856
     34 H11        -0.7839   -7.9220   -0.9205 H         1 <0>         0.0856
     35 H12         0.4464   -9.5926   -2.1845 H         1 <0>         0.1335
     36 H13         1.3693  -11.8751   -2.2069 H         1 <0>         0.1351
     37 H14         1.3943  -11.9051    2.0599 H         1 <0>         0.1351
     38 H15         0.4814   -9.6185    2.0803 H         1 <0>         0.1335
@<TRIPOS>BOND
     1    1    6 ar
     2    1    2 ar
     3    1   25 1
     4    2    3 ar
     5    2   26 1
     6    3    4 ar
     7    3   27 1
     8    4    9 1
     9    4    5 ar
    10    5    6 ar
    11    5    7 1
    12    6   28 1
    13    7    8 2
    14    7   11 1
    15    8    9 1
    16    8   29 1
    17    9   10 1
    18   11   12 2
    19   11   13 1
    20   13   14 2
    21   13   15 am
    22   15   16 1
    23   15   30 1
    24   16   17 1
    25   16   31 1
    26   16   32 1
    27   17   18 1
    28   17   33 1
    29   17   34 1
    30   18   23 ar
    31   18   19 ar
    32   19   20 ar
    33   19   35 1
    34   20   21 ar
    35   20   36 1
    36   21   22 ar
    37   21   24 1
    38   22   23 ar
    39   22   37 1
    40   23   38 1
@<TRIPOS>MOLECULE
ZINC01590445
   46    48     0     0     0
SMALL
USER_CHARGES

@<TRIPOS>ATOM
      1 C1         -0.0173    1.4248    0.0099 C.3       1 <0>         0.0255
      2 O1          0.0021   -0.0041    0.0020 O.3       1 <0>        -0.3066
      3 C2          0.6262   -0.6188    1.0422 C.ar      1 <0>         0.1001
      4 C3          1.2021    0.1367    2.0510 C.ar      1 <0>        -0.1703
      5 C4          1.8358   -0.4897    3.1079 C.ar      1 <0>        -0.1080
      6 C5          1.8971   -1.8699    3.1612 C.ar      1 <0>        -0.0821
      7 C6          1.3251   -2.6295    2.1578 C.ar      1 <0>        -0.1655
      8 C7          0.6830   -2.0080    1.0988 C.ar      1 <0>         0.1018
      9 O2          0.1145   -2.7540    0.1140 O.3       1 <0>        -0.3060
     10 C8          0.2115   -4.1743    0.2380 C.3       1 <0>         0.0254
     11 C9          2.5896   -2.5476    4.3154 C.3       1 <0>        -0.0888
     12 C10         1.5803   -2.8041    5.4363 C.3       1 <0>         0.1203
     13 N1          2.2534   -3.4629    6.5583 N.am      1 <0>        -0.7055
     14 C11         1.5567   -3.7879    7.6653 C.2       1 <0>         0.4897
     15 O3          0.3715   -3.5347    7.7326 O.2       1 <0>        -0.5179
     16 C12         2.2422   -4.4588    8.8078 C.2       1 <0>         0.4210
     17 O4          3.4290   -4.7124    8.7404 O.2       1 <0>        -0.4398
     18 C13         1.4864   -4.8113   10.0087 C.2       1 <0>        -0.2777
     19 C14         0.1398   -4.5970   10.2352 C.2       1 <0>         0.1670
     20 N2         -0.1912   -5.0575   11.4551 N.pl3     1 <0>        -0.5679
     21 H1         -1.0824   -5.0181   11.8360 H         1 <0>         0.4237
     22 C15         0.9109   -5.5948   12.0907 C.ar      1 <0>         0.0702
     23 C16         2.0061   -5.4735   11.2209 C.ar      1 <0>        -0.0546
     24 C17         3.2589   -5.9421   11.6043 C.ar      1 <0>        -0.0763
     25 C18         3.4187   -6.5292   12.8416 C.ar      1 <0>        -0.1296
     26 C19         2.3377   -6.6531   13.7011 C.ar      1 <0>        -0.1040
     27 C20         1.0930   -6.1858   13.3363 C.ar      1 <0>        -0.1178
     28 H2          1.0053    1.8021    0.0021 H         1 <0>         0.0555
     29 H3         -0.5445    1.7859   -0.8732 H         1 <0>         0.1016
     30 H4         -0.5275    1.7763    0.9067 H         1 <0>         0.0556
     31 H5          1.1562    1.2150    2.0113 H         1 <0>         0.1369
     32 H6          2.2842    0.1003    3.8935 H         1 <0>         0.1287
     33 H7          1.3747   -3.7075    2.2017 H         1 <0>         0.1362
     34 H8         -0.2815   -4.6476   -0.6111 H         1 <0>         0.1017
     35 H9          1.2614   -4.4664    0.2576 H         1 <0>         0.0553
     36 H10        -0.2714   -4.4922    1.1620 H         1 <0>         0.0554
     37 H11         3.0097   -3.4961    3.9808 H         1 <0>         0.0818
     38 H12         3.3894   -1.9067    4.6863 H         1 <0>         0.0843
     39 H13         1.1601   -1.8556    5.7709 H         1 <0>         0.0770
     40 H14         0.7804   -3.4450    5.0653 H         1 <0>         0.0755
     41 H15         3.2006   -3.6653    6.5045 H         1 <0>         0.4123
     42 H16        -0.5422   -4.1309    9.5395 H         1 <0>         0.2028
     43 H17         4.1018   -5.8468   10.9360 H         1 <0>         0.1320
     44 H18         4.3895   -6.8944   13.1424 H         1 <0>         0.1277
     45 H19         2.4735   -7.1145   14.6680 H         1 <0>         0.1293
     46 H20         0.2575   -6.2888   14.0129 H         1 <0>         0.1240
@<TRIPOS>BOND
     1    1    2 1
     2    1   28 1
     3    1   29 1
     4    1   30 1
     5    2    3 1
     6    3    8 ar
     7    3    4 ar
     8    4    5 ar
     9    4   31 1
    10    5    6 ar
    11    5   32 1
    12    6    7 ar
    13    6   11 1
    14    7    8 ar
    15    7   33 1
    16    8    9 1
    17    9   10 1
    18   10   34 1
    19   10   35 1
    20   10   36 1
    21   11   12 1
    22   11   37 1
    23   11   38 1
    24   12   13 1
    25   12   39 1
    26   12   40 1
    27   13   14 am
    28   13   41 1
    29   14   15 2
    30   14   16 1
    31   16   17 2
    32   16   18 1
    33   18   23 1
    34   18   19 2
    35   19   20 1
    36   19   42 1
    37   20   21 1
    38   20   22 1
    39   22   27 ar
    40   22   23 ar
    41   23   24 ar
    42   24   25 ar
    43   24   43 1
    44   25   26 ar
    45   25   44 1
    46   26   27 ar
    47   26   45 1
    48   27   46 1
@<TRIPOS>MOLECULE
ZINC04268552
   35    37     0     0     0
SMALL
USER_CHARGES

@<TRIPOS>ATOM
      1 C1         -0.0166    1.3742    0.0096 C.ar      1 <0>        -0.1295
      2 C2          1.1717    2.0893    0.0021 C.ar      1 <0>        -0.1038
      3 C3          2.3848    1.4354   -0.0134 C.ar      1 <0>        -0.1177
      4 C4          2.4244    0.0449   -0.0212 C.ar      1 <0>         0.0701
      5 C5          1.2206   -0.6765   -0.0131 C.ar      1 <0>        -0.0547
      6 C6          0.0021   -0.0041    0.0020 C.ar      1 <0>        -0.0763
      7 C7          1.6047   -2.1014   -0.0245 C.2       1 <0>        -0.2773
      8 C8          2.9866   -2.1267   -0.0384 C.2       1 <0>         0.1668
      9 N1          3.4606   -0.8678   -0.0363 N.pl3     1 <0>        -0.5675
     10 H1          4.4018   -0.6331   -0.0447 H         1 <0>         0.4238
     11 C9          0.7049   -3.2538   -0.0213 C.2       1 <0>         0.4210
     12 O1         -0.4987   -3.0851   -0.0081 O.2       1 <0>        -0.4384
     13 C10         1.2641   -4.6367   -0.0343 C.2       1 <0>         0.4908
     14 O2          2.4661   -4.8053   -0.0475 O.2       1 <0>        -0.5177
     15 N2          0.4347   -5.6991   -0.0314 N.am      1 <0>        -0.7016
     16 C11         0.9839   -7.0572   -0.0441 C.3       1 <0>         0.1582
     17 C12        -0.1450   -8.0556   -0.0377 C.ar      1 <0>        -0.1112
     18 C13        -0.6540   -8.5153    1.1625 C.ar      1 <0>        -0.0852
     19 C14        -1.6893   -9.4309    1.1690 C.ar      1 <0>        -0.1116
     20 C15        -2.2162   -9.8874   -0.0261 C.ar      1 <0>        -0.0251
     21 C16        -1.7063   -9.4270   -1.2270 C.ar      1 <0>        -0.1116
     22 C17        -0.6748   -8.5070   -1.2321 C.ar      1 <0>        -0.0852
     23 Cl1        -3.5162  -11.0379   -0.0187 Cl        1 <0>        -0.0639
     24 H2         -0.9603    1.8992    0.0259 H         1 <0>         0.1278
     25 H3          1.1462    3.1690    0.0081 H         1 <0>         0.1294
     26 H4          3.3042    2.0022   -0.0199 H         1 <0>         0.1241
     27 H5         -0.9242   -0.5594    0.0075 H         1 <0>         0.1319
     28 H6          3.5930   -3.0204   -0.0488 H         1 <0>         0.2030
     29 H7         -0.5259   -5.5644   -0.0208 H         1 <0>         0.4135
     30 H8          1.5873   -7.1967   -0.9411 H         1 <0>         0.0859
     31 H9          1.6055   -7.2060    0.8388 H         1 <0>         0.0859
     32 H10        -0.2424   -8.1591    2.0953 H         1 <0>         0.1357
     33 H11        -2.0867   -9.7903    2.1067 H         1 <0>         0.1375
     34 H12        -2.1170   -9.7832   -2.1601 H         1 <0>         0.1375
     35 H13        -0.2799   -8.1439   -2.1694 H         1 <0>         0.1357
@<TRIPOS>BOND
     1    1    6 ar
     2    1    2 ar
     3    1   24 1
     4    2    3 ar
     5    2   25 1
     6    3    4 ar
     7    3   26 1
     8    4    9 1
     9    4    5 ar
    10    5    6 ar
    11    5    7 1
    12    6   27 1
    13    7    8 2
    14    7   11 1
    15    8    9 1
    16    8   28 1
    17    9   10 1
    18   11   12 2
    19   11   13 1
    20   13   14 2
    21   13   15 am
    22   15   16 1
    23   15   29 1
    24   16   17 1
    25   16   30 1
    26   16   31 1
    27   17   22 ar
    28   17   18 ar
    29   18   19 ar
    30   18   32 1
    31   19   20 ar
    32   19   33 1
    33   20   21 ar
    34   20   23 1
    35   21   22 ar
    36   21   34 1
    37   22   35 1
@<TRIPOS>MOLECULE
ZINC03120962
   35    37     0     0     0
SMALL
USER_CHARGES
N-benzyl-2-(1H-indol-3-yl)-2-oxo-acetamide
@<TRIPOS>ATOM
      1 C1         -5.6239   -6.6043    0.0224 C.ar      1 <0>        -0.1089
      2 C2         -5.0210   -6.2822   -1.1791 C.ar      1 <0>        -0.1213
      3 C3         -3.7915   -5.6504   -1.1879 C.ar      1 <0>        -0.0989
      4 C4         -3.1648   -5.3411    0.0048 C.ar      1 <0>        -0.1158
      5 C5         -3.7651   -5.6683    1.2062 C.ar      1 <0>        -0.0989
      6 C6         -4.9970   -6.2954    1.2150 C.ar      1 <0>        -0.1213
      7 C7         -1.8242   -4.6527   -0.0048 C.3       1 <0>         0.1585
      8 N1         -2.0207   -3.2009    0.0049 N.am      1 <0>        -0.7001
      9 C8         -0.9545   -2.3766   -0.0012 C.2       1 <0>         0.4898
     10 O1          0.1686   -2.8369   -0.0148 O.2       1 <0>        -0.5193
     11 C9         -1.1545   -0.8983    0.0087 C.2       1 <0>         0.4209
     12 O2         -2.2791   -0.4373    0.0223 O.2       1 <0>        -0.4389
     13 C10         0.0021   -0.0041    0.0020 C.2       1 <0>        -0.2771
     14 C11         1.3349   -0.3702   -0.0127 C.2       1 <0>         0.1669
     15 N2          2.1055    0.7325   -0.0141 N.pl3     1 <0>        -0.5679
     16 H1          3.0754    0.7271   -0.0228 H         1 <0>         0.4237
     17 C12         1.3272    1.8732   -0.0006 C.ar      1 <0>         0.0704
     18 C13        -0.0179    1.4716    0.0101 C.ar      1 <0>        -0.0548
     19 C14        -1.0320    2.4241    0.0299 C.ar      1 <0>        -0.0762
     20 C15        -0.7094    3.7647    0.0299 C.ar      1 <0>        -0.1297
     21 C16         0.6184    4.1637    0.0193 C.ar      1 <0>        -0.1039
     22 C17         1.6326    3.2299    0.0042 C.ar      1 <0>        -0.1179
     23 H2         -6.5847   -7.0976    0.0292 H         1 <0>         0.1247
     24 H3         -5.5106   -6.5239   -2.1109 H         1 <0>         0.1257
     25 H4         -3.3204   -5.3987   -2.1266 H         1 <0>         0.1248
     26 H5         -3.2735   -5.4306    2.1379 H         1 <0>         0.1248
     27 H6         -5.4680   -6.5474    2.1537 H         1 <0>         0.1256
     28 H7         -1.2752   -4.9390   -0.9018 H         1 <0>         0.0830
     29 H8         -1.2575   -4.9485    0.8780 H         1 <0>         0.0830
     30 H9         -2.9182   -2.8330    0.0158 H         1 <0>         0.4132
     31 H10         1.7015   -1.3860   -0.0220 H         1 <0>         0.2030
     32 H11        -2.0667    2.1150    0.0433 H         1 <0>         0.1319
     33 H12        -1.4939    4.5068    0.0413 H         1 <0>         0.1277
     34 H13         0.8606    5.2162    0.0226 H         1 <0>         0.1293
     35 H14         2.6634    3.5518   -0.0042 H         1 <0>         0.1240
@<TRIPOS>BOND
     1    1    6 ar
     2    1    2 ar
     3    1   23 1
     4    2    3 ar
     5    2   24 1
     6    3    4 ar
     7    3   25 1
     8    4    5 ar
     9    4    7 1
    10    5    6 ar
    11    5   26 1
    12    6   27 1
    13    7    8 1
    14    7   28 1
    15    7   29 1
    16    8    9 am
    17    8   30 1
    18    9   10 2
    19    9   11 1
    20   11   12 2
    21   11   13 1
    22   13   18 1
    23   13   14 2
    24   14   15 1
    25   14   31 1
    26   15   16 1
    27   15   17 1
    28   17   22 ar
    29   17   18 ar
    30   18   19 ar
    31   19   20 ar
    32   19   32 1
    33   20   21 ar
    34   20   33 1
    35   21   22 ar
    36   21   34 1
    37   22   35 1
@<TRIPOS>MOLECULE
ZINC04163163
   38    40     0     0     0
SMALL
USER_CHARGES
2-(1H-indol-3-yl)-2-oxo-N-(1-phenylethyl)acetamide
@<TRIPOS>ATOM
      1 C1          1.4074    4.0985    1.4307 C.3       1 <0>        -0.1594
      2 C2          1.1505    3.5924    0.0099 C.3       1 <0>         0.1810
      3 H1          0.1767    3.9443   -0.3307 H         1 <0>         0.1019
      4 C3          1.1709    2.0855    0.0021 C.ar      1 <0>        -0.0974
      5 C4         -0.0167    1.3781    0.0096 C.ar      1 <0>        -0.1061
      6 C5          0.0021   -0.0041    0.0020 C.ar      1 <0>        -0.1153
      7 C6          1.2084   -0.6789   -0.0136 C.ar      1 <0>        -0.1165
      8 C7          2.3961    0.0285   -0.0212 C.ar      1 <0>        -0.1142
      9 C8          2.3773    1.4107   -0.0136 C.ar      1 <0>        -0.1141
     10 N1          2.1935    4.0996   -0.8852 N.am      1 <0>        -0.6994
     11 C9          2.0712    5.3229   -1.4374 C.2       1 <0>         0.4926
     12 O1          1.0969    6.0044   -1.1932 O.2       1 <0>        -0.5181
     13 C10         3.1332    5.8393   -2.3489 C.2       1 <0>         0.4207
     14 O2          4.1089    5.1569   -2.5934 O.2       1 <0>        -0.4393
     15 C11         3.0006    7.1663   -2.9480 C.2       1 <0>        -0.2771
     16 C12         1.9561    8.0551   -2.7749 C.2       1 <0>         0.1670
     17 N2          2.1931    9.1731   -3.4844 N.pl3     1 <0>        -0.5678
     18 H2          1.6014    9.9411   -3.5170 H         1 <0>         0.4237
     19 C13         3.3912    9.0762   -4.1644 C.ar      1 <0>         0.0704
     20 C14         3.9517    7.8246   -3.8645 C.ar      1 <0>        -0.0546
     21 C15         5.1731    7.4544   -4.4188 C.ar      1 <0>        -0.0763
     22 C16         5.8303    8.3231   -5.2641 C.ar      1 <0>        -0.1296
     23 C17         5.2787    9.5598   -5.5617 C.ar      1 <0>        -0.1039
     24 C18         4.0692    9.9385   -5.0191 C.ar      1 <0>        -0.1179
     25 H3          1.3926    5.1884    1.4364 H         1 <0>         0.0672
     26 H4          0.6313    3.7211    2.0967 H         1 <0>         0.0722
     27 H5          2.3811    3.7466    1.7713 H         1 <0>         0.0615
     28 H6         -0.9592    1.9054    0.0170 H         1 <0>         0.1256
     29 H7         -0.9258   -0.5567    0.0079 H         1 <0>         0.1256
     30 H8          1.2231   -1.7588   -0.0196 H         1 <0>         0.1243
     31 H9          3.3386   -0.4987   -0.0327 H         1 <0>         0.1254
     32 H10         3.3052    1.9634   -0.0192 H         1 <0>         0.1214
     33 H11         2.9721    3.5549   -1.0803 H         1 <0>         0.4107
     34 H12         1.0843    7.8796   -2.1620 H         1 <0>         0.2031
     35 H13         5.6044    6.4916   -4.1877 H         1 <0>         0.1319
     36 H14         6.7787    8.0393   -5.6958 H         1 <0>         0.1277
     37 H15         5.8016   10.2331   -6.2248 H         1 <0>         0.1293
     38 H16         3.6487   10.9044   -5.2574 H         1 <0>         0.1240
@<TRIPOS>BOND
     1    1    2 1
     2    1   25 1
     3    1   26 1
     4    1   27 1
     5    2    3 1
     6    2    4 1
     7    2   10 1
     8    4    9 ar
     9    4    5 ar
    10    5    6 ar
    11    5   28 1
    12    6    7 ar
    13    6   29 1
    14    7    8 ar
    15    7   30 1
    16    8    9 ar
    17    8   31 1
    18    9   32 1
    19   10   11 am
    20   10   33 1
    21   11   12 2
    22   11   13 1
    23   13   14 2
    24   13   15 1
    25   15   20 1
    26   15   16 2
    27   16   17 1
    28   16   34 1
    29   17   18 1
    30   17   19 1
    31   19   24 ar
    32   19   20 ar
    33   20   21 ar
    34   21   22 ar
    35   21   35 1
    36   22   23 ar
    37   22   36 1
    38   23   24 ar
    39   23   37 1
    40   24   38 1
@<TRIPOS>MOLECULE
ZINC13863224
   40    42     0     0     0
SMALL
USER_CHARGES
2-(5-nitro-1H-indol-3-yl)-2-oxo-N-[(1R)-1-phenylethyl]acetamide
@<TRIPOS>ATOM
      1 C1          8.2939    4.7655   -1.4840 C.3       1 <0>        -0.1598
      2 C2          8.0847    4.2814   -0.0477 C.3       1 <0>         0.1815
      3 H1          7.6627    5.0892    0.5501 H         1 <0>         0.1029
      4 C3          9.4078    3.8609    0.5385 C.ar      1 <0>        -0.0992
      5 C4          9.9330    2.6179    0.2383 C.ar      1 <0>        -0.1141
      6 C5         11.1487    2.2340    0.7726 C.ar      1 <0>        -0.1136
      7 C6         11.8347    3.0892    1.6146 C.ar      1 <0>        -0.1155
      8 C7         11.3072    4.3303    1.9185 C.ar      1 <0>        -0.1151
      9 C8         10.0935    4.7160    1.3808 C.ar      1 <0>        -0.1058
     10 N1          7.1652    3.1408   -0.0459 N.am      1 <0>        -0.6962
     11 C9          5.8336    3.3487   -0.0328 C.2       1 <0>         0.4945
     12 O1          5.3962    4.4810   -0.0224 O.2       1 <0>        -0.5175
     13 C10         4.8974    2.1874   -0.0309 C.2       1 <0>         0.4186
     14 O2          5.3354    1.0536   -0.0413 O.2       1 <0>        -0.4273
     15 C11         3.4529    2.4129   -0.0166 C.2       1 <0>        -0.2585
     16 C12         2.8029    3.6327   -0.0039 C.2       1 <0>         0.1760
     17 N2          1.4724    3.4345    0.0070 N.pl3     1 <0>        -0.5617
     18 H2          0.8097    4.1428    0.0173 H         1 <0>         0.4319
     19 C13         1.1787    2.0851    0.0020 C.ar      1 <0>         0.1167
     20 C14         2.3948    1.3840   -0.0129 C.ar      1 <0>        -0.0641
     21 C15         2.3999   -0.0073   -0.0204 C.ar      1 <0>         0.0030
     22 C16         1.2044   -0.6943   -0.0132 C.ar      1 <0>        -0.0557
     23 C17         0.0021   -0.0041    0.0020 C.ar      1 <0>        -0.0514
     24 C18        -0.0166    1.3744    0.0096 C.ar      1 <0>        -0.1077
     25 N3          1.2047   -2.1745   -0.0211 N.pl3     1 <0>         0.0313
     26 O3          0.1501   -2.7837   -0.0143 O.2       1 <0>        -0.1591
     27 O4          2.2596   -2.7832   -0.0345 O.3       1 <0>        -0.1586
     28 H3          7.3369    5.0696   -1.9080 H         1 <0>         0.0671
     29 H4          8.9780    5.6140   -1.4853 H         1 <0>         0.0732
     30 H5          8.7159    3.9576   -2.0818 H         1 <0>         0.0621
     31 H6          9.3951    1.9482   -0.4162 H         1 <0>         0.1214
     32 H7         11.5610    1.2645    0.5349 H         1 <0>         0.1260
     33 H8         12.7829    2.7879    2.0346 H         1 <0>         0.1247
     34 H9         11.8431    4.9985    2.5763 H         1 <0>         0.1259
     35 H10         9.6812    5.6854    1.6185 H         1 <0>         0.1256
     36 H11         7.5148    2.2360   -0.0542 H         1 <0>         0.4119
     37 H12         3.2888    4.5972   -0.0028 H         1 <0>         0.2130
     38 H13         3.3356   -0.5465   -0.0323 H         1 <0>         0.1631
     39 H14        -0.9288   -0.5516    0.0083 H         1 <0>         0.1603
     40 H15        -0.9589    1.9020    0.0169 H         1 <0>         0.1501
@<TRIPOS>BOND
     1    1    2 1
     2    1   28 1
     3    1   29 1
     4    1   30 1
     5    2    3 1
     6    2    4 1
     7    2   10 1
     8    4    9 ar
     9    4    5 ar
    10    5    6 ar
    11    5   31 1
    12    6    7 ar
    13    6   32 1
    14    7    8 ar
    15    7   33 1
    16    8    9 ar
    17    8   34 1
    18    9   35 1
    19   10   11 am
    20   10   36 1
    21   11   12 2
    22   11   13 1
    23   13   14 2
    24   13   15 1
    25   15   20 1
    26   15   16 2
    27   16   17 1
    28   16   37 1
    29   17   18 1
    30   17   19 1
    31   19   24 ar
    32   19   20 ar
    33   20   21 ar
    34   21   22 ar
    35   21   38 1
    36   22   23 ar
    37   22   25 1
    38   23   24 ar
    39   23   39 1
    40   24   40 1
    41   25   26 2
    42   25   27 1
