@<TRIPOS>MOLECULE
ZINC06507046
   30    32     0     0     0
SMALL
USER_CHARGES

@<TRIPOS>ATOM
      1 C1         -0.0187    1.5258    0.0104 C.3       1 <0>        -0.1516
      2 C2          0.0021   -0.0041    0.0020 C.3       1 <0>         0.0576
      3 O1          0.6932   -0.4774    1.1597 O.3       1 <0>        -0.3290
      4 C3          0.8010   -1.8125    1.3044 C.2       1 <0>         0.5310
      5 O2          0.3215   -2.5545    0.4707 O.2       1 <0>        -0.5021
      6 C4          1.5026   -2.3743    2.4772 C.ar      1 <0>         0.0402
      7 C5          1.6143   -3.7553    2.6160 C.ar      1 <0>        -0.0333
      8 C6          2.2792   -4.2624    3.7284 C.ar      1 <0>        -0.0831
      9 C7          2.5953   -5.6144    4.2150 C.ar      1 <0>        -0.1038
     10 C8          2.3393   -6.8954    3.7304 C.ar      1 <0>        -0.0556
     11 C9          2.7783   -7.9949    4.4350 C.ar      1 <0>        -0.1428
     12 C10         3.4736   -7.8308    5.6237 C.ar      1 <0>        -0.0754
     13 C11         3.7339   -6.5702    6.1150 C.ar      1 <0>        -0.1379
     14 C12         3.2989   -5.4466    5.4180 C.ar      1 <0>         0.1403
     15 N1          3.4169   -4.0919    5.6699 N.pl3     1 <0>        -0.5953
     16 C13         2.8128   -3.3630    4.6699 C.ar      1 <0>         0.1173
     17 C14         2.6538   -1.9943    4.4511 C.ar      1 <0>         0.0980
     18 N2          2.0253   -1.5542    3.3864 N.ar      1 <0>        -0.4039
     19 H1          1.0039    1.9031    0.0027 H         1 <0>         0.0677
     20 H2         -0.5459    1.8868   -0.8726 H         1 <0>         0.0803
     21 H3         -0.5289    1.8773    0.9072 H         1 <0>         0.0677
     22 H4         -1.0205   -0.3814    0.0098 H         1 <0>         0.0690
     23 H5          0.5123   -0.3556   -0.8948 H         1 <0>         0.0690
     24 H6          1.1933   -4.4194    1.8756 H         1 <0>         0.1539
     25 H7          1.7978   -7.0261    2.8052 H         1 <0>         0.1310
     26 H8          2.5801   -8.9882    4.0604 H         1 <0>         0.1325
     27 H9          3.8135   -8.6987    6.1693 H         1 <0>         0.1343
     28 H10         4.2762   -6.4537    7.0417 H         1 <0>         0.1294
     29 H11         3.0568   -1.2892    5.1630 H         1 <0>         0.1699
     30 H12         3.8619   -3.7092    6.4422 H         1 <0>         0.4248
@<TRIPOS>BOND
     1    1    2 1
     2    1   19 1
     3    1   20 1
     4    1   21 1
     5    2    3 1
     6    2   22 1
     7    2   23 1
     8    3    4 1
     9    4    5 2
    10    4    6 1
    11    6   18 ar
    12    6    7 ar
    13    7    8 ar
    14    7   24 1
    15    8   16 ar
    16    8    9 1
    17    9   14 ar
    18    9   10 ar
    19   10   11 ar
    20   10   25 1
    21   11   12 ar
    22   11   26 1
    23   12   13 ar
    24   12   27 1
    25   13   14 ar
    26   13   28 1
    27   14   15 1
    28   15   16 1
    29   15   30 1
    30   16   17 ar
    31   17   18 ar
    32   17   29 1
@<TRIPOS>MOLECULE
ZINC06507046
   31    33     0     0     0
SMALL
USER_CHARGES

@<TRIPOS>ATOM
      1 C1         -0.0187    1.5258    0.0104 C.3       1 <0>        -0.1574
      2 C2          0.0021   -0.0041    0.0020 C.3       1 <0>         0.0635
      3 O1          0.6709   -0.4649   -1.1737 O.3       1 <0>        -0.3539
      4 C3          0.7758   -1.7984   -1.3347 C.2       1 <0>         0.5063
      5 O2          0.3122   -2.5493   -0.5000 O.2       1 <0>        -0.4447
      6 C4          1.4548   -2.3474   -2.5266 C.ar      1 <0>         0.0584
      7 C5          1.5538   -3.7270   -2.6880 C.ar      1 <0>         0.0150
      8 C6          2.1974   -4.2220   -3.8182 C.ar      1 <0>        -0.0128
      9 C7          2.4947   -5.5688   -4.3305 C.ar      1 <0>        -0.1156
     10 C8          2.2352   -6.8550   -3.8620 C.ar      1 <0>        -0.0440
     11 C9          2.6535   -7.9469   -4.5907 C.ar      1 <0>        -0.1219
     12 C10         3.3312   -7.7700   -5.7877 C.ar      1 <0>        -0.0454
     13 C11         3.5947   -6.5040   -6.2632 C.ar      1 <0>        -0.1296
     14 C12         3.1805   -5.3879   -5.5419 C.ar      1 <0>         0.1539
     15 N1          3.3056   -4.0304   -5.7748 N.pl3     1 <0>        -0.5653
     16 C13         2.7234   -3.3124   -4.7542 C.ar      1 <0>         0.1319
     17 C14         2.5790   -1.9460   -4.5119 C.ar      1 <0>         0.1494
     18 N2          1.9602   -1.5175   -3.4368 N.ar      1 <0>        -0.3940
     19 H1          1.0039    1.9031    0.0027 H         1 <0>         0.0711
     20 H2         -0.5459    1.8868   -0.8726 H         1 <0>         0.0710
     21 H3         -0.5289    1.8773    0.9072 H         1 <0>         0.0933
     22 H4          0.5293   -0.3651    0.8851 H         1 <0>         0.0826
     23 H5         -1.0205   -0.3814    0.0098 H         1 <0>         0.0826
     24 H6          1.1398   -4.3991   -1.9509 H         1 <0>         0.1968
     25 H7          1.7080   -6.9958   -2.9300 H         1 <0>         0.1443
     26 H8          2.4532   -8.9444   -4.2283 H         1 <0>         0.1478
     27 H9          3.6554   -8.6320   -6.3518 H         1 <0>         0.1500
     28 H10         4.1232   -6.3775   -7.1965 H         1 <0>         0.1440
     29 H11         2.9763   -1.2332   -5.2193 H         1 <0>         0.2207
     30 H12         3.7422   -3.6394   -6.5476 H         1 <0>         0.4401
     31 H13         1.8718   -0.5616   -3.2980 H         1 <0>         0.4618
@<TRIPOS>BOND
     1    1    2 1
     2    1   19 1
     3    1   20 1
     4    1   21 1
     5    2    3 1
     6    2   22 1
     7    2   23 1
     8    3    4 1
     9    4    5 2
    10    4    6 1
    11    6   18 ar
    12    6    7 ar
    13    7    8 ar
    14    7   24 1
    15    8   16 ar
    16    8    9 1
    17    9   14 ar
    18    9   10 ar
    19   10   11 ar
    20   10   25 1
    21   11   12 ar
    22   11   26 1
    23   12   13 ar
    24   12   27 1
    25   13   14 ar
    26   13   28 1
    27   14   15 1
    28   15   16 1
    29   15   30 1
    30   16   17 ar
    31   17   18 ar
    32   17   29 1
    33   18   31 1
@<TRIPOS>MOLECULE
ZINC00025301
   27    29     0     0     0
SMALL
USER_CHARGES

@<TRIPOS>ATOM
      1 C1         -0.0173    1.4248    0.0099 C.3       1 <0>         0.0312
      2 O1          0.0021   -0.0041    0.0020 O.3       1 <0>        -0.3302
      3 C2          0.6204   -0.6130    1.0325 C.2       1 <0>         0.5293
      4 O2          1.1292    0.0507    1.9135 O.2       1 <0>        -0.5011
      5 C3          0.6797   -2.0882    1.0910 C.ar      1 <0>         0.0397
      6 C4          1.3159   -2.7095    2.1626 C.ar      1 <0>        -0.0329
      7 C5          1.3598   -4.1000    2.1971 C.ar      1 <0>        -0.0832
      8 C6          1.9195   -5.0927    3.1278 C.ar      1 <0>        -0.1038
      9 C7          2.6185   -4.9977    4.3293 C.ar      1 <0>        -0.0556
     10 C8          3.0181   -6.1435    4.9819 C.ar      1 <0>        -0.1427
     11 C9          2.7270   -7.3895    4.4472 C.ar      1 <0>        -0.0753
     12 C10         2.0365   -7.4987    3.2600 C.ar      1 <0>        -0.1378
     13 C11         1.6241   -6.3532    2.5853 C.ar      1 <0>         0.1402
     14 N1          0.9310   -6.1684    1.4028 N.pl3     1 <0>        -0.5952
     15 H1          0.6094   -6.8838    0.8322 H         1 <0>         0.4248
     16 C12         0.7612   -4.8255    1.1505 C.ar      1 <0>         0.1174
     17 C13         0.1456   -4.1204    0.1158 C.ar      1 <0>         0.0983
     18 N2          0.1196   -2.8083    0.1213 N.ar      1 <0>        -0.4043
     19 H2          1.0053    1.8021    0.0021 H         1 <0>         0.0622
     20 H3         -0.5445    1.7859   -0.8732 H         1 <0>         0.1054
     21 H4         -0.5275    1.7763    0.9067 H         1 <0>         0.0622
     22 H5          1.7663   -2.1243    2.9506 H         1 <0>         0.1540
     23 H6          2.8469   -4.0286    4.7478 H         1 <0>         0.1310
     24 H7          3.5603   -6.0709    5.9131 H         1 <0>         0.1325
     25 H8          3.0446   -8.2820    4.9658 H         1 <0>         0.1343
     26 H9          1.8151   -8.4740    2.8524 H         1 <0>         0.1294
     27 H10        -0.3191   -4.6604   -0.6960 H         1 <0>         0.1702
@<TRIPOS>BOND
     1    1    2 1
     2    1   19 1
     3    1   20 1
     4    1   21 1
     5    2    3 1
     6    3    4 2
     7    3    5 1
     8    5   18 ar
     9    5    6 ar
    10    6    7 ar
    11    6   22 1
    12    7   16 ar
    13    7    8 1
    14    8   13 ar
    15    8    9 ar
    16    9   10 ar
    17    9   23 1
    18   10   11 ar
    19   10   24 1
    20   11   12 ar
    21   11   25 1
    22   12   13 ar
    23   12   26 1
    24   13   14 1
    25   14   15 1
    26   14   16 1
    27   16   17 ar
    28   17   18 ar
    29   17   27 1
@<TRIPOS>MOLECULE
ZINC00025301
   28    30     0     0     0
SMALL
USER_CHARGES

@<TRIPOS>ATOM
      1 C1         -0.0173    1.4248    0.0099 C.3       1 <0>         0.0337
      2 O1          0.0021   -0.0041    0.0020 O.3       1 <0>        -0.3534
      3 C2          0.6204   -0.6130    1.0325 C.2       1 <0>         0.5041
      4 O2          1.1292    0.0507    1.9135 O.2       1 <0>        -0.4436
      5 C3          0.6797   -2.0882    1.0910 C.ar      1 <0>         0.0580
      6 C4          1.3159   -2.7095    2.1626 C.ar      1 <0>         0.0154
      7 C5          1.3598   -4.1000    2.1971 C.ar      1 <0>        -0.0130
      8 C6          1.9195   -5.0927    3.1278 C.ar      1 <0>        -0.1156
      9 C7          2.6185   -4.9977    4.3293 C.ar      1 <0>        -0.0440
     10 C8          3.0181   -6.1435    4.9819 C.ar      1 <0>        -0.1218
     11 C9          2.7270   -7.3895    4.4472 C.ar      1 <0>        -0.0454
     12 C10         2.0365   -7.4987    3.2600 C.ar      1 <0>        -0.1295
     13 C11         1.6241   -6.3532    2.5853 C.ar      1 <0>         0.1537
     14 N1          0.9310   -6.1684    1.4028 N.pl3     1 <0>        -0.5651
     15 H1          0.6094   -6.8838    0.8322 H         1 <0>         0.4401
     16 C12         0.7612   -4.8255    1.1505 C.ar      1 <0>         0.1320
     17 C13         0.1456   -4.1204    0.1158 C.ar      1 <0>         0.1499
     18 N2          0.1196   -2.8083    0.1213 N.ar      1 <0>        -0.3940
     19 H2          1.0053    1.8021    0.0021 H         1 <0>         0.0760
     20 H3         -0.5445    1.7859   -0.8732 H         1 <0>         0.1206
     21 H4         -0.5275    1.7763    0.9067 H         1 <0>         0.0760
     22 H5          1.7663   -2.1243    2.9506 H         1 <0>         0.1968
     23 H6          2.8469   -4.0286    4.7478 H         1 <0>         0.1444
     24 H7          3.5603   -6.0709    5.9131 H         1 <0>         0.1479
     25 H8          3.0446   -8.2820    4.9658 H         1 <0>         0.1500
     26 H9          1.8151   -8.4740    2.8524 H         1 <0>         0.1441
     27 H10        -0.3191   -4.6604   -0.6960 H         1 <0>         0.2209
     28 H11        -0.3196   -2.3463   -0.6098 H         1 <0>         0.4620
@<TRIPOS>BOND
     1    1    2 1
     2    1   19 1
     3    1   20 1
     4    1   21 1
     5    2    3 1
     6    3    4 2
     7    3    5 1
     8    5   18 ar
     9    5    6 ar
    10    6    7 ar
    11    6   22 1
    12    7   16 ar
    13    7    8 1
    14    8   13 ar
    15    8    9 ar
    16    9   10 ar
    17    9   23 1
    18   10   11 ar
    19   10   24 1
    20   11   12 ar
    21   11   25 1
    22   12   13 ar
    23   12   26 1
    24   13   14 1
    25   14   15 1
    26   14   16 1
    27   16   17 ar
    28   17   18 ar
    29   17   27 1
    30   18   28 1
@<TRIPOS>MOLECULE
ZINC09227024
   28    30     0     0     0
SMALL
USER_CHARGES

@<TRIPOS>ATOM
      1 C1         -0.0178    1.4608    0.0101 C.3       1 <0>         0.0856
      2 N1          0.0021   -0.0041    0.0020 N.am      1 <0>        -0.7181
      3 C2         -1.1558   -0.6938    0.0094 C.2       1 <0>         0.5778
      4 O1         -2.2166   -0.1004    0.0227 O.2       1 <0>        -0.5353
      5 C3         -1.1358   -2.1723    0.0012 C.ar      1 <0>         0.0270
      6 C4         -2.3364   -2.8766    0.0032 C.ar      1 <0>        -0.0399
      7 C5         -2.2939   -4.2677   -0.0046 C.ar      1 <0>        -0.0794
      8 C6         -3.3100   -5.3319   -0.0055 C.ar      1 <0>        -0.1058
      9 C7         -4.7033   -5.3314    0.0005 C.ar      1 <0>        -0.0549
     10 C8         -5.3888   -6.5264   -0.0033 C.ar      1 <0>        -0.1444
     11 C9         -4.6973   -7.7285   -0.0131 C.ar      1 <0>        -0.0755
     12 C10        -3.3196   -7.7443   -0.0187 C.ar      1 <0>        -0.1397
     13 C11        -2.6085   -6.5477   -0.0154 C.ar      1 <0>         0.1413
     14 N2         -1.2536   -6.2705   -0.0204 N.pl3     1 <0>        -0.5980
     15 C12        -1.0418   -4.9096   -0.0141 C.ar      1 <0>         0.1090
     16 C13         0.1111   -4.1244   -0.0158 C.ar      1 <0>         0.0979
     17 N3          0.0300   -2.8143   -0.0133 N.ar      1 <0>        -0.4295
     18 H1          1.0048    1.8381    0.0023 H         1 <0>         0.0784
     19 H2         -0.5450    1.8219   -0.8730 H         1 <0>         0.0621
     20 H3         -0.5280    1.8123    0.9069 H         1 <0>         0.0622
     21 H4          0.8486   -0.4776   -0.0086 H         1 <0>         0.4122
     22 H5         -3.2817   -2.3543    0.0109 H         1 <0>         0.1516
     23 H6         -5.2444   -4.3967    0.0085 H         1 <0>         0.1307
     24 H7         -6.4688   -6.5271    0.0017 H         1 <0>         0.1320
     25 H8         -5.2434   -8.6602   -0.0160 H         1 <0>         0.1337
     26 H9         -2.7910   -8.6860   -0.0259 H         1 <0>         0.1286
     27 H10         1.0809   -4.5996   -0.0230 H         1 <0>         0.1667
     28 H11        -0.5516   -6.9399   -0.0271 H         1 <0>         0.4235
@<TRIPOS>BOND
     1    1    2 1
     2    1   18 1
     3    1   19 1
     4    1   20 1
     5    2    3 am
     6    2   21 1
     7    3    4 2
     8    3    5 1
     9    5   17 ar
    10    5    6 ar
    11    6    7 ar
    12    6   22 1
    13    7   15 ar
    14    7    8 1
    15    8   13 ar
    16    8    9 ar
    17    9   10 ar
    18    9   23 1
    19   10   11 ar
    20   10   24 1
    21   11   12 ar
    22   11   25 1
    23   12   13 ar
    24   12   26 1
    25   13   14 1
    26   14   15 1
    27   14   28 1
    28   15   16 ar
    29   16   17 ar
    30   16   27 1
@<TRIPOS>MOLECULE
ZINC09227024
   29    31     0     0     0
SMALL
USER_CHARGES

@<TRIPOS>ATOM
      1 C1         -0.0178    1.4608    0.0101 C.3       1 <0>         0.0800
      2 N1          0.0021   -0.0041    0.0020 N.am      1 <0>        -0.7213
      3 C2          0.5851   -0.6645   -1.0180 C.2       1 <0>         0.5560
      4 O1          1.0944   -0.0447   -1.9312 O.2       1 <0>        -0.4749
      5 C3          0.6051   -2.1431   -1.0261 C.ar      1 <0>         0.0435
      6 C4          1.2144   -2.8170   -2.0807 C.ar      1 <0>         0.0088
      7 C5          1.2216   -4.2087   -2.0679 C.ar      1 <0>        -0.0069
      8 C6          1.7467   -5.2470   -2.9684 C.ar      1 <0>        -0.1190
      9 C7          2.4377   -5.2115   -4.1777 C.ar      1 <0>        -0.0422
     10 C8          2.8022   -6.3890   -4.7933 C.ar      1 <0>        -0.1239
     11 C9          2.4839   -7.6080   -4.2137 C.ar      1 <0>        -0.0446
     12 C10         1.8005   -7.6583   -3.0184 C.ar      1 <0>        -0.1316
     13 C11         1.4236   -6.4800   -2.3804 C.ar      1 <0>         0.1560
     14 N2          0.7466   -6.2368   -1.1992 N.pl3     1 <0>        -0.5697
     15 C12         0.6141   -4.8817   -0.9918 C.ar      1 <0>         0.1292
     16 C13         0.0272   -4.1258    0.0229 C.ar      1 <0>         0.1404
     17 N3          0.0452   -2.8140   -0.0223 N.ar      1 <0>        -0.4075
     18 H1          1.0048    1.8381    0.0023 H         1 <0>         0.0768
     19 H2         -0.5450    1.8219   -0.8730 H         1 <0>         0.0768
     20 H3         -0.5280    1.8123    0.9069 H         1 <0>         0.0925
     21 H4         -0.4044   -0.4986    0.7308 H         1 <0>         0.3959
     22 H5          1.6719   -2.2711   -2.8926 H         1 <0>         0.1955
     23 H6          2.6866   -4.2637   -4.6315 H         1 <0>         0.1443
     24 H7          3.3376   -6.3626   -5.7309 H         1 <0>         0.1476
     25 H8          2.7738   -8.5257   -4.7036 H         1 <0>         0.1496
     26 H9          1.5572   -8.6130   -2.5759 H         1 <0>         0.1434
     27 H10        -0.4438   -4.6251    0.8568 H         1 <0>         0.2180
     28 H11         0.4120   -6.9236   -0.6015 H         1 <0>         0.4391
     29 H12        -0.3680   -2.3157    0.7001 H         1 <0>         0.4482
@<TRIPOS>BOND
     1    1    2 1
     2    1   18 1
     3    1   19 1
     4    1   20 1
     5    2    3 am
     6    2   21 1
     7    3    4 2
     8    3    5 1
     9    5   17 ar
    10    5    6 ar
    11    6    7 ar
    12    6   22 1
    13    7   15 ar
    14    7    8 1
    15    8   13 ar
    16    8    9 ar
    17    9   10 ar
    18    9   23 1
    19   10   11 ar
    20   10   24 1
    21   11   12 ar
    22   11   25 1
    23   12   13 ar
    24   12   26 1
    25   13   14 1
    26   14   15 1
    27   14   28 1
    28   15   16 ar
    29   16   17 ar
    30   16   27 1
    31   17   29 1
