@<TRIPOS>MOLECULE
ZINC02020083
   47    49     0     0     0
SMALL
USER_CHARGES

@<TRIPOS>ATOM
      1 C1         -0.0178    1.4648    0.0101 C.3       1 <0>        -0.0545
      2 N1          0.0021   -0.0041    0.0020 N.4       1 <0>        -0.3859
      3 C2         -1.3761   -0.5125    0.0124 C.3       1 <0>        -0.0472
      4 C3          0.6897   -0.4778   -1.2066 C.3       1 <0>        -0.0062
      5 C4          2.1588   -0.0534   -1.1571 C.3       1 <0>        -0.1516
      6 C5          2.8749   -0.5468   -2.4159 C.3       1 <0>         0.0668
      7 O1          4.2470   -0.1503   -2.3696 O.3       1 <0>        -0.2813
      8 C6          5.0297   -0.5122   -3.4204 C.2       1 <0>         0.2787
      9 C7          6.4541   -0.2191   -3.5768 C.ar      1 <0>        -0.1729
     10 C8          7.3992    0.4545   -2.7964 C.ar      1 <0>        -0.0316
     11 C9          8.6873    0.5580   -3.2359 C.ar      1 <0>        -0.1592
     12 C10         9.0675    0.0010   -4.4508 C.ar      1 <0>        -0.0548
     13 C11         8.1625   -0.6615   -5.2304 C.ar      1 <0>        -0.1455
     14 C12         6.8409   -0.7834   -4.8073 C.ar      1 <0>         0.1550
     15 N2          5.7238   -1.3698   -5.3425 N.pl3     1 <0>        -0.3833
     16 N3          4.6467   -1.1887   -4.4689 N.2       1 <0>        -0.3023
     17 C13         5.6681   -2.0787   -6.6234 C.3       1 <0>         0.1860
     18 C14         5.9717   -3.5383   -6.4033 C.ar      1 <0>        -0.1232
     19 C15         7.2766   -3.9901   -6.4674 C.ar      1 <0>        -0.0978
     20 C16         7.5551   -5.3290   -6.2655 C.ar      1 <0>        -0.1195
     21 C17         6.5288   -6.2159   -5.9992 C.ar      1 <0>        -0.1067
     22 C18         5.2241   -5.7640   -5.9342 C.ar      1 <0>        -0.1236
     23 C19         4.9460   -4.4243   -6.1318 C.ar      1 <0>        -0.0934
     24 H1          1.0047    1.8421    0.0024 H         1 <0>         0.1255
     25 H2         -0.5450    1.8259   -0.8730 H         1 <0>         0.1236
     26 H3         -0.5280    1.8163    0.9069 H         1 <0>         0.1265
     27 H4         -1.9033   -0.1515   -0.8706 H         1 <0>         0.1229
     28 H5         -1.3613   -1.6024    0.0065 H         1 <0>         0.1243
     29 H6         -1.8863   -0.1610    0.9092 H         1 <0>         0.1265
     30 H7          0.6270   -1.5648   -1.2578 H         1 <0>         0.1355
     31 H8          0.2158   -0.0447   -2.0875 H         1 <0>         0.1344
     32 H9          2.2214    1.0336   -1.1059 H         1 <0>         0.1001
     33 H10         2.6326   -0.4865   -0.2761 H         1 <0>         0.0999
     34 H11         2.8123   -1.6338   -2.4670 H         1 <0>         0.0758
     35 H12         2.4011   -0.1137   -3.2968 H         1 <0>         0.0759
     36 H13         7.1112    0.8907   -1.8513 H         1 <0>         0.1288
     37 H14         9.4177    1.0780   -2.6338 H         1 <0>         0.1318
     38 H15        10.0910    0.0934   -4.7829 H         1 <0>         0.1352
     39 H16         8.4709   -1.0900   -6.1726 H         1 <0>         0.1295
     40 H17         4.6715   -1.9756   -7.0527 H         1 <0>         0.1033
     41 H18         6.4036   -1.6535   -7.3063 H         1 <0>         0.1042
     42 H19         8.0784   -3.2972   -6.6755 H         1 <0>         0.1229
     43 H20         8.5745   -5.6821   -6.3163 H         1 <0>         0.1272
     44 H21         6.7463   -7.2621   -5.8422 H         1 <0>         0.1259
     45 H22         4.4222   -6.4570   -5.7265 H         1 <0>         0.1244
     46 H23         3.9271   -4.0706   -6.0774 H         1 <0>         0.1213
     47 H24         0.4901   -0.3383    0.8195 H         1 <0>         0.4287
@<TRIPOS>BOND
     1    1    2 1
     2    1   24 1
     3    1   25 1
     4    1   26 1
     5    2    3 1
     6    2    4 1
     7    2   47 1
     8    3   27 1
     9    3   28 1
    10    3   29 1
    11    4    5 1
    12    4   30 1
    13    4   31 1
    14    5    6 1
    15    5   32 1
    16    5   33 1
    17    6    7 1
    18    6   34 1
    19    6   35 1
    20    7    8 1
    21    8   16 2
    22    8    9 1
    23    9   14 ar
    24    9   10 ar
    25   10   11 ar
    26   10   36 1
    27   11   12 ar
    28   11   37 1
    29   12   13 ar
    30   12   38 1
    31   13   14 ar
    32   13   39 1
    33   14   15 1
    34   15   16 1
    35   15   17 1
    36   17   18 1
    37   17   40 1
    38   17   41 1
    39   18   23 ar
    40   18   19 ar
    41   19   20 ar
    42   19   42 1
    43   20   21 ar
    44   20   43 1
    45   21   22 ar
    46   21   44 1
    47   22   23 ar
    48   22   45 1
    49   23   46 1
