@<TRIPOS>MOLECULE
ZINC01549583
   59    61     0     0     0
SMALL
USER_CHARGES

@<TRIPOS>ATOM
      1 C1          1.5957    2.1676    0.1185 C.3       1 <0>        -0.0546
      2 N1          1.2436    0.7440    0.0338 N.4       1 <0>        -0.3859
      3 C2          1.8710    0.1543   -1.1565 C.3       1 <0>        -0.0472
      4 C3          1.7233    0.0485    1.2355 C.3       1 <0>        -0.0060
      5 C4          0.9780    0.5775    2.4625 C.3       1 <0>        -0.1522
      6 C5          1.4776   -0.1468    3.7142 C.3       1 <0>         0.0688
      7 O1          0.7815    0.3472    4.8602 O.3       1 <0>        -0.2822
      8 C6          1.1092   -0.1959    6.0633 C.2       1 <0>         0.2494
      9 C7          0.5418    0.1461    7.2930 C.2       1 <0>        -0.1801
     10 C8          1.1448   -0.6298    8.2620 C.2       1 <0>         0.0542
     11 N2          2.0589   -1.4251    7.6294 N.pl3     1 <0>        -0.3374
     12 N3          2.0069   -1.1324    6.2610 N.2       1 <0>        -0.2959
     13 C9          2.9334   -2.4115    8.2685 C.3       1 <0>         0.1618
     14 C10         3.8875   -2.9737    7.2464 C.ar      1 <0>        -0.0997
     15 C11         3.4993   -4.0329    6.4476 C.ar      1 <0>        -0.0842
     16 C12         4.3745   -4.5487    5.5101 C.ar      1 <0>        -0.1218
     17 C13         5.6378   -4.0049    5.3711 C.ar      1 <0>        -0.1040
     18 C14         6.0257   -2.9451    6.1694 C.ar      1 <0>        -0.1206
     19 C15         5.1490   -2.4266    7.1040 C.ar      1 <0>        -0.0906
     20 C16         0.8578   -0.6054    9.7048 C.2       1 <0>         0.5852
     21 O2          0.1226    0.2479   10.1644 O.2       1 <0>        -0.4862
     22 N4          1.4093   -1.5285   10.5173 N.am      1 <0>        -0.6637
     23 C17         1.2877   -1.4007   11.9064 C.ar      1 <0>         0.0946
     24 C18         0.2292   -0.6833   12.4480 C.ar      1 <0>        -0.0931
     25 C19         0.1097   -0.5581   13.8180 C.ar      1 <0>        -0.1306
     26 C20         1.0470   -1.1483   14.6532 C.ar      1 <0>         0.1201
     27 C21         2.1048   -1.8651   14.1129 C.ar      1 <0>        -0.1875
     28 C22         2.2224   -1.9960   12.7433 C.ar      1 <0>        -0.1038
     29 O3          0.9292   -1.0238   16.0020 O.3       1 <0>        -0.3149
     30 C23         1.9299   -1.6571   16.8019 C.3       1 <0>         0.0252
     31 H1          2.6785    2.2704    0.1899 H         1 <0>         0.1234
     32 H2          1.2398    2.6836   -0.7732 H         1 <0>         0.1265
     33 H3          1.1302    2.6051    1.0016 H         1 <0>         0.1259
     34 H4          2.9537    0.2571   -1.0851 H         1 <0>         0.1227
     35 H5          1.6096   -0.9020   -1.2193 H         1 <0>         0.1242
     36 H6          1.5150    0.6704   -2.0482 H         1 <0>         0.1264
     37 H7          1.5413   -1.0213    1.1331 H         1 <0>         0.1351
     38 H8          2.7921    0.2254    1.3554 H         1 <0>         0.1339
     39 H9          1.1600    1.6473    2.5649 H         1 <0>         0.1000
     40 H10        -0.0908    0.4006    2.3427 H         1 <0>         0.1000
     41 H11         1.2957   -1.2167    3.6118 H         1 <0>         0.0749
     42 H12         2.5465    0.0301    3.8341 H         1 <0>         0.0745
     43 H13        -0.2292    0.8846    7.4561 H         1 <0>         0.1711
     44 H14         3.4984   -1.9323    9.0680 H         1 <0>         0.1046
     45 H15         2.3290   -3.2180    8.6836 H         1 <0>         0.1000
     46 H16         2.5123   -4.4578    6.5561 H         1 <0>         0.1212
     47 H17         4.0714   -5.3767    4.8864 H         1 <0>         0.1254
     48 H18         6.3218   -4.4083    4.6392 H         1 <0>         0.1252
     49 H19         7.0128   -2.5205    6.0611 H         1 <0>         0.1264
     50 H20         5.4507   -1.5962    7.7251 H         1 <0>         0.1225
     51 H21         1.8905   -2.2814   10.1398 H         1 <0>         0.4059
     52 H22        -0.5003   -0.2232   11.7979 H         1 <0>         0.1657
     53 H23        -0.7135   -0.0003   14.2393 H         1 <0>         0.1383
     54 H24         2.8343   -2.3240   14.7637 H         1 <0>         0.1354
     55 H25         3.0436   -2.5575   12.3229 H         1 <0>         0.1283
     56 H26         1.9273   -2.7292   16.6054 H         1 <0>         0.0568
     57 H27         2.9079   -1.2446   16.5540 H         1 <0>         0.0566
     58 H28         1.7177   -1.4805   17.8563 H         1 <0>         0.1032
     59 H29         0.2412    0.6488   -0.0323 H         1 <0>         0.4287
@<TRIPOS>BOND
     1    1    2 1
     2    1   31 1
     3    1   32 1
     4    1   33 1
     5    2    3 1
     6    2    4 1
     7    2   59 1
     8    3   34 1
     9    3   35 1
    10    3   36 1
    11    4    5 1
    12    4   37 1
    13    4   38 1
    14    5    6 1
    15    5   39 1
    16    5   40 1
    17    6    7 1
    18    6   41 1
    19    6   42 1
    20    7    8 1
    21    8   12 2
    22    8    9 1
    23    9   10 2
    24    9   43 1
    25   10   11 1
    26   10   20 1
    27   11   12 1
    28   11   13 1
    29   13   14 1
    30   13   44 1
    31   13   45 1
    32   14   19 ar
    33   14   15 ar
    34   15   16 ar
    35   15   46 1
    36   16   17 ar
    37   16   47 1
    38   17   18 ar
    39   17   48 1
    40   18   19 ar
    41   18   49 1
    42   19   50 1
    43   20   21 2
    44   20   22 am
    45   22   23 1
    46   22   51 1
    47   23   28 ar
    48   23   24 ar
    49   24   25 ar
    50   24   52 1
    51   25   26 ar
    52   25   53 1
    53   26   27 ar
    54   26   29 1
    55   27   28 ar
    56   27   54 1
    57   28   55 1
    58   29   30 1
    59   30   56 1
    60   30   57 1
    61   30   58 1
@<TRIPOS>MOLECULE
ZINC02020083
   47    49     0     0     0
SMALL
USER_CHARGES

@<TRIPOS>ATOM
      1 C1         -0.0178    1.4648    0.0101 C.3       1 <0>        -0.0545
      2 N1          0.0021   -0.0041    0.0020 N.4       1 <0>        -0.3859
      3 C2         -1.3761   -0.5125    0.0124 C.3       1 <0>        -0.0472
      4 C3          0.6897   -0.4778   -1.2066 C.3       1 <0>        -0.0062
      5 C4          2.1588   -0.0534   -1.1571 C.3       1 <0>        -0.1516
      6 C5          2.8749   -0.5468   -2.4159 C.3       1 <0>         0.0668
      7 O1          4.2470   -0.1503   -2.3696 O.3       1 <0>        -0.2813
      8 C6          5.0297   -0.5122   -3.4204 C.2       1 <0>         0.2787
      9 C7          6.4541   -0.2191   -3.5768 C.ar      1 <0>        -0.1729
     10 C8          7.3992    0.4545   -2.7964 C.ar      1 <0>        -0.0316
     11 C9          8.6873    0.5580   -3.2359 C.ar      1 <0>        -0.1592
     12 C10         9.0675    0.0010   -4.4508 C.ar      1 <0>        -0.0548
     13 C11         8.1625   -0.6615   -5.2304 C.ar      1 <0>        -0.1455
     14 C12         6.8409   -0.7834   -4.8073 C.ar      1 <0>         0.1550
     15 N2          5.7238   -1.3698   -5.3425 N.pl3     1 <0>        -0.3833
     16 N3          4.6467   -1.1887   -4.4689 N.2       1 <0>        -0.3023
     17 C13         5.6681   -2.0787   -6.6234 C.3       1 <0>         0.1860
     18 C14         5.9717   -3.5383   -6.4033 C.ar      1 <0>        -0.1232
     19 C15         7.2766   -3.9901   -6.4674 C.ar      1 <0>        -0.0978
     20 C16         7.5551   -5.3290   -6.2655 C.ar      1 <0>        -0.1195
     21 C17         6.5288   -6.2159   -5.9992 C.ar      1 <0>        -0.1067
     22 C18         5.2241   -5.7640   -5.9342 C.ar      1 <0>        -0.1236
     23 C19         4.9460   -4.4243   -6.1318 C.ar      1 <0>        -0.0934
     24 H1          1.0047    1.8421    0.0024 H         1 <0>         0.1255
     25 H2         -0.5450    1.8259   -0.8730 H         1 <0>         0.1236
     26 H3         -0.5280    1.8163    0.9069 H         1 <0>         0.1265
     27 H4         -1.9033   -0.1515   -0.8706 H         1 <0>         0.1229
     28 H5         -1.3613   -1.6024    0.0065 H         1 <0>         0.1243
     29 H6         -1.8863   -0.1610    0.9092 H         1 <0>         0.1265
     30 H7          0.6270   -1.5648   -1.2578 H         1 <0>         0.1355
     31 H8          0.2158   -0.0447   -2.0875 H         1 <0>         0.1344
     32 H9          2.2214    1.0336   -1.1059 H         1 <0>         0.1001
     33 H10         2.6326   -0.4865   -0.2761 H         1 <0>         0.0999
     34 H11         2.8123   -1.6338   -2.4670 H         1 <0>         0.0758
     35 H12         2.4011   -0.1137   -3.2968 H         1 <0>         0.0759
     36 H13         7.1112    0.8907   -1.8513 H         1 <0>         0.1288
     37 H14         9.4177    1.0780   -2.6338 H         1 <0>         0.1318
     38 H15        10.0910    0.0934   -4.7829 H         1 <0>         0.1352
     39 H16         8.4709   -1.0900   -6.1726 H         1 <0>         0.1295
     40 H17         4.6715   -1.9756   -7.0527 H         1 <0>         0.1033
     41 H18         6.4036   -1.6535   -7.3063 H         1 <0>         0.1042
     42 H19         8.0784   -3.2972   -6.6755 H         1 <0>         0.1229
     43 H20         8.5745   -5.6821   -6.3163 H         1 <0>         0.1272
     44 H21         6.7463   -7.2621   -5.8422 H         1 <0>         0.1259
     45 H22         4.4222   -6.4570   -5.7265 H         1 <0>         0.1244
     46 H23         3.9271   -4.0706   -6.0774 H         1 <0>         0.1213
     47 H24         0.4901   -0.3383    0.8195 H         1 <0>         0.4287
@<TRIPOS>BOND
     1    1    2 1
     2    1   24 1
     3    1   25 1
     4    1   26 1
     5    2    3 1
     6    2    4 1
     7    2   47 1
     8    3   27 1
     9    3   28 1
    10    3   29 1
    11    4    5 1
    12    4   30 1
    13    4   31 1
    14    5    6 1
    15    5   32 1
    16    5   33 1
    17    6    7 1
    18    6   34 1
    19    6   35 1
    20    7    8 1
    21    8   16 2
    22    8    9 1
    23    9   14 ar
    24    9   10 ar
    25   10   11 ar
    26   10   36 1
    27   11   12 ar
    28   11   37 1
    29   12   13 ar
    30   12   38 1
    31   13   14 ar
    32   13   39 1
    33   14   15 1
    34   15   16 1
    35   15   17 1
    36   17   18 1
    37   17   40 1
    38   17   41 1
    39   18   23 ar
    40   18   19 ar
    41   19   20 ar
    42   19   42 1
    43   20   21 ar
    44   20   43 1
    45   21   22 ar
    46   21   44 1
    47   22   23 ar
    48   22   45 1
    49   23   46 1
