@<TRIPOS>MOLECULE
ZINC01573528
   40    42     0     0     0
SMALL
USER_CHARGES
4-hydroxy-3-methoxy-N-(1-naphthylmethyleneamino)benzamide
@<TRIPOS>ATOM
      1 C1         -9.6795    4.1424   -0.3980 C.3       1 <0>         0.0205
      2 O1         -9.7398    5.5657   -0.2851 O.3       1 <0>        -0.3034
      3 C2         -8.5559    6.2282   -0.1900 C.ar      1 <0>         0.0990
      4 C3         -7.3674    5.5244   -0.2051 C.ar      1 <0>        -0.1319
      5 C4         -6.1526    6.2084   -0.1077 C.ar      1 <0>        -0.1042
      6 C5         -6.1459    7.6007    0.0105 C.ar      1 <0>        -0.1065
      7 C6         -7.3349    8.2970    0.0197 C.ar      1 <0>        -0.1125
      8 C7         -8.5417    7.6176   -0.0776 C.ar      1 <0>         0.1082
      9 O2         -9.7110    8.3081   -0.0628 O.3       1 <0>        -0.4832
     10 C8         -4.8801    5.4616   -0.1234 C.2       1 <0>         0.5799
     11 O3         -4.8877    4.2494   -0.2213 O.2       1 <0>        -0.4970
     12 N1         -3.7095    6.1228   -0.0293 N.am      1 <0>        -0.5820
     13 N2         -2.5013    5.4137   -0.0443 N.2       1 <0>        -0.2282
     14 C9         -1.3726    6.0512    0.0465 C.2       1 <0>         0.1209
     15 C10        -0.1041    5.3067    0.0307 C.ar      1 <0>        -0.0550
     16 C11         1.1127    5.9782    0.0146 C.ar      1 <0>        -0.0730
     17 C12         2.3080    5.2728   -0.0007 C.ar      1 <0>        -0.1285
     18 C13         2.3389    3.9118   -0.0000 C.ar      1 <0>        -0.0803
     19 C14         1.1474    3.1678    0.0164 C.ar      1 <0>        -0.0593
     20 C15        -0.0965    3.8451    0.0322 C.ar      1 <0>        -0.0293
     21 C16        -1.2861    3.1072    0.0490 C.ar      1 <0>        -0.1129
     22 C17        -1.2339    1.7451    0.0423 C.ar      1 <0>        -0.1136
     23 C18        -0.0123    1.0758    0.0325 C.ar      1 <0>        -0.1140
     24 C19         1.1633    1.7622    0.0169 C.ar      1 <0>        -0.1115
     25 H1        -10.6903    3.7402   -0.4660 H         1 <0>         0.1062
     26 H2         -9.1200    3.8724   -1.2937 H         1 <0>         0.0601
     27 H3         -9.1823    3.7290    0.4794 H         1 <0>         0.0596
     28 H4         -7.3769    4.4479   -0.2918 H         1 <0>         0.1500
     29 H5         -5.2087    8.1314    0.0905 H         1 <0>         0.1317
     30 H6         -7.3281    9.3735    0.1069 H         1 <0>         0.1467
     31 H7        -10.0804    8.4372    0.8215 H         1 <0>         0.3941
     32 H8         -3.7035    7.0897    0.0488 H         1 <0>         0.3871
     33 H9         -1.3659    7.1277    0.1334 H         1 <0>         0.1283
     34 H10         1.1283    7.0581    0.0135 H         1 <0>         0.1316
     35 H11         3.2396    5.8189   -0.0138 H         1 <0>         0.1285
     36 H12         3.2892    3.3989   -0.0125 H         1 <0>         0.1286
     37 H13        -2.2396    3.6141    0.0611 H         1 <0>         0.1716
     38 H14        -2.1523    1.1769    0.0501 H         1 <0>         0.1233
     39 H15         0.0024   -0.0041    0.0329 H         1 <0>         0.1227
     40 H16         2.1029    1.2298    0.0053 H         1 <0>         0.1276
@<TRIPOS>BOND
     1    1    2 1
     2    1   25 1
     3    1   26 1
     4    1   27 1
     5    2    3 1
     6    3    8 ar
     7    3    4 ar
     8    4    5 ar
     9    4   28 1
    10    5    6 ar
    11    5   10 1
    12    6    7 ar
    13    6   29 1
    14    7    8 ar
    15    7   30 1
    16    8    9 1
    17    9   31 1
    18   10   11 2
    19   10   12 am
    20   12   13 1
    21   12   32 1
    22   13   14 2
    23   14   15 1
    24   14   33 1
    25   15   20 ar
    26   15   16 ar
    27   16   17 ar
    28   16   34 1
    29   17   18 ar
    30   17   35 1
    31   18   19 ar
    32   18   36 1
    33   19   24 ar
    34   19   20 ar
    35   20   21 ar
    36   21   22 ar
    37   21   37 1
    38   22   23 ar
    39   22   38 1
    40   23   24 ar
    41   23   39 1
    42   24   40 1
@<TRIPOS>MOLECULE
ZINC00357329
   40    42     0     0     0
SMALL
USER_CHARGES
4-hydroxy-N-[(4-methoxy-1-naphthyl)methyleneamino]benzamide
@<TRIPOS>ATOM
      1 C1          5.0509  -11.0706   -0.2228 C.3       1 <0>         0.0238
      2 O1          3.7527  -10.4874   -0.0940 O.3       1 <0>        -0.3088
      3 C2          3.6845   -9.1318   -0.0826 C.ar      1 <0>         0.1740
      4 C3          4.8383   -8.3879   -0.1932 C.ar      1 <0>        -0.2392
      5 C4          4.8127   -7.0020   -0.1903 C.ar      1 <0>        -0.0288
      6 C5          3.6102   -6.3155   -0.0650 C.ar      1 <0>        -0.0983
      7 C6          2.3702   -7.0806    0.0529 C.ar      1 <0>         0.0049
      8 C7          2.4329   -8.4947    0.0419 C.ar      1 <0>        -0.0780
      9 C8          1.2453   -9.2355    0.1548 C.ar      1 <0>        -0.0891
     10 C9          0.0544   -8.5854    0.2729 C.ar      1 <0>        -0.1258
     11 C10        -0.0046   -7.1940    0.2836 C.ar      1 <0>        -0.0991
     12 C11         1.1288   -6.4445    0.1755 C.ar      1 <0>        -0.1225
     13 C12         3.5856   -4.8455   -0.0574 C.2       1 <0>         0.1289
     14 N1          2.4492   -4.2146   -0.0454 N.2       1 <0>        -0.2358
     15 N2          2.4258   -2.8138   -0.0381 N.am      1 <0>        -0.5840
     16 C13         1.2475   -2.1596   -0.0257 C.2       1 <0>         0.5792
     17 O2          0.2045   -2.7854   -0.0207 O.2       1 <0>        -0.4991
     18 C14         1.2228   -0.6843   -0.0180 C.ar      1 <0>        -0.1454
     19 C15         0.0020   -0.0040   -0.0051 C.ar      1 <0>        -0.0359
     20 C16        -0.0167    1.3728    0.0025 C.ar      1 <0>        -0.1519
     21 C17         1.1764    2.0860   -0.0026 C.ar      1 <0>         0.1390
     22 C18         2.3926    1.4133   -0.0155 C.ar      1 <0>        -0.1526
     23 C19         2.4201    0.0366   -0.0231 C.ar      1 <0>        -0.0688
     24 O3          1.1537    3.4430    0.0049 O.3       1 <0>        -0.4970
     25 H1          4.9632  -12.1571   -0.2181 H         1 <0>         0.1041
     26 H2          5.5033  -10.7467   -1.1601 H         1 <0>         0.0602
     27 H3          5.6764  -10.7529    0.6114 H         1 <0>         0.0603
     28 H4          5.7861   -8.8970   -0.2879 H         1 <0>         0.1338
     29 H5          5.7364   -6.4500   -0.2828 H         1 <0>         0.1332
     30 H6          1.2761  -10.3151    0.1483 H         1 <0>         0.1318
     31 H7         -0.8577   -9.1572    0.3600 H         1 <0>         0.1244
     32 H8         -0.9614   -6.7021    0.3787 H         1 <0>         0.1253
     33 H9          1.0697   -5.3661    0.1847 H         1 <0>         0.1763
     34 H10         4.5117   -4.2899   -0.0617 H         1 <0>         0.1253
     35 H11         3.2575   -2.3148   -0.0420 H         1 <0>         0.3847
     36 H12        -0.9254   -0.5574   -0.0007 H         1 <0>         0.1449
     37 H13        -0.9596    1.8993    0.0079 H         1 <0>         0.1404
     38 H14         3.3174    1.9711   -0.0195 H         1 <0>         0.1382
     39 H15         3.3655   -0.4854   -0.0328 H         1 <0>         0.1290
     40 H16         1.1537    3.8314    0.8905 H         1 <0>         0.3983
@<TRIPOS>BOND
     1    1    2 1
     2    1   25 1
     3    1   26 1
     4    1   27 1
     5    2    3 1
     6    3    8 ar
     7    3    4 ar
     8    4    5 ar
     9    4   28 1
    10    5    6 ar
    11    5   29 1
    12    6    7 ar
    13    6   13 1
    14    7   12 ar
    15    7    8 ar
    16    8    9 ar
    17    9   10 ar
    18    9   30 1
    19   10   11 ar
    20   10   31 1
    21   11   12 ar
    22   11   32 1
    23   12   33 1
    24   13   14 2
    25   13   34 1
    26   14   15 1
    27   15   16 am
    28   15   35 1
    29   16   17 2
    30   16   18 1
    31   18   23 ar
    32   18   19 ar
    33   19   20 ar
    34   19   36 1
    35   20   21 ar
    36   20   37 1
    37   21   22 ar
    38   21   24 1
    39   22   23 ar
    40   22   38 1
    41   23   39 1
    42   24   40 1
@<TRIPOS>MOLECULE
ZINC13860557
   53    54     0     0     0
SMALL
USER_CHARGES
2-[3-ethyl-5-(1-hydroxyethyl)-2,6-diisopropyl-4-pyridyl]-5-fluoro-phenol
@<TRIPOS>ATOM
      1 C1         -2.0654    5.5074    0.2182 C.3       1 <0>        -0.1472
      2 C2         -1.6334    4.6950    1.4406 C.3       1 <0>        -0.0827
      3 C3         -1.0372    3.3867    0.9891 C.ar      1 <0>        -0.1069
      4 C4          0.3467    3.2520    0.8382 C.ar      1 <0>         0.0152
      5 C5          0.8479    2.0165    0.4172 C.ar      1 <0>        -0.1558
      6 C6         -0.0349    0.9859    0.1687 C.ar      1 <0>         0.1474
      7 N1         -1.3346    1.1564    0.3186 N.ar      1 <0>        -0.4619
      8 C7         -1.8480    2.3043    0.7189 C.ar      1 <0>         0.1462
      9 C8         -3.3409    2.4359    0.8774 C.3       1 <0>        -0.0494
     10 C9         -4.0309    2.0110   -0.4204 C.3       1 <0>        -0.1389
     11 C10        -3.8131    1.5391    2.0234 C.3       1 <0>        -0.1408
     12 C11         0.4919   -0.3508   -0.2861 C.3       1 <0>        -0.0497
     13 C12         0.3220   -1.3751    0.8376 C.3       1 <0>        -0.1415
     14 C13        -0.2866   -0.8129   -1.5195 C.3       1 <0>        -0.1388
     15 C14         2.3303    1.8138    0.2371 C.3       1 <0>         0.1447
     16 H1          2.5504    0.7466    0.2096 H         1 <0>         0.1155
     17 C15         2.7777    2.4607   -1.0752 C.3       1 <0>        -0.1958
     18 O1          3.0294    2.4164    1.3280 O.3       1 <0>        -0.5595
     19 C16         1.2572    4.3878    1.1176 C.ar      1 <0>        -0.0957
     20 C17         1.7341    5.1757    0.0715 C.ar      1 <0>        -0.0658
     21 C18         2.5812    6.2317    0.3355 C.ar      1 <0>        -0.1608
     22 C19         2.9611    6.5126    1.6391 C.ar      1 <0>         0.1272
     23 C20         2.4933    5.7358    2.6846 C.ar      1 <0>        -0.1832
     24 C21         1.6366    4.6766    2.4325 C.ar      1 <0>         0.1634
     25 O2          1.1719    3.9171    3.4580 O.3       1 <0>        -0.4838
     26 F1          3.7915    7.5484    1.8896 F         1 <0>        -0.1300
     27 H2         -2.4966    6.4537    0.5448 H         1 <0>         0.0615
     28 H3         -1.1987    5.7019   -0.4136 H         1 <0>         0.0536
     29 H4         -2.8085    4.9455   -0.3475 H         1 <0>         0.0579
     30 H5         -2.5001    4.5005    2.0723 H         1 <0>         0.0786
     31 H6         -0.8903    5.2569    2.0063 H         1 <0>         0.0750
     32 H7         -3.5926    3.4728    1.1000 H         1 <0>         0.0886
     33 H8         -3.7792    0.9741   -0.6430 H         1 <0>         0.0666
     34 H9         -5.1107    2.1062   -0.3057 H         1 <0>         0.0586
     35 H10        -3.6945    2.6499   -1.2369 H         1 <0>         0.0503
     36 H11        -3.3215    1.8418    2.9480 H         1 <0>         0.0523
     37 H12        -4.8929    1.6343    2.1381 H         1 <0>         0.0607
     38 H13        -3.5614    0.5022    1.8008 H         1 <0>         0.0638
     39 H14         1.5487   -0.2586   -0.5369 H         1 <0>         0.0849
     40 H15        -0.7348   -1.4673    1.0884 H         1 <0>         0.0640
     41 H16         0.7030   -2.3419    0.5087 H         1 <0>         0.0621
     42 H17         0.8766   -1.0459    1.7163 H         1 <0>         0.0536
     43 H18        -1.3433   -0.9051   -1.2687 H         1 <0>         0.0685
     44 H19        -0.1655   -0.0832   -2.3201 H         1 <0>         0.0506
     45 H20         0.0945   -1.7797   -1.8485 H         1 <0>         0.0587
     46 H21         2.5576    3.5279   -1.0477 H         1 <0>         0.0681
     47 H22         3.8499    2.3141   -1.2055 H         1 <0>         0.0726
     48 H23         2.2444    2.0011   -1.9073 H         1 <0>         0.0718
     49 H24         3.0604    3.3822    1.2898 H         1 <0>         0.3681
     50 H25         1.4403    4.9598   -0.9450 H         1 <0>         0.1426
     51 H26         2.9501    6.8415   -0.4759 H         1 <0>         0.1456
     52 H27         2.7921    5.9587    3.6983 H         1 <0>         0.1492
     53 H28         1.7333    3.1595    3.6722 H         1 <0>         0.4009
@<TRIPOS>BOND
     1    1    2 1
     2    1   27 1
     3    1   28 1
     4    1   29 1
     5    2    3 1
     6    2   30 1
     7    2   31 1
     8    3    8 ar
     9    3    4 ar
    10    4    5 ar
    11    4   19 1
    12    5    6 ar
    13    5   15 1
    14    6    7 ar
    15    6   12 1
    16    7    8 ar
    17    8    9 1
    18    9   10 1
    19    9   11 1
    20    9   32 1
    21   10   33 1
    22   10   34 1
    23   10   35 1
    24   11   36 1
    25   11   37 1
    26   11   38 1
    27   12   13 1
    28   12   14 1
    29   12   39 1
    30   13   40 1
    31   13   41 1
    32   13   42 1
    33   14   43 1
    34   14   44 1
    35   14   45 1
    36   15   16 1
    37   15   17 1
    38   15   18 1
    39   17   46 1
    40   17   47 1
    41   17   48 1
    42   18   49 1
    43   19   24 ar
    44   19   20 ar
    45   20   21 ar
    46   20   50 1
    47   21   22 ar
    48   21   51 1
    49   22   23 ar
    50   22   26 1
    51   23   24 ar
    52   23   52 1
    53   24   25 1
    54   25   53 1
@<TRIPOS>MOLECULE
ZINC13860558
   53    54     0     0     0
SMALL
USER_CHARGES
2-[3-ethyl-5-(1-hydroxyethyl)-2,6-diisopropyl-4-pyridyl]-5-fluoro-phenol
@<TRIPOS>ATOM
      1 C1         -3.2249    2.7845    2.8648 C.3       1 <0>        -0.1517
      2 C2         -2.6692    1.4333    2.4106 C.3       1 <0>        -0.0810
      3 C3         -3.3070    1.0418    1.1026 C.ar      1 <0>        -0.1081
      4 C4         -2.6650    1.3143   -0.1096 C.ar      1 <0>         0.0155
      5 C5         -3.3026    0.9344   -1.2945 C.ar      1 <0>        -0.1563
      6 C6         -4.5257    0.3004   -1.2226 C.ar      1 <0>         0.1477
      7 N1         -5.0974    0.0619   -0.0576 N.ar      1 <0>        -0.4619
      8 C7         -4.5322    0.4090    1.0832 C.ar      1 <0>         0.1468
      9 C8         -5.2347    0.1093    2.3823 C.3       1 <0>        -0.0496
     10 C9         -6.6430    0.7065    2.3501 C.3       1 <0>        -0.1391
     11 C10        -5.3275   -1.4057    2.5744 C.3       1 <0>        -0.1405
     12 C11        -5.2210   -0.1200   -2.4918 C.3       1 <0>        -0.0505
     13 C12        -5.3319   -1.6454   -2.5313 C.3       1 <0>        -0.1401
     14 C13        -6.6215    0.4945   -2.5337 C.3       1 <0>        -0.1402
     15 C14        -2.6606    1.2082   -2.6302 C.3       1 <0>         0.1443
     16 H1         -3.4080    1.1161   -3.4182 H         1 <0>         0.1169
     17 C15        -1.5368    0.1987   -2.8725 C.3       1 <0>        -0.1929
     18 O1         -2.1217    2.5317   -2.6372 O.3       1 <0>        -0.5615
     19 C16        -1.3475    1.9930   -0.1378 C.ar      1 <0>        -0.0988
     20 C17        -0.1748    1.2421   -0.1953 C.ar      1 <0>        -0.0636
     21 C18         1.0489    1.8774   -0.2270 C.ar      1 <0>        -0.1612
     22 C19         1.1175    3.2620   -0.1958 C.ar      1 <0>         0.1276
     23 C20        -0.0410    4.0164   -0.1324 C.ar      1 <0>        -0.1836
     24 C21        -1.2761    3.3894   -0.1004 C.ar      1 <0>         0.1642
     25 O2         -2.4139    4.1283   -0.0383 O.3       1 <0>        -0.4824
     26 F1          2.3200    3.8770   -0.2268 F         1 <0>        -0.1299
     27 H2         -2.7636    3.0677    3.8108 H         1 <0>         0.0571
     28 H3         -3.0028    3.5404    2.1115 H         1 <0>         0.0709
     29 H4         -4.3044    2.7080    2.9954 H         1 <0>         0.0553
     30 H5         -2.8913    0.6774    3.1638 H         1 <0>         0.0762
     31 H6         -1.5897    1.5098    2.2800 H         1 <0>         0.0707
     32 H7         -4.6735    0.5466    3.2081 H         1 <0>         0.0889
     33 H8         -7.2042    0.2693    1.5242 H         1 <0>         0.0662
     34 H9         -7.1511    0.4898    3.2897 H         1 <0>         0.0587
     35 H10        -6.5769    1.7859    2.2133 H         1 <0>         0.0513
     36 H11        -4.3242   -1.8311    2.5974 H         1 <0>         0.0510
     37 H12        -5.8356   -1.6224    3.5140 H         1 <0>         0.0607
     38 H13        -5.8887   -1.8430    1.7485 H         1 <0>         0.0642
     39 H14        -4.6470    0.2250   -3.3518 H         1 <0>         0.0860
     40 H15        -5.9059   -1.9904   -1.6712 H         1 <0>         0.0655
     41 H16        -5.8348   -1.9495   -3.4493 H         1 <0>         0.0614
     42 H17        -4.3341   -2.0832   -2.5014 H         1 <0>         0.0513
     43 H18        -7.1955    0.1496   -1.6736 H         1 <0>         0.0671
     44 H19        -6.5425    1.5813   -2.5055 H         1 <0>         0.0521
     45 H20        -7.1244    0.1904   -3.4517 H         1 <0>         0.0597
     46 H21        -1.9479   -0.8108   -2.8671 H         1 <0>         0.0717
     47 H22        -1.0725    0.3968   -3.8385 H         1 <0>         0.0723
     48 H23        -0.7895    0.2908   -2.0844 H         1 <0>         0.0664
     49 H24        -1.3281    2.6361   -2.0946 H         1 <0>         0.3675
     50 H25        -0.2244    0.1635   -0.2194 H         1 <0>         0.1422
     51 H26         1.9568    1.2946   -0.2761 H         1 <0>         0.1456
     52 H27         0.0177    5.0945   -0.1083 H         1 <0>         0.1495
     53 H28        -2.7773    4.3642   -0.9028 H         1 <0>         0.4005
@<TRIPOS>BOND
     1    1    2 1
     2    1   27 1
     3    1   28 1
     4    1   29 1
     5    2    3 1
     6    2   30 1
     7    2   31 1
     8    3    8 ar
     9    3    4 ar
    10    4    5 ar
    11    4   19 1
    12    5    6 ar
    13    5   15 1
    14    6    7 ar
    15    6   12 1
    16    7    8 ar
    17    8    9 1
    18    9   10 1
    19    9   11 1
    20    9   32 1
    21   10   33 1
    22   10   34 1
    23   10   35 1
    24   11   36 1
    25   11   37 1
    26   11   38 1
    27   12   13 1
    28   12   14 1
    29   12   39 1
    30   13   40 1
    31   13   41 1
    32   13   42 1
    33   14   43 1
    34   14   44 1
    35   14   45 1
    36   15   16 1
    37   15   17 1
    38   15   18 1
    39   17   46 1
    40   17   47 1
    41   17   48 1
    42   18   49 1
    43   19   24 ar
    44   19   20 ar
    45   20   21 ar
    46   20   50 1
    47   21   22 ar
    48   21   51 1
    49   22   23 ar
    50   22   26 1
    51   23   24 ar
    52   23   52 1
    53   24   25 1
    54   25   53 1
@<TRIPOS>MOLECULE
ZINC27075479
   59    60     0     0     0
SMALL
USER_CHARGES

@<TRIPOS>ATOM
      1 C1          2.4017    3.2368   -2.8318 C.3       1 <0>        -0.1536
      2 C2          2.0961    1.8868   -2.1799 C.3       1 <0>        -0.1235
      3 C3          2.4154    0.7607   -3.1652 C.3       1 <0>        -0.1146
      4 C4          2.1098   -0.5893   -2.5132 C.3       1 <0>        -0.0771
      5 C5          2.4242   -1.6985   -3.4837 C.ar      1 <0>        -0.1213
      6 C6          1.4172   -2.2485   -4.2834 C.ar      1 <0>         0.0170
      7 C7          1.7627   -3.2754   -5.1670 C.ar      1 <0>        -0.1428
      8 C8          3.0733   -3.7035   -5.2158 C.ar      1 <0>         0.1485
      9 N1          3.9933   -3.1574   -4.4437 N.ar      1 <0>        -0.4622
     10 C9          3.7103   -2.1824   -3.6006 C.ar      1 <0>         0.1457
     11 C10         4.8060   -1.5944   -2.7493 C.3       1 <0>        -0.0483
     12 C11         5.4694   -2.7054   -1.9329 C.3       1 <0>        -0.1403
     13 C12         5.8499   -0.9299   -3.6490 C.3       1 <0>        -0.1400
     14 C13         3.4591   -4.8099   -6.1634 C.3       1 <0>        -0.0505
     15 C14         4.3347   -4.2414   -7.2818 C.3       1 <0>        -0.1414
     16 C15         4.2380   -5.8847   -5.4023 C.3       1 <0>        -0.1384
     17 C16         0.7189   -3.9057   -6.0526 C.3       1 <0>         0.1427
     18 H1          1.2076   -4.4272   -6.8757 H         1 <0>         0.1116
     19 C17        -0.1079   -4.9018   -5.2370 C.3       1 <0>        -0.1921
     20 O1         -0.1392   -2.8895   -6.5751 O.3       1 <0>        -0.5574
     21 C18         0.0217   -1.7563   -4.1962 C.ar      1 <0>        -0.0933
     22 C19        -0.3863   -0.6694   -4.9672 C.ar      1 <0>        -0.0493
     23 C20        -1.6857   -0.2148   -4.8837 C.ar      1 <0>        -0.1597
     24 C21        -2.5889   -0.8354   -4.0341 C.ar      1 <0>         0.1262
     25 C22        -2.1935   -1.9154   -3.2644 C.ar      1 <0>        -0.1830
     26 C23        -0.8924   -2.3847   -3.3442 C.ar      1 <0>         0.1487
     27 O2         -0.5042   -3.4477   -2.5933 O.3       1 <0>        -0.4826
     28 F1         -3.8598   -0.3837   -3.9571 F         1 <0>        -0.1303
     29 H2          3.4567    3.2790   -3.1025 H         1 <0>         0.0543
     30 H3          1.7918    3.3540   -3.7276 H         1 <0>         0.0534
     31 H4          2.1743    4.0390   -2.1299 H         1 <0>         0.0547
     32 H5          2.7060    1.7696   -1.2841 H         1 <0>         0.0622
     33 H6          1.0411    1.8445   -1.9092 H         1 <0>         0.0607
     34 H7          1.8055    0.8779   -4.0610 H         1 <0>         0.0625
     35 H8          3.4704    0.8029   -3.4359 H         1 <0>         0.0667
     36 H9          2.7196   -0.7065   -1.6175 H         1 <0>         0.0795
     37 H10         1.0548   -0.6316   -2.2426 H         1 <0>         0.0692
     38 H11         4.3822   -0.8510   -2.0741 H         1 <0>         0.0880
     39 H12         5.8932   -3.4488   -2.6081 H         1 <0>         0.0662
     40 H13         6.2619   -2.2801   -1.3172 H         1 <0>         0.0587
     41 H14         4.7257   -3.1789   -1.2919 H         1 <0>         0.0504
     42 H15         5.3773   -0.1384   -4.2306 H         1 <0>         0.0516
     43 H16         6.6424   -0.5046   -3.0333 H         1 <0>         0.0599
     44 H17         6.2737   -1.6733   -4.3242 H         1 <0>         0.0645
     45 H18         2.5596   -5.2497   -6.5941 H         1 <0>         0.0854
     46 H19         5.2343   -3.8017   -6.8511 H         1 <0>         0.0640
     47 H20         4.6138   -5.0417   -7.9672 H         1 <0>         0.0620
     48 H21         3.7798   -3.4757   -7.8240 H         1 <0>         0.0534
     49 H22         4.5171   -6.6850   -6.0877 H         1 <0>         0.0588
     50 H23         5.1376   -5.4450   -4.9716 H         1 <0>         0.0679
     51 H24         3.6143   -6.2897   -4.6055 H         1 <0>         0.0510
     52 H25        -0.5965   -4.3803   -4.4140 H         1 <0>         0.0810
     53 H26        -0.8628   -5.3577   -5.8776 H         1 <0>         0.0663
     54 H27         0.5467   -5.6769   -4.8385 H         1 <0>         0.0683
     55 H28        -0.7794   -2.5483   -5.9357 H         1 <0>         0.3689
     56 H29         0.3147   -0.1832   -5.6295 H         1 <0>         0.1432
     57 H30        -2.0007    0.6276   -5.4816 H         1 <0>         0.1462
     58 H31        -2.9008   -2.3954   -2.6042 H         1 <0>         0.1479
     59 H32        -0.1585   -3.2088   -1.7224 H         1 <0>         0.3944
@<TRIPOS>BOND
     1    1    2 1
     2    1   29 1
     3    1   30 1
     4    1   31 1
     5    2    3 1
     6    2   32 1
     7    2   33 1
     8    3    4 1
     9    3   34 1
    10    3   35 1
    11    4    5 1
    12    4   36 1
    13    4   37 1
    14    5   10 ar
    15    5    6 ar
    16    6    7 ar
    17    6   21 1
    18    7    8 ar
    19    7   17 1
    20    8    9 ar
    21    8   14 1
    22    9   10 ar
    23   10   11 1
    24   11   12 1
    25   11   13 1
    26   11   38 1
    27   12   39 1
    28   12   40 1
    29   12   41 1
    30   13   42 1
    31   13   43 1
    32   13   44 1
    33   14   15 1
    34   14   16 1
    35   14   45 1
    36   15   46 1
    37   15   47 1
    38   15   48 1
    39   16   49 1
    40   16   50 1
    41   16   51 1
    42   17   18 1
    43   17   19 1
    44   17   20 1
    45   19   52 1
    46   19   53 1
    47   19   54 1
    48   20   55 1
    49   21   26 ar
    50   21   22 ar
    51   22   23 ar
    52   22   56 1
    53   23   24 ar
    54   23   57 1
    55   24   25 ar
    56   24   28 1
    57   25   26 ar
    58   25   58 1
    59   26   27 1
    60   27   59 1
@<TRIPOS>MOLECULE
ZINC27075486
   59    60     0     0     0
SMALL
USER_CHARGES
2-[3-butyl-5-(1-hydroxyethyl)-2,6-diisopropyl-4-pyridyl]-5-fluoro-phenol
@<TRIPOS>ATOM
      1 C1          1.0131    2.0211    1.0715 C.3       1 <0>        -0.1542
      2 C2         -0.3837    1.3985    1.1179 C.3       1 <0>        -0.1242
      3 C3         -0.2747   -0.1143    0.9163 C.3       1 <0>        -0.1142
      4 C4         -1.6715   -0.7369    0.9627 C.3       1 <0>        -0.0761
      5 C5         -1.5642   -2.2269    0.7641 C.ar      1 <0>        -0.1209
      6 C6         -1.7218   -2.7865   -0.5078 C.ar      1 <0>         0.0414
      7 C7         -1.6070   -4.1739   -0.6376 C.ar      1 <0>        -0.1202
      8 C8         -1.3553   -4.9326    0.4867 C.ar      1 <0>         0.1449
      9 N1         -1.2187   -4.3651    1.6700 N.ar      1 <0>        -0.4670
     10 C9         -1.3147   -3.0594    1.8350 C.ar      1 <0>         0.1447
     11 C10        -1.1490   -2.4699    3.2120 C.3       1 <0>        -0.0492
     12 C11        -2.1558   -3.1142    4.1671 C.3       1 <0>        -0.1409
     13 C12         0.2719   -2.7361    3.7131 C.3       1 <0>        -0.1403
     14 C13        -1.2355   -6.4296    0.3619 C.3       1 <0>        -0.0501
     15 C14         0.0645   -6.8939    1.0218 C.3       1 <0>        -0.1397
     16 C15        -2.4256   -7.0961    1.0549 C.3       1 <0>        -0.1411
     17 C16        -1.7615   -4.8313   -1.9849 C.3       1 <0>         0.1576
     18 H1         -2.0014   -5.8983   -1.8665 H         1 <0>         0.0647
     19 C17        -0.4844   -4.6261   -2.8020 C.3       1 <0>        -0.1895
     20 O1         -2.8679   -4.2476   -2.6756 O.3       1 <0>        -0.5818
     21 C18        -1.9972   -1.9316   -1.6871 C.ar      1 <0>        -0.0740
     22 C19        -0.9490   -1.4972   -2.4964 C.ar      1 <0>        -0.0400
     23 C20        -1.2093   -0.7019   -3.5926 C.ar      1 <0>        -0.1988
     24 C21        -2.5115   -0.3322   -3.8932 C.ar      1 <0>         0.1424
     25 C22        -3.5592   -0.7581   -3.0955 C.ar      1 <0>        -0.2568
     26 C23        -3.3106   -1.5625   -1.9952 C.ar      1 <0>         0.2311
     27 O2         -4.3383   -1.9862   -1.2149 O.3       1 <0>        -0.4891
     28 F1         -2.7585    0.4471   -4.9688 F         1 <0>        -0.1383
     29 H2          0.9347    3.1087    1.2164 H         1 <0>         0.0545
     30 H3          1.4747    1.8136    0.0948 H         1 <0>         0.0534
     31 H4          1.6340    1.5886    1.8699 H         1 <0>         0.0542
     32 H5         -0.8453    1.6060    2.0946 H         1 <0>         0.0623
     33 H6         -1.0047    1.8310    0.3196 H         1 <0>         0.0610
     34 H7          0.1870   -0.3217   -0.0604 H         1 <0>         0.0616
     35 H8          0.3463   -0.5468    1.7146 H         1 <0>         0.0654
     36 H9         -2.1331   -0.5295    1.9394 H         1 <0>         0.0775
     37 H10        -2.2925   -0.3044    0.1644 H         1 <0>         0.0718
     38 H11        -1.3285   -1.3861    3.1548 H         1 <0>         0.0888
     39 H12        -2.0349   -2.6839    5.1722 H         1 <0>         0.0585
     40 H13        -1.9790   -4.1991    4.2090 H         1 <0>         0.0664
     41 H14        -3.1773   -2.9228    3.8068 H         1 <0>         0.0508
     42 H15         0.3928   -2.3058    4.7182 H         1 <0>         0.0598
     43 H16         0.9957   -2.2729    3.0264 H         1 <0>         0.0516
     44 H17         0.4487   -3.8210    3.7550 H         1 <0>         0.0648
     45 H18        -1.2283   -6.6942   -0.7058 H         1 <0>         0.0850
     46 H19         0.1520   -7.9866    0.9307 H         1 <0>         0.0582
     47 H20         0.0560   -6.6141    2.0856 H         1 <0>         0.0687
     48 H21         0.9201   -6.4147    0.5235 H         1 <0>         0.0505
     49 H22        -2.3381   -8.1888    0.9638 H         1 <0>         0.0607
     50 H23        -3.3602   -6.7623    0.5805 H         1 <0>         0.0523
     51 H24        -2.4341   -6.8164    2.1187 H         1 <0>         0.0648
     52 H25        -0.5972   -5.1060   -3.7854 H         1 <0>         0.0625
     53 H26         0.3673   -5.0755   -2.2703 H         1 <0>         0.0638
     54 H27        -0.3051   -3.5493   -2.9378 H         1 <0>         0.0726
     55 H28        -3.1366   -4.6013   -3.6820 H         1 <0>         0.4005
     56 H29         0.0664   -1.7835   -2.2654 H         1 <0>         0.1329
     57 H30        -0.3962   -0.3656   -4.2188 H         1 <0>         0.1351
     58 H31        -4.5717   -0.4674   -3.3338 H         1 <0>         0.1374
     59 H32        -5.3706   -1.6948   -1.4589 H         1 <0>         0.4325
@<TRIPOS>BOND
     1    1    2 1
     2    1   29 1
     3    1   30 1
     4    1   31 1
     5    2    3 1
     6    2   32 1
     7    2   33 1
     8    3    4 1
     9    3   34 1
    10    3   35 1
    11    4    5 1
    12    4   36 1
    13    4   37 1
    14    5   10 ar
    15    5    6 ar
    16    6    7 ar
    17    6   21 1
    18    7    8 ar
    19    7   17 1
    20    8    9 ar
    21    8   14 1
    22    9   10 ar
    23   10   11 1
    24   11   12 1
    25   11   13 1
    26   11   38 1
    27   12   39 1
    28   12   40 1
    29   12   41 1
    30   13   42 1
    31   13   43 1
    32   13   44 1
    33   14   15 1
    34   14   16 1
    35   14   45 1
    36   15   46 1
    37   15   47 1
    38   15   48 1
    39   16   49 1
    40   16   50 1
    41   16   51 1
    42   17   18 1
    43   17   19 1
    44   17   20 1
    45   19   52 1
    46   19   53 1
    47   19   54 1
    48   20   55 1
    49   21   26 ar
    50   21   22 ar
    51   22   23 ar
    52   22   56 1
    53   23   24 ar
    54   23   57 1
    55   24   25 ar
    56   24   28 1
    57   25   26 ar
    58   25   58 1
    59   26   27 1
    60   27   59 1
@<TRIPOS>MOLECULE
ZINC13437732
   49    50     0     0     0
SMALL
USER_CHARGES
methyl 4-(4-fluorophenyl)-5-(hydroxymethyl)-2,6-diisopropyl-pyridine-3-carboxylate
@<TRIPOS>ATOM
      1 C1         -0.4728    1.5248   -1.8195 C.3       1 <0>        -0.1386
      2 C2          0.0427    1.0397   -0.4631 C.3       1 <0>        -0.0506
      3 C3         -0.8935    1.5298    0.6433 C.3       1 <0>        -0.1439
      4 C4          1.4276    1.5854   -0.2276 C.ar      1 <0>         0.1880
      5 C5          2.4518    0.7178    0.0930 C.ar      1 <0>        -0.1366
      6 C6          3.7344    1.2277    0.3043 C.ar      1 <0>         0.0641
      7 C7          3.9212    2.6226    0.1899 C.ar      1 <0>        -0.1612
      8 C8          2.8240    3.4213   -0.1324 C.ar      1 <0>         0.1966
      9 N1          1.6372    2.8854   -0.3266 N.ar      1 <0>        -0.4662
     10 C9          2.9989    4.9127   -0.2599 C.3       1 <0>        -0.0491
     11 C10         2.6170    5.3518   -1.6749 C.3       1 <0>        -0.1403
     12 C11         2.0981    5.6204    0.7542 C.3       1 <0>        -0.1405
     13 C12         5.2502    3.2233    0.4073 C.2       1 <0>         0.5253
     14 O1          5.5794    3.5835    1.5200 O.2       1 <0>        -0.4880
     15 O2          6.0997    3.3727   -0.6280 O.3       1 <0>        -0.3476
     16 C13         7.3908    3.9715   -0.3403 C.3       1 <0>         0.0326
     17 C14         4.8643    0.3326    0.6436 C.ar      1 <0>        -0.0900
     18 C15         5.3085   -0.6144   -0.2794 C.ar      1 <0>        -0.0526
     19 C16         6.3636   -1.4431    0.0398 C.ar      1 <0>        -0.1550
     20 C17         6.9765   -1.3425    1.2788 C.ar      1 <0>         0.1136
     21 C18         6.5358   -0.4065    2.2011 C.ar      1 <0>        -0.1534
     22 C19         5.4842    0.4297    1.8895 C.ar      1 <0>        -0.0649
     23 F1          8.0067   -2.1597    1.5887 F         1 <0>        -0.1345
     24 C20         2.1906   -0.7620    0.2071 C.3       1 <0>         0.1207
     25 O3          2.2536   -1.3582   -1.0900 O.3       1 <0>        -0.5613
     26 H1          0.1942    1.1756   -2.6077 H         1 <0>         0.0553
     27 H2         -1.4745    1.1301   -1.9898 H         1 <0>         0.0611
     28 H3         -0.5054    2.6143   -1.8273 H         1 <0>         0.0671
     29 H4          0.0753   -0.0498   -0.4553 H         1 <0>         0.0922
     30 H5         -0.9261    2.6193    0.6355 H         1 <0>         0.0665
     31 H6         -1.8952    1.1351    0.4730 H         1 <0>         0.0650
     32 H7         -0.5263    1.1842    1.6097 H         1 <0>         0.0528
     33 H8          4.0392    5.1744   -0.0667 H         1 <0>         0.0768
     34 H9          2.7435    6.4305   -1.7672 H         1 <0>         0.0648
     35 H10         3.2588    4.8476   -2.3975 H         1 <0>         0.0561
     36 H11         1.5767    5.0901   -1.8682 H         1 <0>         0.0704
     37 H12         2.3702    5.3076    1.7623 H         1 <0>         0.0550
     38 H13         2.2246    6.6991    0.6620 H         1 <0>         0.0651
     39 H14         1.0578    5.3588    0.5610 H         1 <0>         0.0703
     40 H15         7.2446    4.9726    0.0654 H         1 <0>         0.0668
     41 H16         7.9216    3.3582    0.3879 H         1 <0>         0.0653
     42 H17         7.9753    4.0333   -1.2582 H         1 <0>         0.1062
     43 H18         4.8290   -0.6961   -1.2437 H         1 <0>         0.1438
     44 H19         6.7103   -2.1743   -0.6754 H         1 <0>         0.1428
     45 H20         7.0163   -0.3320    3.1654 H         1 <0>         0.1420
     46 H21         5.1410    1.1583    2.6091 H         1 <0>         0.1381
     47 H22         2.9434   -1.2151    0.8522 H         1 <0>         0.0601
     48 H23         1.2009   -0.9244    0.6340 H         1 <0>         0.0655
     49 H24         2.0948   -2.3121   -1.0926 H         1 <0>         0.3844
@<TRIPOS>BOND
     1    1    2 1
     2    1   26 1
     3    1   27 1
     4    1   28 1
     5    2    3 1
     6    2    4 1
     7    2   29 1
     8    3   30 1
     9    3   31 1
    10    3   32 1
    11    4    9 ar
    12    4    5 ar
    13    5    6 ar
    14    5   24 1
    15    6    7 ar
    16    6   17 1
    17    7    8 ar
    18    7   13 1
    19    8    9 ar
    20    8   10 1
    21   10   11 1
    22   10   12 1
    23   10   33 1
    24   11   34 1
    25   11   35 1
    26   11   36 1
    27   12   37 1
    28   12   38 1
    29   12   39 1
    30   13   14 2
    31   13   15 1
    32   15   16 1
    33   16   40 1
    34   16   41 1
    35   16   42 1
    36   17   22 ar
    37   17   18 ar
    38   18   19 ar
    39   18   43 1
    40   19   20 ar
    41   19   44 1
    42   20   21 ar
    43   20   23 1
    44   21   22 ar
    45   21   45 1
    46   22   46 1
    47   24   25 1
    48   24   47 1
    49   24   48 1
    50   25   49 1
@<TRIPOS>MOLECULE
ZINC00598626
   42    45     0     0     0
SMALL
USER_CHARGES

@<TRIPOS>ATOM
      1 C1         -0.0417    1.7893   -0.5853 C.3       1 <0>        -0.1469
      2 S1         -0.0337   -0.0217   -0.6900 S.3       1 <0>        -0.1088
      3 C2         -1.7286   -0.4668   -0.5054 C.ar      1 <0>        -0.0711
      4 C3         -2.6920    0.5230   -0.3352 C.ar      1 <0>        -0.1322
      5 C4         -4.0173    0.1780   -0.1907 C.ar      1 <0>        -0.0512
      6 C5         -4.3944   -1.1669   -0.2156 C.ar      1 <0>        -0.0283
      7 C6         -3.4251   -2.1583   -0.3871 C.ar      1 <0>        -0.0875
      8 C7         -2.1019   -1.8072   -0.5359 C.ar      1 <0>        -0.0959
      9 C8         -5.8150   -1.5401   -0.0604 C.2       1 <0>         0.2718
     10 N1         -6.3029   -2.8144   -0.0623 N.pl3     1 <0>        -0.5512
     11 H1         -5.7861   -3.6289   -0.1646 H         1 <0>         0.4246
     12 C9         -7.6676   -2.7271    0.1082 C.2       1 <0>         0.0281
     13 C10        -7.9630   -1.3777    0.2093 C.2       1 <0>         0.0812
     14 N2         -6.8103   -0.6977    0.1074 N.2       1 <0>        -0.4568
     15 C11        -9.3096   -0.7903    0.4019 C.ar      1 <0>        -0.0195
     16 C12       -10.1978   -1.3607    1.3132 C.ar      1 <0>        -0.0698
     17 C13       -11.4504   -0.8102    1.4890 C.ar      1 <0>        -0.1512
     18 C14       -11.8268    0.3073    0.7613 C.ar      1 <0>         0.1049
     19 C15       -10.9480    0.8774   -0.1457 C.ar      1 <0>        -0.1528
     20 C16        -9.6908    0.3381   -0.3236 C.ar      1 <0>        -0.0605
     21 F1        -13.0548    0.8426    0.9365 F         1 <0>        -0.1375
     22 C17        -8.6238   -3.8479    0.1700 C.ar      1 <0>         0.0251
     23 C18        -9.8070   -3.8283   -0.5817 C.ar      1 <0>        -0.1433
     24 C19       -10.6718   -4.8977   -0.4936 C.ar      1 <0>         0.1077
     25 N3        -10.3986   -5.9287    0.2843 N.ar      1 <0>        -0.4795
     26 C20        -9.2966   -5.9881    1.0087 C.ar      1 <0>         0.1065
     27 C21        -8.3727   -4.9660    0.9777 C.ar      1 <0>        -0.1658
     28 H2          0.9765    2.1638   -0.6901 H         1 <0>         0.1122
     29 H3         -0.6626    2.1966   -1.3833 H         1 <0>         0.0868
     30 H4         -0.4440    2.0956    0.3803 H         1 <0>         0.0868
     31 H5         -2.3999    1.5625   -0.3161 H         1 <0>         0.1318
     32 H6         -4.7645    0.9465   -0.0579 H         1 <0>         0.1427
     33 H7         -3.7137   -3.1989   -0.4063 H         1 <0>         0.1241
     34 H8         -1.3526   -2.5729   -0.6723 H         1 <0>         0.1354
     35 H9         -9.9056   -2.2322    1.8803 H         1 <0>         0.1288
     36 H10       -12.1390   -1.2512    2.1945 H         1 <0>         0.1384
     37 H11       -11.2460    1.7481   -0.7108 H         1 <0>         0.1395
     38 H12        -9.0046    0.7862   -1.0270 H         1 <0>         0.1374
     39 H13       -10.0374   -2.9879   -1.2198 H         1 <0>         0.1395
     40 H14       -11.5859   -4.8922   -1.0687 H         1 <0>         0.1619
     41 H15        -9.1147   -6.8516    1.6314 H         1 <0>         0.1604
     42 H16        -7.4713   -5.0234    1.5698 H         1 <0>         0.1341
@<TRIPOS>BOND
     1    1    2 1
     2    1   28 1
     3    1   29 1
     4    1   30 1
     5    2    3 1
     6    3    8 ar
     7    3    4 ar
     8    4    5 ar
     9    4   31 1
    10    5    6 ar
    11    5   32 1
    12    6    7 ar
    13    6    9 1
    14    7    8 ar
    15    7   33 1
    16    8   34 1
    17    9   14 2
    18    9   10 1
    19   10   11 1
    20   10   12 1
    21   12   13 2
    22   12   22 1
    23   13   14 1
    24   13   15 1
    25   15   20 ar
    26   15   16 ar
    27   16   17 ar
    28   16   35 1
    29   17   18 ar
    30   17   36 1
    31   18   19 ar
    32   18   21 1
    33   19   20 ar
    34   19   37 1
    35   20   38 1
    36   22   27 ar
    37   22   23 ar
    38   23   24 ar
    39   23   39 1
    40   24   25 ar
    41   24   40 1
    42   25   26 ar
    43   26   27 ar
    44   26   41 1
    45   27   42 1
@<TRIPOS>MOLECULE
ZINC08536493
   41    44     0     0     0
SMALL
USER_CHARGES

@<TRIPOS>ATOM
      1 C1         -0.0079    1.3561    0.4129 C.ar      1 <0>        -0.0129
      2 C2          1.1782    2.0448    0.5411 C.ar      1 <0>        -0.1931
      3 C3          2.3882    1.3592    0.5177 C.ar      1 <0>         0.2775
      4 C4          2.4048   -0.0233    0.3653 C.ar      1 <0>        -0.1922
      5 C5          1.2221   -0.7177    0.2370 C.ar      1 <0>        -0.0156
      6 C6          0.0054   -0.0321    0.2597 C.ar      1 <0>        -0.1720
      7 C7         -1.2648   -0.7738    0.1224 C.cat     1 <0>         0.4164
      8 N1         -2.5101   -0.2166    0.1241 N.pl3     1 <0>        -0.5153
      9 H1         -2.7192    0.7263    0.2146 H         1 <0>         0.4618
     10 C8         -3.4153   -1.2445   -0.0276 C.2       1 <0>         0.1113
     11 C9         -2.6717   -2.4095   -0.1174 C.2       1 <0>         0.1070
     12 N2         -1.3749   -2.0752   -0.0265 N.pl3     1 <0>        -0.4811
     13 C10        -3.2108   -3.7790   -0.2885 C.ar      1 <0>        -0.0834
     14 C11        -4.1843   -4.0319   -1.2545 C.ar      1 <0>        -0.0440
     15 C12        -4.6833   -5.3085   -1.4099 C.ar      1 <0>        -0.1472
     16 C13        -4.2187   -6.3388   -0.6082 C.ar      1 <0>         0.1406
     17 C14        -3.2515   -6.0925    0.3530 C.ar      1 <0>        -0.1480
     18 C15        -2.7422   -4.8203    0.5121 C.ar      1 <0>        -0.0613
     19 F1         -4.7106   -7.5874   -0.7639 F         1 <0>        -0.1219
     20 C16        -4.8842   -1.1274   -0.0828 C.ar      1 <0>        -0.0164
     21 C17        -5.7038   -1.9725    0.6784 C.ar      1 <0>        -0.1305
     22 C18        -7.0718   -1.8273    0.5961 C.ar      1 <0>         0.1162
     23 N3         -7.6108   -0.9098   -0.1850 N.ar      1 <0>        -0.4597
     24 C19        -6.8767   -0.0937   -0.9183 C.ar      1 <0>         0.1155
     25 C20        -5.5005   -0.1640   -0.8936 C.ar      1 <0>        -0.1494
     26 N4          3.5870    2.0593    0.6468 N.pl3     1 <0>        -0.8472
     27 H2         -0.9473    1.8886    0.4352 H         1 <0>         0.1311
     28 H3          1.1685    3.1183    0.6595 H         1 <0>         0.1440
     29 H4          3.3459   -0.5527    0.3471 H         1 <0>         0.1443
     30 H5          1.2357   -1.7911    0.1184 H         1 <0>         0.1312
     31 H6         -4.5473   -3.2294   -1.8796 H         1 <0>         0.1396
     32 H7         -5.4375   -5.5053   -2.1575 H         1 <0>         0.1517
     33 H8         -2.8927   -6.8986    0.9757 H         1 <0>         0.1517
     34 H9         -1.9849   -4.6303    1.2583 H         1 <0>         0.1388
     35 H10        -5.2699   -2.7259    1.3191 H         1 <0>         0.1452
     36 H11        -7.7119   -2.4735    1.1786 H         1 <0>         0.1709
     37 H12        -7.3612    0.6419   -1.5432 H         1 <0>         0.1703
     38 H13        -4.9062    0.5100   -1.4927 H         1 <0>         0.1417
     39 H14         3.5766    3.0234    0.7528 H         1 <0>         0.4117
     40 H15         4.4314    1.5822    0.6306 H         1 <0>         0.4117
     41 H16        -0.6328   -2.6987   -0.0629 H         1 <0>         0.4608
@<TRIPOS>BOND
     1    1    6 ar
     2    1    2 ar
     3    1   27 1
     4    2    3 ar
     5    2   28 1
     6    3    4 ar
     7    3   26 1
     8    4    5 ar
     9    4   29 1
    10    5    6 ar
    11    5   30 1
    12    6    7 1
    13    7   12 2
    14    7    8 1
    15    8    9 1
    16    8   10 1
    17   10   11 2
    18   10   20 1
    19   11   12 1
    20   11   13 1
    21   12   41 1
    22   13   18 ar
    23   13   14 ar
    24   14   15 ar
    25   14   31 1
    26   15   16 ar
    27   15   32 1
    28   16   17 ar
    29   16   19 1
    30   17   18 ar
    31   17   33 1
    32   18   34 1
    33   20   25 ar
    34   20   21 ar
    35   21   22 ar
    36   21   35 1
    37   22   23 ar
    38   22   36 1
    39   23   24 ar
    40   24   25 ar
    41   24   37 1
    42   25   38 1
    43   26   39 1
    44   26   40 1
@<TRIPOS>MOLECULE
ZINC08536493
   40    43     0     0     0
SMALL
USER_CHARGES

@<TRIPOS>ATOM
      1 C1         -0.0188    1.3841   -0.2168 C.ar      1 <0>        -0.0195
      2 C2          1.1596    2.0832   -0.3581 C.ar      1 <0>        -0.1985
      3 C3          2.3583    1.4001   -0.5350 C.ar      1 <0>         0.2332
      4 C4          2.3713    0.0096   -0.5694 C.ar      1 <0>        -0.1972
      5 C5          1.1963   -0.6953   -0.4282 C.ar      1 <0>        -0.0543
      6 C6         -0.0091   -0.0122   -0.2509 C.ar      1 <0>        -0.0892
      7 C7         -1.2710   -0.7651   -0.0991 C.2       1 <0>         0.2885
      8 N1         -1.3872   -2.1245   -0.1099 N.pl3     1 <0>        -0.5554
      9 H1         -0.6653   -2.7634   -0.2175 H         1 <0>         0.4228
     10 C8         -2.7223   -2.4194    0.0611 C.2       1 <0>         0.0177
     11 C9         -3.3794   -1.2053    0.1714 C.2       1 <0>         0.0813
     12 N2         -2.4602   -0.2322    0.0735 N.2       1 <0>        -0.4660
     13 C10        -4.8357   -1.0148    0.3678 C.ar      1 <0>        -0.0172
     14 C11        -5.5297   -1.8147    1.2750 C.ar      1 <0>        -0.0706
     15 C12        -6.8855   -1.6336    1.4544 C.ar      1 <0>        -0.1514
     16 C13        -7.5576   -0.6587    0.7348 C.ar      1 <0>         0.1033
     17 C14        -6.8724    0.1386   -0.1679 C.ar      1 <0>        -0.1529
     18 C15        -5.5155   -0.0311   -0.3499 C.ar      1 <0>        -0.0611
     19 F1         -8.8855   -0.4854    0.9134 F         1 <0>        -0.1382
     20 C16        -3.3308   -3.7616    0.1153 C.ar      1 <0>         0.0289
     21 C17        -4.4745   -4.0654   -0.6364 C.ar      1 <0>        -0.1448
     22 C18        -5.0093   -5.3330   -0.5555 C.ar      1 <0>         0.1071
     23 N3         -4.4600   -6.2530    0.2156 N.ar      1 <0>        -0.4812
     24 C19        -3.3834   -6.0097    0.9397 C.ar      1 <0>         0.1059
     25 C20        -2.7786   -4.7716    0.9156 C.ar      1 <0>        -0.1673
     26 N4          3.5492    2.1106   -0.6787 N.pl3     1 <0>        -0.8715
     27 H2         -0.9486    1.9149   -0.0753 H         1 <0>         0.1381
     28 H3          1.1528    3.1628   -0.3318 H         1 <0>         0.1283
     29 H4          3.3035   -0.5180   -0.7073 H         1 <0>         0.1262
     30 H5          1.2069   -1.7749   -0.4554 H         1 <0>         0.1168
     31 H6         -5.0067   -2.5751    1.8361 H         1 <0>         0.1285
     32 H7         -7.4239   -2.2529    2.1565 H         1 <0>         0.1377
     33 H8         -7.4007    0.8969   -0.7267 H         1 <0>         0.1390
     34 H9         -4.9814    0.5941   -1.0501 H         1 <0>         0.1375
     35 H10        -4.9296   -3.3176   -1.2689 H         1 <0>         0.1390
     36 H11        -5.8902   -5.5770   -1.1307 H         1 <0>         0.1612
     37 H12        -2.9685   -6.7931    1.5567 H         1 <0>         0.1595
     38 H13        -1.8953   -4.5811    1.5070 H         1 <0>         0.1335
     39 H14         3.5413    3.0803   -0.6552 H         1 <0>         0.4016
     40 H15         4.3857    1.6352   -0.8021 H         1 <0>         0.4006
@<TRIPOS>BOND
     1    1    6 ar
     2    1    2 ar
     3    1   27 1
     4    2    3 ar
     5    2   28 1
     6    3    4 ar
     7    3   26 1
     8    4    5 ar
     9    4   29 1
    10    5    6 ar
    11    5   30 1
    12    6    7 1
    13    7   12 2
    14    7    8 1
    15    8    9 1
    16    8   10 1
    17   10   11 2
    18   10   20 1
    19   11   12 1
    20   11   13 1
    21   13   18 ar
    22   13   14 ar
    23   14   15 ar
    24   14   31 1
    25   15   16 ar
    26   15   32 1
    27   16   17 ar
    28   16   19 1
    29   17   18 ar
    30   17   33 1
    31   18   34 1
    32   20   25 ar
    33   20   21 ar
    34   21   22 ar
    35   21   35 1
    36   22   23 ar
    37   22   36 1
    38   23   24 ar
    39   24   25 ar
    40   24   37 1
    41   25   38 1
    42   26   39 1
    43   26   40 1
@<TRIPOS>MOLECULE
ZINC08536493
   40    43     0     0     0
SMALL
USER_CHARGES

@<TRIPOS>ATOM
      1 C1         -0.0258    1.3856   -0.2606 C.ar      1 <0>        -0.0205
      2 C2          1.1509    2.0854   -0.4136 C.ar      1 <0>        -0.1981
      3 C3          2.3512    1.4027   -0.5801 C.ar      1 <0>         0.2326
      4 C4          2.3676    0.0120   -0.5928 C.ar      1 <0>        -0.1970
      5 C5          1.1943   -0.6936   -0.4409 C.ar      1 <0>        -0.0548
      6 C6         -0.0126   -0.0110   -0.2730 C.ar      1 <0>        -0.0878
      7 C7         -1.2727   -0.7646   -0.1087 C.2       1 <0>         0.2841
      8 N1         -1.3857   -2.1260   -0.0982 N.pl3     1 <0>        -0.5569
      9 H1         -0.6621   -2.7646   -0.1961 H         1 <0>         0.4231
     10 C8         -2.7174   -2.4218    0.0775 C.2       1 <0>         0.0396
     11 C9         -3.3790   -1.2086    0.1693 C.2       1 <0>         0.0607
     12 N2         -2.4622   -0.2327    0.0562 N.2       1 <0>        -0.4616
     13 C10        -4.8347   -1.0205    0.3630 C.ar      1 <0>         0.0429
     14 C11        -5.5481   -1.8143    1.2683 C.ar      1 <0>        -0.1558
     15 C12        -6.9028   -1.6054    1.4174 C.ar      1 <0>         0.1009
     16 N3         -7.5254   -0.6731    0.7211 N.ar      1 <0>        -0.4849
     17 C13        -6.8906    0.0969   -0.1426 C.ar      1 <0>         0.0997
     18 C14        -5.5343   -0.0402   -0.3498 C.ar      1 <0>        -0.1475
     19 C15        -3.3218   -3.7663    0.1528 C.ar      1 <0>        -0.0335
     20 C16        -4.4618   -4.0656   -0.5971 C.ar      1 <0>        -0.0589
     21 C17        -5.0218   -5.3234   -0.5230 C.ar      1 <0>        -0.1470
     22 C18        -4.4557   -6.2900    0.2934 C.ar      1 <0>         0.1090
     23 C19        -3.3249   -5.9987    1.0401 C.ar      1 <0>        -0.1492
     24 C20        -2.7527   -4.7462    0.9698 C.ar      1 <0>        -0.0791
     25 F1         -5.0087   -7.5207    0.3620 F         1 <0>        -0.1349
     26 N4          3.5405    2.1140   -0.7351 N.pl3     1 <0>        -0.8718
     27 H2         -0.9569    1.9162   -0.1269 H         1 <0>         0.1377
     28 H3          1.1413    3.1653   -0.4045 H         1 <0>         0.1282
     29 H4          3.3012   -0.5153   -0.7223 H         1 <0>         0.1261
     30 H5          1.2076   -1.7735   -0.4512 H         1 <0>         0.1170
     31 H6         -5.0451   -2.5794    1.8411 H         1 <0>         0.1325
     32 H7         -7.4621   -2.2132    2.1133 H         1 <0>         0.1567
     33 H8         -7.4400    0.8476   -0.6912 H         1 <0>         0.1579
     34 H9         -5.0203    0.5964   -1.0548 H         1 <0>         0.1382
     35 H10        -4.9039   -3.3131   -1.2333 H         1 <0>         0.1352
     36 H11        -5.9033   -5.5559   -1.1020 H         1 <0>         0.1421
     37 H12        -2.8887   -6.7556    1.6751 H         1 <0>         0.1409
     38 H13        -1.8688   -4.5218    1.5484 H         1 <0>         0.1324
     39 H14         3.5301    3.0839   -0.7267 H         1 <0>         0.4015
     40 H15         4.3781    1.6389   -0.8514 H         1 <0>         0.4005
@<TRIPOS>BOND
     1    1    6 ar
     2    1    2 ar
     3    1   27 1
     4    2    3 ar
     5    2   28 1
     6    3    4 ar
     7    3   26 1
     8    4    5 ar
     9    4   29 1
    10    5    6 ar
    11    5   30 1
    12    6    7 1
    13    7   12 2
    14    7    8 1
    15    8    9 1
    16    8   10 1
    17   10   11 2
    18   10   19 1
    19   11   12 1
    20   11   13 1
    21   13   18 ar
    22   13   14 ar
    23   14   15 ar
    24   14   31 1
    25   15   16 ar
    26   15   32 1
    27   16   17 ar
    28   17   18 ar
    29   17   33 1
    30   18   34 1
    31   19   24 ar
    32   19   20 ar
    33   20   21 ar
    34   20   35 1
    35   21   22 ar
    36   21   36 1
    37   22   23 ar
    38   22   25 1
    39   23   24 ar
    40   23   37 1
    41   24   38 1
    42   26   39 1
    43   26   40 1
@<TRIPOS>MOLECULE
ZINC02745030
   54    55     0     0     0
SMALL
USER_CHARGES

@<TRIPOS>ATOM
      1 C1         -1.0683    0.7191   -0.8026 C.3       1 <0>        -0.1547
      2 C2         -0.4294   -0.6636   -0.6588 C.3       1 <0>        -0.1109
      3 C3          0.9681   -0.6470   -1.2815 C.3       1 <0>        -0.1005
      4 C4          1.8694    0.2999   -0.4866 C.3       1 <0>        -0.1163
      5 C5          1.9026   -0.1380    0.9790 C.3       1 <0>        -0.1617
      6 C6          1.5485   -2.0374   -1.2502 C.2       1 <0>         0.5151
      7 O1          1.1689   -2.8345   -0.4186 O.2       1 <0>        -0.4898
      8 N1          2.4895   -2.3952   -2.1463 N.am      1 <0>        -0.6227
      9 C7          3.0931   -3.6420   -2.0586 C.2       1 <0>         0.0563
     10 C8          4.0738   -4.1729   -2.8801 C.2       1 <0>        -0.1417
     11 C9          4.5439   -5.5121   -2.5740 C.2       1 <0>        -0.0554
     12 C10         3.9465   -6.0755   -1.5009 C.2       1 <0>        -0.2219
     13 S1          2.8071   -4.8500   -0.9277 S.3       1 <0>         0.3093
     14 C11         4.2119   -7.4361   -0.9349 C.3       1 <0>        -0.0337
     15 C12         5.5316   -7.9547   -1.5251 C.3       1 <0>        -0.0701
     16 H1          6.3666   -7.4040   -1.0919 H         1 <0>         0.0769
     17 C13         5.5119   -7.7466   -3.0421 C.3       1 <0>        -0.1173
     18 C14         5.6115   -6.2540   -3.3646 C.3       1 <0>        -0.0605
     19 C15         5.6828   -9.4446   -1.2116 C.3       1 <0>        -0.0574
     20 C16         4.5129  -10.2162   -1.8256 C.3       1 <0>        -0.1507
     21 C17         6.9980   -9.9588   -1.8005 C.3       1 <0>        -0.1473
     22 C18         5.6886   -9.6487    0.3047 C.3       1 <0>        -0.1164
     23 C19         5.8397  -11.1386    0.6181 C.3       1 <0>        -0.1576
     24 C20         4.6018   -3.4319   -3.9858 C.1       1 <0>         0.2699
     25 N2          5.0207   -2.8440   -4.8630 N.1       1 <0>        -0.4283
     26 H2         -0.4518    1.4590   -0.2921 H         1 <0>         0.0597
     27 H3         -1.1443    0.9762   -1.8591 H         1 <0>         0.0554
     28 H4         -2.0638    0.7073   -0.3590 H         1 <0>         0.0613
     29 H5         -0.3534   -0.9207    0.3977 H         1 <0>         0.0826
     30 H6         -1.0459   -1.4036   -1.1693 H         1 <0>         0.0679
     31 H7          0.9017   -0.3042   -2.3140 H         1 <0>         0.0976
     32 H8          2.8786    0.2711   -0.8973 H         1 <0>         0.0665
     33 H9          1.4786    1.3152   -0.5537 H         1 <0>         0.0852
     34 H10         0.9143   -0.0072    1.4198 H         1 <0>         0.0646
     35 H11         2.1908   -1.1875    1.0382 H         1 <0>         0.0591
     36 H12         2.6263    0.4688    1.5232 H         1 <0>         0.0591
     37 H13         2.7449   -1.7813   -2.8526 H         1 <0>         0.4204
     38 H14         4.2944   -7.3731    0.1502 H         1 <0>         0.0829
     39 H15         3.3991   -8.1108   -1.2036 H         1 <0>         0.0890
     40 H16         6.3558   -8.2710   -3.4904 H         1 <0>         0.0758
     41 H17         4.5824   -8.1439   -3.4499 H         1 <0>         0.0702
     42 H18         5.4504   -6.0988   -4.4314 H         1 <0>         0.0740
     43 H19         6.5976   -5.8842   -3.0837 H         1 <0>         0.0795
     44 H20         4.5088  -10.0707   -2.9059 H         1 <0>         0.0574
     45 H21         4.6206  -11.2776   -1.6023 H         1 <0>         0.0582
     46 H22         3.5759   -9.8498   -1.4061 H         1 <0>         0.0585
     47 H23         7.8314   -9.4091   -1.3630 H         1 <0>         0.0545
     48 H24         7.1056  -11.0202   -1.5772 H         1 <0>         0.0590
     49 H25         6.9938   -9.8134   -2.8807 H         1 <0>         0.0580
     50 H26         6.5220   -9.0990    0.7421 H         1 <0>         0.0617
     51 H27         4.7516   -9.2824    0.7242 H         1 <0>         0.0645
     52 H28         5.0063  -11.6883    0.1807 H         1 <0>         0.0570
     53 H29         6.7767  -11.5049    0.1986 H         1 <0>         0.0563
     54 H30         5.8438  -11.2840    1.6984 H         1 <0>         0.0514
@<TRIPOS>BOND
     1    1    2 1
     2    1   26 1
     3    1   27 1
     4    1   28 1
     5    2    3 1
     6    2   29 1
     7    2   30 1
     8    3    4 1
     9    3    6 1
    10    3   31 1
    11    4    5 1
    12    4   32 1
    13    4   33 1
    14    5   34 1
    15    5   35 1
    16    5   36 1
    17    6    7 2
    18    6    8 am
    19    8    9 1
    20    8   37 1
    21    9   13 1
    22    9   10 2
    23   10   11 1
    24   10   24 1
    25   11   18 1
    26   11   12 2
    27   12   13 1
    28   12   14 1
    29   14   15 1
    30   14   38 1
    31   14   39 1
    32   15   16 1
    33   15   17 1
    34   15   19 1
    35   17   18 1
    36   17   40 1
    37   17   41 1
    38   18   42 1
    39   18   43 1
    40   19   20 1
    41   19   21 1
    42   19   22 1
    43   20   44 1
    44   20   45 1
    45   20   46 1
    46   21   47 1
    47   21   48 1
    48   21   49 1
    49   22   23 1
    50   22   50 1
    51   22   51 1
    52   23   52 1
    53   23   53 1
    54   23   54 1
    55   24   25 3
@<TRIPOS>MOLECULE
ZINC02745031
   54    55     0     0     0
SMALL
USER_CHARGES

@<TRIPOS>ATOM
      1 C1         -1.0683    0.7191   -0.8026 C.3       1 <0>        -0.1547
      2 C2         -0.4294   -0.6636   -0.6588 C.3       1 <0>        -0.1109
      3 C3          0.9681   -0.6470   -1.2815 C.3       1 <0>        -0.1005
      4 C4          1.8694    0.2999   -0.4866 C.3       1 <0>        -0.1163
      5 C5          1.9026   -0.1380    0.9790 C.3       1 <0>        -0.1617
      6 C6          1.5485   -2.0374   -1.2502 C.2       1 <0>         0.5151
      7 O1          1.1689   -2.8345   -0.4186 O.2       1 <0>        -0.4898
      8 N1          2.4895   -2.3952   -2.1463 N.am      1 <0>        -0.6227
      9 C7          3.0931   -3.6420   -2.0586 C.2       1 <0>         0.0563
     10 C8          4.0738   -4.1729   -2.8801 C.2       1 <0>        -0.1417
     11 C9          4.5442   -5.5119   -2.5737 C.2       1 <0>        -0.0554
     12 C10         3.9466   -6.0754   -1.5008 C.2       1 <0>        -0.2219
     13 S1          2.8071   -4.8500   -0.9277 S.3       1 <0>         0.3094
     14 C11         4.2097   -7.4374   -0.9368 C.3       1 <0>        -0.0337
     15 C12         4.9902   -8.2491   -1.9811 C.3       1 <0>        -0.0701
     16 H1          4.3298   -8.5115   -2.8076 H         1 <0>         0.0770
     17 C13         6.1519   -7.3986   -2.5030 C.3       1 <0>        -0.1172
     18 C14         5.6136   -6.2528   -3.3629 C.3       1 <0>        -0.0606
     19 C15         5.5353   -9.5248   -1.3358 C.3       1 <0>        -0.0573
     20 C16         6.3124  -10.3316   -2.3780 C.3       1 <0>        -0.1473
     21 C17         6.4666   -9.1538   -0.1800 C.3       1 <0>        -0.1506
     22 C18         4.3721  -10.3646   -0.8042 C.3       1 <0>        -0.1165
     23 C19         4.9172  -11.6402   -0.1589 C.3       1 <0>        -0.1576
     24 C20         4.6016   -3.4320   -3.9860 C.1       1 <0>         0.2699
     25 N2          5.0203   -2.8442   -4.8634 N.1       1 <0>        -0.4283
     26 H2         -0.4518    1.4590   -0.2921 H         1 <0>         0.0597
     27 H3         -1.1443    0.9762   -1.8591 H         1 <0>         0.0554
     28 H4         -2.0638    0.7073   -0.3590 H         1 <0>         0.0613
     29 H5         -0.3534   -0.9207    0.3977 H         1 <0>         0.0826
     30 H6         -1.0459   -1.4036   -1.1693 H         1 <0>         0.0679
     31 H7          0.9017   -0.3042   -2.3140 H         1 <0>         0.0976
     32 H8          2.8786    0.2711   -0.8973 H         1 <0>         0.0664
     33 H9          1.4786    1.3152   -0.5537 H         1 <0>         0.0852
     34 H10         0.9143   -0.0072    1.4198 H         1 <0>         0.0646
     35 H11         2.1908   -1.1875    1.0382 H         1 <0>         0.0591
     36 H12         2.6263    0.4688    1.5232 H         1 <0>         0.0591
     37 H13         2.7449   -1.7813   -2.8526 H         1 <0>         0.4204
     38 H14         4.7992   -7.3495   -0.0241 H         1 <0>         0.0887
     39 H15         3.2641   -7.9333   -0.7176 H         1 <0>         0.0830
     40 H16         6.7076   -6.9883   -1.6599 H         1 <0>         0.0701
     41 H17         6.8151   -8.0212   -3.1035 H         1 <0>         0.0758
     42 H18         5.1796   -6.6553   -4.2782 H         1 <0>         0.0794
     43 H19         6.4253   -5.5687   -3.6103 H         1 <0>         0.0741
     44 H20         7.1410   -9.7333   -2.7567 H         1 <0>         0.0580
     45 H21         6.7007  -11.2404   -1.9183 H         1 <0>         0.0590
     46 H22         5.6489  -10.5959   -3.2015 H         1 <0>         0.0545
     47 H23         5.9130   -8.5790    0.5625 H         1 <0>         0.0585
     48 H24         6.8549  -10.0626    0.2798 H         1 <0>         0.0582
     49 H25         7.2953   -8.5555   -0.5587 H         1 <0>         0.0574
     50 H26         3.8186   -9.7898   -0.0617 H         1 <0>         0.0645
     51 H27         3.7087  -10.6288   -1.6277 H         1 <0>         0.0618
     52 H28         5.4708  -12.2150   -0.9014 H         1 <0>         0.0563
     53 H29         5.5807  -11.3760    0.6645 H         1 <0>         0.0570
     54 H30         4.0885  -12.2385    0.2198 H         1 <0>         0.0514
@<TRIPOS>BOND
     1    1    2 1
     2    1   26 1
     3    1   27 1
     4    1   28 1
     5    2    3 1
     6    2   29 1
     7    2   30 1
     8    3    4 1
     9    3    6 1
    10    3   31 1
    11    4    5 1
    12    4   32 1
    13    4   33 1
    14    5   34 1
    15    5   35 1
    16    5   36 1
    17    6    7 2
    18    6    8 am
    19    8    9 1
    20    8   37 1
    21    9   13 1
    22    9   10 2
    23   10   11 1
    24   10   24 1
    25   11   18 1
    26   11   12 2
    27   12   13 1
    28   12   14 1
    29   14   15 1
    30   14   38 1
    31   14   39 1
    32   15   16 1
    33   15   17 1
    34   15   19 1
    35   17   18 1
    36   17   40 1
    37   17   41 1
    38   18   42 1
    39   18   43 1
    40   19   20 1
    41   19   21 1
    42   19   22 1
    43   20   44 1
    44   20   45 1
    45   20   46 1
    46   21   47 1
    47   21   48 1
    48   21   49 1
    49   22   23 1
    50   22   50 1
    51   22   51 1
    52   23   52 1
    53   23   53 1
    54   23   54 1
    55   24   25 3
@<TRIPOS>MOLECULE
ZINC13860561
   56    57     0     0     0
SMALL
USER_CHARGES

@<TRIPOS>ATOM
      1 C1          0.0977    1.4576   -0.2980 C.3       1 <0>        -0.1529
      2 C2          0.0819   -0.0697   -0.2094 C.3       1 <0>        -0.1184
      3 C3          0.8112   -0.5145    1.0600 C.3       1 <0>        -0.0766
      4 C4          0.7956   -2.0189    1.1472 C.ar      1 <0>        -0.1273
      5 C5         -0.1862   -2.6762    1.8955 C.ar      1 <0>         0.0172
      6 C6         -0.1550   -4.0732    1.9434 C.ar      1 <0>        -0.1622
      7 C7          0.8352   -4.7443    1.2562 C.ar      1 <0>         0.1646
      8 N1          1.7432   -4.0856    0.5617 N.ar      1 <0>        -0.4676
      9 C8          1.7460   -2.7681    0.4859 C.ar      1 <0>         0.1501
     10 C9          2.8059   -2.0726   -0.3290 C.3       1 <0>        -0.0495
     11 C10         4.1768   -2.3117    0.3069 C.3       1 <0>        -0.1406
     12 C11         2.8006   -2.6292   -1.7541 C.3       1 <0>        -0.1394
     13 C12         0.8807   -6.2500    1.2998 C.3       1 <0>        -0.0586
     14 C13         0.9284   -6.8003   -0.1270 C.3       1 <0>        -0.1415
     15 C14         2.1283   -6.7006    2.0622 C.3       1 <0>        -0.1320
     16 C15        -1.1874   -4.8345    2.7343 C.3       1 <0>         0.1528
     17 H1         -1.7254   -4.1466    3.3866 H         1 <0>         0.0638
     18 C16        -2.1735   -5.5038    1.7748 C.3       1 <0>        -0.1489
     19 O1         -0.5402   -5.8332    3.5254 O.3       1 <0>        -0.5522
     20 C17        -1.2311   -1.9127    2.6184 C.ar      1 <0>        -0.0839
     21 C18        -2.4357   -1.6062    1.9880 C.ar      1 <0>        -0.0574
     22 C19        -3.4056   -0.8960    2.6642 C.ar      1 <0>        -0.1570
     23 C20        -3.1865   -0.4849    3.9702 C.ar      1 <0>         0.1234
     24 C21        -1.9937   -0.7843    4.6048 C.ar      1 <0>        -0.1802
     25 C22        -1.0142   -1.5021    3.9377 C.ar      1 <0>         0.1522
     26 O2          0.1548   -1.8012    4.5609 O.3       1 <0>        -0.4862
     27 F1         -4.1411    0.2112    4.6255 F         1 <0>        -0.1320
     28 H2          1.1290    1.8091   -0.3294 H         1 <0>         0.0557
     29 H3         -0.4218    1.7745   -1.2024 H         1 <0>         0.0570
     30 H4         -0.4028    1.8774    0.5745 H         1 <0>         0.0539
     31 H5         -0.9494   -0.4212   -0.1781 H         1 <0>         0.0616
     32 H6          0.5825   -0.4895   -1.0820 H         1 <0>         0.0657
     33 H7          1.8425   -0.1630    1.0286 H         1 <0>         0.0791
     34 H8          0.3106   -0.0947    1.9325 H         1 <0>         0.0684
     35 H9          2.5996   -1.0026   -0.3561 H         1 <0>         0.0879
     36 H10         4.3831   -3.3817    0.3340 H         1 <0>         0.0646
     37 H11         4.9434   -1.8087   -0.2825 H         1 <0>         0.0604
     38 H12         4.1805   -1.9151    1.3222 H         1 <0>         0.0510
     39 H13         3.0069   -3.6992   -1.7270 H         1 <0>         0.0668
     40 H14         1.8240   -2.4589   -2.2071 H         1 <0>         0.0505
     41 H15         3.5673   -2.1262   -2.3435 H         1 <0>         0.0586
     42 H16        -0.0092   -6.6259    1.8046 H         1 <0>         0.1150
     43 H17         0.9613   -7.8893   -0.0955 H         1 <0>         0.0574
     44 H18         0.0396   -6.4792   -0.6702 H         1 <0>         0.0478
     45 H19         1.8183   -6.4244   -0.6318 H         1 <0>         0.0635
     46 H20         2.0942   -6.3086    3.0787 H         1 <0>         0.0507
     47 H21         2.1612   -7.7897    2.0938 H         1 <0>         0.0582
     48 H22         3.0182   -6.3247    1.5574 H         1 <0>         0.0565
     49 H23        -1.6355   -6.1917    1.1225 H         1 <0>         0.0702
     50 H24        -2.9202   -6.0544    2.3468 H         1 <0>         0.0694
     51 H25        -2.6671   -4.7420    1.1714 H         1 <0>         0.0683
     52 H26         0.1003   -5.4800    4.1578 H         1 <0>         0.3792
     53 H27        -2.6094   -1.9242    0.9706 H         1 <0>         0.1383
     54 H28        -4.3386   -0.6591    2.1747 H         1 <0>         0.1435
     55 H29        -1.8278   -0.4618    5.6221 H         1 <0>         0.1460
     56 H30         0.8430   -1.1314    4.4485 H         1 <0>         0.3953
@<TRIPOS>BOND
     1    1    2 1
     2    1   28 1
     3    1   29 1
     4    1   30 1
     5    2    3 1
     6    2   31 1
     7    2   32 1
     8    3    4 1
     9    3   33 1
    10    3   34 1
    11    4    9 ar
    12    4    5 ar
    13    5    6 ar
    14    5   20 1
    15    6    7 ar
    16    6   16 1
    17    7    8 ar
    18    7   13 1
    19    8    9 ar
    20    9   10 1
    21   10   11 1
    22   10   12 1
    23   10   35 1
    24   11   36 1
    25   11   37 1
    26   11   38 1
    27   12   39 1
    28   12   40 1
    29   12   41 1
    30   13   14 1
    31   13   15 1
    32   13   42 1
    33   14   43 1
    34   14   44 1
    35   14   45 1
    36   15   46 1
    37   15   47 1
    38   15   48 1
    39   16   17 1
    40   16   18 1
    41   16   19 1
    42   18   49 1
    43   18   50 1
    44   18   51 1
    45   19   52 1
    46   20   25 ar
    47   20   21 ar
    48   21   22 ar
    49   21   53 1
    50   22   23 ar
    51   22   54 1
    52   23   24 ar
    53   23   27 1
    54   24   25 ar
    55   24   55 1
    56   25   26 1
    57   26   56 1
@<TRIPOS>MOLECULE
ZINC13860562
   56    57     0     0     0
SMALL
USER_CHARGES
5-fluoro-2-[3-(1-hydroxyethyl)-2,6-diisopropyl-5-propyl-4-pyridyl]phenol
@<TRIPOS>ATOM
      1 C1         -1.5780    3.2178    3.6630 C.3       1 <0>        -0.1515
      2 C2         -2.3664    2.7301    2.4458 C.3       1 <0>        -0.1200
      3 C3         -2.2059    1.2148    2.3079 C.3       1 <0>        -0.0771
      4 C4         -2.9823    0.7344    1.1090 C.ar      1 <0>        -0.1152
      5 C5         -2.3475    0.5622   -0.1252 C.ar      1 <0>         0.0170
      6 C6         -3.1151    0.1190   -1.2064 C.ar      1 <0>        -0.1740
      7 C7         -4.4563   -0.1398   -1.0133 C.ar      1 <0>         0.1634
      8 N1         -5.0167    0.0358    0.1682 N.ar      1 <0>        -0.4675
      9 C8         -4.3294    0.4577    1.2127 C.ar      1 <0>         0.1510
     10 C9         -5.0257    0.6390    2.5368 C.3       1 <0>        -0.0503
     11 C10        -6.2523    1.5343    2.3496 C.3       1 <0>        -0.1389
     12 C11        -5.4667   -0.7247    3.0721 C.3       1 <0>        -0.1406
     13 C12        -5.2939   -0.6239   -2.1688 C.3       1 <0>        -0.0575
     14 C13        -5.7257   -2.0697   -1.9152 C.3       1 <0>        -0.1322
     15 C14        -6.5338    0.2620   -2.3064 C.3       1 <0>        -0.1418
     16 C15        -2.4855   -0.0784   -2.5613 C.3       1 <0>         0.1506
     17 H1         -1.4001   -0.0569   -2.4642 H         1 <0>         0.0640
     18 C16        -2.9358    1.0419   -3.5011 C.3       1 <0>        -0.1477
     19 O1         -2.8910   -1.3402   -3.0957 O.3       1 <0>        -0.5508
     20 C17        -0.9016    0.8476   -0.2841 C.ar      1 <0>        -0.0850
     21 C18         0.0381   -0.1586   -0.0675 C.ar      1 <0>        -0.0608
     22 C19         1.3821    0.1094   -0.2220 C.ar      1 <0>        -0.1581
     23 C20         1.8032    1.3793   -0.5863 C.ar      1 <0>         0.1235
     24 C21         0.8783    2.3869   -0.7976 C.ar      1 <0>        -0.1798
     25 C22        -0.4746    2.1294   -0.6459 C.ar      1 <0>         0.1565
     26 O2         -1.3834    3.1171   -0.8529 O.3       1 <0>        -0.4831
     27 F1          3.1215    1.6341   -0.7352 F         1 <0>        -0.1320
     28 H2         -0.5234    2.9744    3.5342 H         1 <0>         0.0525
     29 H3         -1.6924    4.2974    3.7612 H         1 <0>         0.0557
     30 H4         -1.9567    2.7292    4.5607 H         1 <0>         0.0537
     31 H5         -1.9877    3.2188    1.5480 H         1 <0>         0.0729
     32 H6         -3.4210    2.9736    2.5746 H         1 <0>         0.0621
     33 H7         -2.5845    0.7262    3.2057 H         1 <0>         0.0763
     34 H8         -1.1512    0.9714    2.1791 H         1 <0>         0.0714
     35 H9         -4.3415    1.1040    3.2465 H         1 <0>         0.0887
     36 H10        -6.9365    1.0694    1.6399 H         1 <0>         0.0666
     37 H11        -6.7559    1.6655    3.3073 H         1 <0>         0.0583
     38 H12        -5.9381    2.5059    1.9682 H         1 <0>         0.0509
     39 H13        -4.5930   -1.3626    3.2055 H         1 <0>         0.0510
     40 H14        -5.9704   -0.5936    4.0298 H         1 <0>         0.0609
     41 H15        -6.1510   -1.1897    2.3624 H         1 <0>         0.0640
     42 H16        -4.7089   -0.5752   -3.0872 H         1 <0>         0.1138
     43 H17        -6.3108   -2.1183   -0.9968 H         1 <0>         0.0567
     44 H18        -6.3315   -2.4198   -2.7509 H         1 <0>         0.0583
     45 H19        -4.8424   -2.7008   -1.8172 H         1 <0>         0.0501
     46 H20        -7.1188    0.2133   -1.3880 H         1 <0>         0.0639
     47 H21        -6.2262    1.2919   -2.4870 H         1 <0>         0.0479
     48 H22        -7.1396   -0.0882   -3.1421 H         1 <0>         0.0571
     49 H23        -2.6265    2.0043   -3.0934 H         1 <0>         0.0627
     50 H24        -2.4804    0.8991   -4.4810 H         1 <0>         0.0712
     51 H25        -4.0213    1.0203   -3.5982 H         1 <0>         0.0733
     52 H26        -2.6383   -2.0978   -2.5505 H         1 <0>         0.3783
     53 H27        -0.2863   -1.1488    0.2167 H         1 <0>         0.1385
     54 H28         2.1091   -0.6723   -0.0582 H         1 <0>         0.1434
     55 H29         1.2112    3.3743   -1.0812 H         1 <0>         0.1461
     56 H30        -1.6990    3.1764   -1.7651 H         1 <0>         0.3915
@<TRIPOS>BOND
     1    1    2 1
     2    1   28 1
     3    1   29 1
     4    1   30 1
     5    2    3 1
     6    2   31 1
     7    2   32 1
     8    3    4 1
     9    3   33 1
    10    3   34 1
    11    4    9 ar
    12    4    5 ar
    13    5    6 ar
    14    5   20 1
    15    6    7 ar
    16    6   16 1
    17    7    8 ar
    18    7   13 1
    19    8    9 ar
    20    9   10 1
    21   10   11 1
    22   10   12 1
    23   10   35 1
    24   11   36 1
    25   11   37 1
    26   11   38 1
    27   12   39 1
    28   12   40 1
    29   12   41 1
    30   13   14 1
    31   13   15 1
    32   13   42 1
    33   14   43 1
    34   14   44 1
    35   14   45 1
    36   15   46 1
    37   15   47 1
    38   15   48 1
    39   16   17 1
    40   16   18 1
    41   16   19 1
    42   18   49 1
    43   18   50 1
    44   18   51 1
    45   19   52 1
    46   20   25 ar
    47   20   21 ar
    48   21   22 ar
    49   21   53 1
    50   22   23 ar
    51   22   54 1
    52   23   24 ar
    53   23   27 1
    54   24   25 ar
    55   24   55 1
    56   25   26 1
    57   26   56 1
@<TRIPOS>MOLECULE
ZINC13860563
   62    63     0     0     0
SMALL
USER_CHARGES
5-fluoro-2-[3-(1-hydroxyethyl)-2,6-diisopropyl-5-pentyl-4-pyridyl]phenol
@<TRIPOS>ATOM
      1 C1          1.9919    8.1878   -5.5305 C.3       1 <0>        -0.1540
      2 C2          1.4279    6.8146   -5.1602 C.3       1 <0>        -0.1248
      3 C3          1.6302    6.5668   -3.6640 C.3       1 <0>        -0.1189
      4 C4          1.0662    5.1936   -3.2937 C.3       1 <0>        -0.1142
      5 C5          1.2685    4.9457   -1.7975 C.3       1 <0>        -0.0767
      6 C6          0.7130    3.5932   -1.4327 C.ar      1 <0>        -0.1215
      7 C7         -0.5870    3.4715   -0.9315 C.ar      1 <0>         0.0177
      8 C8         -1.0554    2.1930   -0.6141 C.ar      1 <0>        -0.1428
      9 C9         -0.2203    1.1101   -0.7965 C.ar      1 <0>         0.1488
     10 N1          1.0001    1.2686   -1.2722 N.ar      1 <0>        -0.4623
     11 C10         1.4788    2.4569   -1.5887 C.ar      1 <0>         0.1460
     12 C11         2.8814    2.5739   -2.1274 C.3       1 <0>        -0.0483
     13 C12         3.8661    1.9773   -1.1197 C.3       1 <0>        -0.1403
     14 C13         2.9841    1.8147   -3.4517 C.3       1 <0>        -0.1399
     15 C14        -0.7108   -0.2730   -0.4537 C.3       1 <0>        -0.0504
     16 C15        -0.9292   -1.0703   -1.7411 C.3       1 <0>        -0.1414
     17 C16         0.3297   -0.9823    0.4152 C.3       1 <0>        -0.1383
     18 C17        -2.4497    2.0012   -0.0756 C.3       1 <0>         0.1423
     19 H1         -2.7303    0.9512   -0.1591 H         1 <0>         0.1116
     20 C18        -2.4916    2.4249    1.3940 C.3       1 <0>        -0.1918
     21 O1         -3.3650    2.8001   -0.8279 O.3       1 <0>        -0.5569
     22 C19        -1.4465    4.6650   -0.7465 C.ar      1 <0>        -0.0933
     23 C20        -2.2412    5.1242   -1.7954 C.ar      1 <0>        -0.0511
     24 C21        -3.0395    6.2349   -1.6193 C.ar      1 <0>        -0.1598
     25 C22        -3.0543    6.8978   -0.4015 C.ar      1 <0>         0.1263
     26 C23        -2.2688    6.4497    0.6461 C.ar      1 <0>        -0.1832
     27 C24        -1.4675    5.3313    0.4831 C.ar      1 <0>         0.1506
     28 O2         -0.7004    4.8870    1.5119 O.3       1 <0>        -0.4828
     29 F1         -3.8383    7.9857   -0.2372 F         1 <0>        -0.1304
     30 H2          1.8478    8.3644   -6.5964 H         1 <0>         0.0539
     31 H3          1.4733    8.9592   -4.9610 H         1 <0>         0.0532
     32 H4          3.0563    8.2182   -5.2978 H         1 <0>         0.0537
     33 H5          1.9465    6.0433   -5.7296 H         1 <0>         0.0611
     34 H6          0.3635    6.7842   -5.3928 H         1 <0>         0.0603
     35 H7          1.1116    7.3381   -3.0945 H         1 <0>         0.0610
     36 H8          2.6946    6.5972   -3.4313 H         1 <0>         0.0625
     37 H9          1.5848    4.4222   -3.8631 H         1 <0>         0.0664
     38 H10         0.0018    5.1632   -3.5263 H         1 <0>         0.0625
     39 H11         0.7499    5.7171   -1.2281 H         1 <0>         0.0689
     40 H12         2.3329    4.9761   -1.5648 H         1 <0>         0.0794
     41 H13         3.1211    3.6245   -2.2913 H         1 <0>         0.0880
     42 H14         3.6263    0.9268   -0.9558 H         1 <0>         0.0660
     43 H15         4.8806    2.0620   -1.5093 H         1 <0>         0.0589
     44 H16         3.7929    2.5183   -0.1762 H         1 <0>         0.0504
     45 H17         3.9986    1.8993   -3.8413 H         1 <0>         0.0597
     46 H18         2.7443    0.7641   -3.2877 H         1 <0>         0.0647
     47 H19         2.2826    2.2397   -4.1695 H         1 <0>         0.0515
     48 H20        -1.6513   -0.1999    0.0924 H         1 <0>         0.0854
     49 H21         0.0113   -1.1433   -2.2872 H         1 <0>         0.0637
     50 H22        -1.2840   -2.0707   -1.4932 H         1 <0>         0.0621
     51 H23        -1.6705   -0.5650   -2.3602 H         1 <0>         0.0537
     52 H24         0.4853   -0.4142    1.3324 H         1 <0>         0.0510
     53 H25        -0.0250   -1.9827    0.6632 H         1 <0>         0.0585
     54 H26         1.2702   -1.0553   -0.1309 H         1 <0>         0.0681
     55 H27        -2.2111    3.4749    1.4775 H         1 <0>         0.0799
     56 H28        -3.5001    2.2862    1.7835 H         1 <0>         0.0663
     57 H29        -1.7935    1.8155    1.9679 H         1 <0>         0.0687
     58 H30        -3.3476    3.7394   -0.5987 H         1 <0>         0.3687
     59 H31        -2.2321    4.6103   -2.7452 H         1 <0>         0.1435
     60 H32        -3.6549    6.5898   -2.4328 H         1 <0>         0.1461
     61 H33        -2.2839    6.9695    1.5926 H         1 <0>         0.1476
     62 H34         0.1840    5.2770    1.5401 H         1 <0>         0.3944
@<TRIPOS>BOND
     1    1    2 1
     2    1   30 1
     3    1   31 1
     4    1   32 1
     5    2    3 1
     6    2   33 1
     7    2   34 1
     8    3    4 1
     9    3   35 1
    10    3   36 1
    11    4    5 1
    12    4   37 1
    13    4   38 1
    14    5    6 1
    15    5   39 1
    16    5   40 1
    17    6   11 ar
    18    6    7 ar
    19    7    8 ar
    20    7   22 1
    21    8    9 ar
    22    8   18 1
    23    9   10 ar
    24    9   15 1
    25   10   11 ar
    26   11   12 1
    27   12   13 1
    28   12   14 1
    29   12   41 1
    30   13   42 1
    31   13   43 1
    32   13   44 1
    33   14   45 1
    34   14   46 1
    35   14   47 1
    36   15   16 1
    37   15   17 1
    38   15   48 1
    39   16   49 1
    40   16   50 1
    41   16   51 1
    42   17   52 1
    43   17   53 1
    44   17   54 1
    45   18   19 1
    46   18   20 1
    47   18   21 1
    48   20   55 1
    49   20   56 1
    50   20   57 1
    51   21   58 1
    52   22   27 ar
    53   22   23 ar
    54   23   24 ar
    55   23   59 1
    56   24   25 ar
    57   24   60 1
    58   25   26 ar
    59   25   29 1
    60   26   27 ar
    61   26   61 1
    62   27   28 1
    63   28   62 1
@<TRIPOS>MOLECULE
ZINC13860564
   62    63     0     0     0
SMALL
USER_CHARGES
5-fluoro-2-[3-(1-hydroxyethyl)-2,6-diisopropyl-5-pentyl-4-pyridyl]phenol
@<TRIPOS>ATOM
      1 C1          0.9041    3.5339    1.2731 C.3       1 <0>        -0.1542
      2 C2          1.0131    2.0211    1.0715 C.3       1 <0>        -0.1245
      3 C3         -0.3837    1.3985    1.1179 C.3       1 <0>        -0.1193
      4 C4         -0.2747   -0.1143    0.9163 C.3       1 <0>        -0.1133
      5 C5         -1.6715   -0.7369    0.9627 C.3       1 <0>        -0.0772
      6 C6         -1.5642   -2.2269    0.7641 C.ar      1 <0>        -0.1214
      7 C7         -1.7218   -2.7865   -0.5078 C.ar      1 <0>         0.0185
      8 C8         -1.6070   -4.1739   -0.6376 C.ar      1 <0>        -0.1461
      9 C9         -1.3553   -4.9326    0.4867 C.ar      1 <0>         0.1497
     10 N1         -1.2187   -4.3651    1.6700 N.ar      1 <0>        -0.4624
     11 C10        -1.3147   -3.0594    1.8350 C.ar      1 <0>         0.1469
     12 C11        -1.1490   -2.4699    3.2120 C.3       1 <0>        -0.0483
     13 C12        -2.1558   -3.1142    4.1671 C.3       1 <0>        -0.1406
     14 C13         0.2719   -2.7361    3.7131 C.3       1 <0>        -0.1397
     15 C14        -1.2355   -6.4296    0.3619 C.3       1 <0>        -0.0506
     16 C15         0.0645   -6.8939    1.0218 C.3       1 <0>        -0.1385
     17 C16        -2.4256   -7.0961    1.0549 C.3       1 <0>        -0.1414
     18 C17        -1.7615   -4.8313   -1.9849 C.3       1 <0>         0.1416
     19 H1         -1.9392   -5.8983   -1.8503 H         1 <0>         0.1136
     20 C18        -0.4844   -4.6261   -2.8020 C.3       1 <0>        -0.1933
     21 O1         -2.8679   -4.2476   -2.6756 O.3       1 <0>        -0.5493
     22 C19        -1.9972   -1.9316   -1.6871 C.ar      1 <0>        -0.0954
     23 C20        -0.9490   -1.4972   -2.4964 C.ar      1 <0>        -0.0631
     24 C21        -1.2093   -0.7019   -3.5926 C.ar      1 <0>        -0.1604
     25 C22        -2.5115   -0.3322   -3.8932 C.ar      1 <0>         0.1273
     26 C23        -3.5592   -0.7581   -3.0955 C.ar      1 <0>        -0.1835
     27 C24        -3.3106   -1.5625   -1.9952 C.ar      1 <0>         0.1616
     28 O2         -4.3383   -1.9862   -1.2149 O.3       1 <0>        -0.4757
     29 F1         -2.7585    0.4471   -4.9688 F         1 <0>        -0.1301
     30 H2          0.2888    3.9624    0.4819 H         1 <0>         0.0532
     31 H3          0.4466    3.7394    2.2408 H         1 <0>         0.0539
     32 H4          1.8992    3.9775    1.2401 H         1 <0>         0.0539
     33 H5          1.6283    1.5926    1.8627 H         1 <0>         0.0611
     34 H6          1.4706    1.8156    0.1038 H         1 <0>         0.0599
     35 H7         -0.9990    1.8270    0.3267 H         1 <0>         0.0610
     36 H8         -0.8412    1.6041    2.0856 H         1 <0>         0.0629
     37 H9          0.1828   -0.3198   -0.0514 H         1 <0>         0.0617
     38 H10         0.3405   -0.5428    1.7075 H         1 <0>         0.0665
     39 H11        -2.1291   -0.5313    1.9304 H         1 <0>         0.0804
     40 H12        -2.2868   -0.3083    0.1715 H         1 <0>         0.0678
     41 H13        -1.3242   -1.3949    3.1705 H         1 <0>         0.0880
     42 H14        -1.9806   -4.1892    4.2085 H         1 <0>         0.0663
     43 H15        -2.0359   -2.6879    5.1630 H         1 <0>         0.0588
     44 H16        -3.1680   -2.9245    3.8100 H         1 <0>         0.0509
     45 H17         0.9891   -2.2771    3.0327 H         1 <0>         0.0513
     46 H18         0.3917   -2.3098    4.7091 H         1 <0>         0.0600
     47 H19         0.4470   -3.8112    3.7546 H         1 <0>         0.0645
     48 H20        -1.2269   -6.7068   -0.6922 H         1 <0>         0.0856
     49 H21         0.0560   -6.6168    2.0760 H         1 <0>         0.0679
     50 H22         0.1512   -7.9767    0.9315 H         1 <0>         0.0591
     51 H23         0.9124   -6.4191    0.5281 H         1 <0>         0.0505
     52 H24        -3.3517   -6.7653    0.5848 H         1 <0>         0.0542
     53 H25        -2.3389   -8.1789    0.9646 H         1 <0>         0.0617
     54 H26        -2.4341   -6.8189    2.1090 H         1 <0>         0.0641
     55 H27         0.3596   -5.0713   -2.2751 H         1 <0>         0.0705
     56 H28        -0.5962   -5.1016   -3.7764 H         1 <0>         0.0721
     57 H29        -0.3067   -3.5591   -2.9366 H         1 <0>         0.0652
     58 H30        -2.6950   -3.3590   -3.0154 H         1 <0>         0.3670
     59 H31         0.0664   -1.7835   -2.2654 H         1 <0>         0.1415
     60 H32        -0.3962   -0.3656   -4.2188 H         1 <0>         0.1452
     61 H33        -4.5717   -0.4674   -3.3338 H         1 <0>         0.1492
     62 H34        -4.5512   -1.3877   -0.4858 H         1 <0>         0.3933
@<TRIPOS>BOND
     1    1    2 1
     2    1   30 1
     3    1   31 1
     4    1   32 1
     5    2    3 1
     6    2   33 1
     7    2   34 1
     8    3    4 1
     9    3   35 1
    10    3   36 1
    11    4    5 1
    12    4   37 1
    13    4   38 1
    14    5    6 1
    15    5   39 1
    16    5   40 1
    17    6   11 ar
    18    6    7 ar
    19    7    8 ar
    20    7   22 1
    21    8    9 ar
    22    8   18 1
    23    9   10 ar
    24    9   15 1
    25   10   11 ar
    26   11   12 1
    27   12   13 1
    28   12   14 1
    29   12   41 1
    30   13   42 1
    31   13   43 1
    32   13   44 1
    33   14   45 1
    34   14   46 1
    35   14   47 1
    36   15   16 1
    37   15   17 1
    38   15   48 1
    39   16   49 1
    40   16   50 1
    41   16   51 1
    42   17   52 1
    43   17   53 1
    44   17   54 1
    45   18   19 1
    46   18   20 1
    47   18   21 1
    48   20   55 1
    49   20   56 1
    50   20   57 1
    51   21   58 1
    52   22   27 ar
    53   22   23 ar
    54   23   24 ar
    55   23   59 1
    56   24   25 ar
    57   24   60 1
    58   25   26 ar
    59   25   29 1
    60   26   27 ar
    61   26   61 1
    62   27   28 1
    63   28   62 1
@<TRIPOS>MOLECULE
ZINC37866152
   49    52     0     0     0
SMALL
USER_CHARGES

@<TRIPOS>ATOM
      1 C1         -4.7001   -7.1343    5.1971 C.3       1 <0>        -0.1506
      2 C2         -3.6887   -6.8316    4.0898 C.3       1 <0>        -0.1205
      3 C3         -4.2600   -5.7631    3.1554 C.3       1 <0>         0.0553
      4 O1         -3.3154   -5.4803    2.1212 O.3       1 <0>        -0.2974
      5 C4         -3.6701   -4.5462    1.2003 C.ar      1 <0>         0.1634
      6 C5         -4.8976   -3.9108    1.2922 C.ar      1 <0>        -0.2055
      7 C6         -5.2578   -2.9607    0.3552 C.ar      1 <0>        -0.0470
      8 C7         -4.3964   -2.6385   -0.6799 C.ar      1 <0>        -0.1285
      9 C8         -3.1698   -3.2641   -0.7836 C.ar      1 <0>        -0.0396
     10 C9         -2.7947   -4.2189    0.1598 C.ar      1 <0>        -0.0415
     11 C10        -1.4767   -4.8889    0.0573 C.2       1 <0>        -0.0853
     12 C11        -1.0602   -5.7658   -0.9644 C.2       1 <0>        -0.1468
     13 C12         0.2139   -6.1548   -0.6803 C.2       1 <0>         0.0640
     14 N1          0.6086   -5.5509    0.4847 N.pl3     1 <0>        -0.5374
     15 H1          1.4732   -5.6576    0.9113 H         1 <0>         0.4172
     16 C13        -0.4183   -4.7663    0.9460 C.2       1 <0>         0.0816
     17 C14        -0.4013   -3.9431    2.1688 C.ar      1 <0>         0.0320
     18 C15        -0.8610   -2.6185    2.1527 C.ar      1 <0>        -0.1474
     19 C16        -0.8271   -1.8859    3.3195 C.ar      1 <0>         0.1043
     20 N2         -0.3701   -2.4147    4.4394 N.ar      1 <0>        -0.4828
     21 C17         0.0721   -3.6570    4.4993 C.ar      1 <0>         0.1032
     22 C18         0.0697   -4.4643    3.3823 C.ar      1 <0>        -0.1634
     23 C19         1.0347   -7.0763   -1.4939 C.ar      1 <0>        -0.0093
     24 C20         0.5171   -7.6241   -2.6689 C.ar      1 <0>        -0.0900
     25 C21         1.2879   -8.4834   -3.4238 C.ar      1 <0>        -0.0998
     26 C22         2.5726   -8.8034   -3.0180 C.ar      1 <0>        -0.0378
     27 C23         3.0917   -8.2631   -1.8533 C.ar      1 <0>        -0.1003
     28 C24         2.3328   -7.3978   -1.0932 C.ar      1 <0>        -0.1116
     29 Cl1         3.5363   -9.8866   -3.9728 Cl        1 <0>        -0.0656
     30 Br1        -4.9017   -1.3378   -1.9561 Br        1 <0>        -0.0487
     31 H2         -4.2931   -7.8955    5.8628 H         1 <0>         0.0657
     32 H3         -4.9009   -6.2254    5.7643 H         1 <0>         0.0579
     33 H4         -5.6269   -7.4978    4.7533 H         1 <0>         0.0583
     34 H5         -2.7619   -6.4681    4.5336 H         1 <0>         0.0718
     35 H6         -3.4880   -7.7405    3.5226 H         1 <0>         0.0734
     36 H7         -5.1868   -6.1266    2.7116 H         1 <0>         0.0639
     37 H8         -4.4608   -4.8542    3.7226 H         1 <0>         0.0622
     38 H9         -5.5741   -4.1583    2.0969 H         1 <0>         0.1366
     39 H10        -6.2157   -2.4676    0.4305 H         1 <0>         0.1354
     40 H11        -2.5001   -3.0106   -1.5920 H         1 <0>         0.1406
     41 H12        -1.6456   -6.0739   -1.8181 H         1 <0>         0.1463
     42 H13        -1.2356   -2.1791    1.2400 H         1 <0>         0.1367
     43 H14        -1.1789   -0.8648    3.3175 H         1 <0>         0.1585
     44 H15         0.4373   -4.0476    5.4377 H         1 <0>         0.1570
     45 H16         0.4289   -5.4811    3.4398 H         1 <0>         0.1315
     46 H17        -0.4850   -7.3758   -2.9860 H         1 <0>         0.1395
     47 H18         0.8885   -8.9079   -4.3331 H         1 <0>         0.1394
     48 H19         4.0942   -8.5167   -1.5417 H         1 <0>         0.1366
     49 H20         2.7402   -6.9736   -0.1874 H         1 <0>         0.1247
@<TRIPOS>BOND
     1    1    2 1
     2    1   31 1
     3    1   32 1
     4    1   33 1
     5    2    3 1
     6    2   34 1
     7    2   35 1
     8    3    4 1
     9    3   36 1
    10    3   37 1
    11    4    5 1
    12    5   10 ar
    13    5    6 ar
    14    6    7 ar
    15    6   38 1
    16    7    8 ar
    17    7   39 1
    18    8    9 ar
    19    8   30 1
    20    9   10 ar
    21    9   40 1
    22   10   11 1
    23   11   16 2
    24   11   12 1
    25   12   13 2
    26   12   41 1
    27   13   14 1
    28   13   23 1
    29   14   15 1
    30   14   16 1
    31   16   17 1
    32   17   22 ar
    33   17   18 ar
    34   18   19 ar
    35   18   42 1
    36   19   20 ar
    37   19   43 1
    38   20   21 ar
    39   21   22 ar
    40   21   44 1
    41   22   45 1
    42   23   28 ar
    43   23   24 ar
    44   24   25 ar
    45   24   46 1
    46   25   26 ar
    47   25   47 1
    48   26   27 ar
    49   26   29 1
    50   27   28 ar
    51   27   48 1
    52   28   49 1
@<TRIPOS>MOLECULE
ZINC00671045
   57    58     0     0     0
SMALL
USER_CHARGES
6-(1,1-dimethylpropyl)-2-(2-ethylbutanoylamino)-4,5,6,7-tetrahydrobenzothiophene-3-carboxamide
@<TRIPOS>ATOM
      1 C1          0.3244   -5.8075    8.2550 C.3       1 <0>        -0.1600
      2 C2          1.7261   -5.5136    8.7931 C.3       1 <0>        -0.1203
      3 C3          2.7093   -5.4100    7.6254 C.3       1 <0>        -0.1018
      4 C4          2.7033   -6.7205    6.8359 C.3       1 <0>        -0.1094
      5 C5          3.2460   -7.8485    7.7157 C.3       1 <0>        -0.1545
      6 C6          2.2977   -4.2768    6.7212 C.2       1 <0>         0.5144
      7 O1          2.0262   -4.4959    5.5596 O.2       1 <0>        -0.4948
      8 N1          2.2312   -3.0200    7.2033 N.am      1 <0>        -0.6218
      9 C7          1.8524   -1.9774    6.3713 C.2       1 <0>         0.0734
     10 C8          1.7264   -0.6303    6.6798 C.2       1 <0>        -0.2306
     11 C9          1.3096    0.2663    5.6151 C.2       1 <0>        -0.0655
     12 C10         1.0876   -0.3235    4.4204 C.2       1 <0>        -0.2067
     13 S1          1.4226   -2.0402    4.6940 S.3       1 <0>         0.2270
     14 C11         0.6546    0.3426    3.1509 C.3       1 <0>        -0.0342
     15 C12         0.8586    1.8568    3.3052 C.3       1 <0>        -0.0684
     16 H1          1.9235    2.0884    3.2812 H         1 <0>         0.0757
     17 C13         0.2670    2.3001    4.6464 C.3       1 <0>        -0.1172
     18 C14         1.1259    1.7682    5.7950 C.3       1 <0>        -0.0602
     19 C15         0.1488    2.5888    2.1645 C.3       1 <0>        -0.0575
     20 C16         0.3391    4.0978    2.3304 C.3       1 <0>        -0.1468
     21 C17        -1.3443    2.2566    2.1964 C.3       1 <0>        -0.1508
     22 C18         0.7418    2.1441    0.8260 C.3       1 <0>        -0.1161
     23 C19         0.0320    2.8761   -0.3146 C.3       1 <0>        -0.1574
     24 C20         2.0032   -0.1304    8.0301 C.2       1 <0>         0.5852
     25 O2          1.1095   -0.0781    8.8547 O.2       1 <0>        -0.5339
     26 N2          3.2472    0.2713    8.3581 N.am      1 <0>        -0.8483
     27 H2          0.0564   -5.0578    7.5106 H         1 <0>         0.0519
     28 H3          0.3112   -6.7961    7.7961 H         1 <0>         0.0651
     29 H4         -0.3932   -5.7780    9.0750 H         1 <0>         0.0618
     30 H5          2.0361   -6.3192    9.4587 H         1 <0>         0.0855
     31 H6          1.7144   -4.5724    9.3428 H         1 <0>         0.0655
     32 H7          3.7117   -5.2221    8.0101 H         1 <0>         0.1048
     33 H8          1.6838   -6.9562    6.5307 H         1 <0>         0.0765
     34 H9          3.3320   -6.6149    5.9517 H         1 <0>         0.0730
     35 H10         2.6110   -7.9614    8.5944 H         1 <0>         0.0586
     36 H11         3.2520   -8.7799    7.1496 H         1 <0>         0.0608
     37 H12         4.2616   -7.6076    8.0299 H         1 <0>         0.0555
     38 H13         2.4483   -2.8448    8.1324 H         1 <0>         0.4183
     39 H14        -0.3985    0.1310    2.9658 H         1 <0>         0.0874
     40 H15         1.2554   -0.0260    2.3194 H         1 <0>         0.0808
     41 H16         0.2404    3.3889    4.6882 H         1 <0>         0.0748
     42 H17        -0.7465    1.9104    4.7415 H         1 <0>         0.0691
     43 H18         2.0988    2.2595    5.7817 H         1 <0>         0.0752
     44 H19         0.6293    1.9665    6.7448 H         1 <0>         0.0744
     45 H20        -0.1665    4.6194    1.5178 H         1 <0>         0.0589
     46 H21        -0.0833    4.4147    3.2840 H         1 <0>         0.0582
     47 H22         1.4029    4.3346    2.3077 H         1 <0>         0.0542
     48 H23        -1.4799    1.1815    2.0782 H         1 <0>         0.0581
     49 H24        -1.7668    2.5734    3.1499 H         1 <0>         0.0575
     50 H25        -1.8500    2.7781    1.3837 H         1 <0>         0.0583
     51 H26         0.6062    1.0691    0.7078 H         1 <0>         0.0638
     52 H27         1.8056    2.3808    0.8034 H         1 <0>         0.0613
     53 H28        -1.0317    2.6394   -0.2920 H         1 <0>         0.0571
     54 H29         0.1676    3.9512   -0.1964 H         1 <0>         0.0564
     55 H30         0.4545    2.5593   -1.2682 H         1 <0>         0.0514
     56 H31         3.9594    0.2296    7.7009 H         1 <0>         0.4033
     57 H32         3.4303    0.6020    9.2514 H         1 <0>         0.4028
@<TRIPOS>BOND
     1    1    2 1
     2    1   27 1
     3    1   28 1
     4    1   29 1
     5    2    3 1
     6    2   30 1
     7    2   31 1
     8    3    4 1
     9    3    6 1
    10    3   32 1
    11    4    5 1
    12    4   33 1
    13    4   34 1
    14    5   35 1
    15    5   36 1
    16    5   37 1
    17    6    7 2
    18    6    8 am
    19    8    9 1
    20    8   38 1
    21    9   13 1
    22    9   10 2
    23   10   11 1
    24   10   24 1
    25   11   18 1
    26   11   12 2
    27   12   13 1
    28   12   14 1
    29   14   15 1
    30   14   39 1
    31   14   40 1
    32   15   16 1
    33   15   17 1
    34   15   19 1
    35   17   18 1
    36   17   41 1
    37   17   42 1
    38   18   43 1
    39   18   44 1
    40   19   20 1
    41   19   21 1
    42   19   22 1
    43   20   45 1
    44   20   46 1
    45   20   47 1
    46   21   48 1
    47   21   49 1
    48   21   50 1
    49   22   23 1
    50   22   51 1
    51   22   52 1
    52   23   53 1
    53   23   54 1
    54   23   55 1
    55   24   25 2
    56   24   26 am
    57   26   56 1
    58   26   57 1
@<TRIPOS>MOLECULE
ZINC00671047
   57    58     0     0     0
SMALL
USER_CHARGES
6-(1,1-dimethylpropyl)-2-(2-ethylbutanoylamino)-4,5,6,7-tetrahydrobenzothiophene-3-carboxamide
@<TRIPOS>ATOM
      1 C1         -2.3993  -10.0502    0.3660 C.3       1 <0>        -0.1600
      2 C2         -2.5564  -10.5871   -1.0581 C.3       1 <0>        -0.1203
      3 C3         -3.4390   -9.6350   -1.8676 C.3       1 <0>        -0.1019
      4 C4         -4.8051   -9.5062   -1.1907 C.3       1 <0>        -0.1093
      5 C5         -5.5261  -10.8549   -1.2364 C.3       1 <0>        -0.1545
      6 C6         -2.7835   -8.2798   -1.9378 C.2       1 <0>         0.5144
      7 O1         -3.3528   -7.3069   -1.4905 O.2       1 <0>        -0.4947
      8 N1         -1.5645   -8.1491   -2.4977 N.am      1 <0>        -0.6218
      9 C7         -0.9613   -6.9022   -2.5624 C.2       1 <0>         0.0735
     10 C8          0.2762   -6.5696   -3.0949 C.2       1 <0>        -0.2307
     11 C9          0.6788   -5.1747   -3.0380 C.2       1 <0>        -0.0654
     12 C10        -0.2141   -4.3413   -2.4612 C.2       1 <0>        -0.2068
     13 S1         -1.5703   -5.3812   -1.9988 S.3       1 <0>         0.2269
     14 C11        -0.0729   -2.8637   -2.2622 C.3       1 <0>        -0.0336
     15 C12         1.4004   -2.4859   -2.4739 C.3       1 <0>        -0.0698
     16 H1          1.9957   -2.8430   -1.6335 H         1 <0>         0.0762
     17 C13         1.8960   -3.1381   -3.7678 C.3       1 <0>        -0.1162
     18 C14         2.0041   -4.6522   -3.5788 C.3       1 <0>        -0.0596
     19 C15         1.5291   -0.9653   -2.5841 C.3       1 <0>        -0.0573
     20 C16         0.6872   -0.4661   -3.7600 C.3       1 <0>        -0.1499
     21 C17         2.9954   -0.5928   -2.8122 C.3       1 <0>        -0.1470
     22 C18         1.0334   -0.3164   -1.2902 C.3       1 <0>        -0.1167
     23 C19         1.1621    1.2042   -1.4004 C.3       1 <0>        -0.1571
     24 C20         1.1455   -7.5881   -3.6923 C.2       1 <0>         0.5850
     25 O2          1.9549   -8.1786   -3.0013 O.2       1 <0>        -0.5334
     26 N2          1.0481   -7.8705   -5.0065 N.am      1 <0>        -0.8488
     27 H2         -1.6882  -10.6704    0.9117 H         1 <0>         0.0618
     28 H3         -2.0330   -9.0242    0.3291 H         1 <0>         0.0519
     29 H4         -3.3646  -10.0735    0.8717 H         1 <0>         0.0651
     30 H5         -3.0200  -11.5731   -1.0255 H         1 <0>         0.0855
     31 H6         -1.5760  -10.6620   -1.5284 H         1 <0>         0.0655
     32 H7         -3.5687  -10.0285   -2.8757 H         1 <0>         0.1048
     33 H8         -4.6691   -9.2019   -0.1529 H         1 <0>         0.0765
     34 H9         -5.4006   -8.7579   -1.7136 H         1 <0>         0.0730
     35 H10        -5.6523  -11.1644   -2.2739 H         1 <0>         0.0555
     36 H11        -4.9358  -11.6007   -0.7040 H         1 <0>         0.0587
     37 H12        -6.5038  -10.7604   -0.7640 H         1 <0>         0.0608
     38 H13        -1.1091   -8.9273   -2.8555 H         1 <0>         0.4183
     39 H14        -0.3782   -2.5987   -1.2500 H         1 <0>         0.0807
     40 H15        -0.6950   -2.3349   -2.9843 H         1 <0>         0.0874
     41 H16         1.1942   -2.9229   -4.5736 H         1 <0>         0.0685
     42 H17         2.8753   -2.7344   -4.0248 H         1 <0>         0.0747
     43 H18         2.2200   -5.1255   -4.5366 H         1 <0>         0.0710
     44 H19         2.8016   -4.8760   -2.8702 H         1 <0>         0.0779
     45 H20         0.7789    0.6172   -3.8385 H         1 <0>         0.0582
     46 H21         1.0404   -0.9284   -4.6818 H         1 <0>         0.0570
     47 H22        -0.3574   -0.7315   -3.5975 H         1 <0>         0.0580
     48 H23         3.5952   -0.9484   -1.9744 H         1 <0>         0.0546
     49 H24         3.3486   -1.0550   -3.7339 H         1 <0>         0.0580
     50 H25         3.0871    0.4905   -2.8907 H         1 <0>         0.0589
     51 H26         1.6332   -0.6720   -0.4524 H         1 <0>         0.0617
     52 H27        -0.0112   -0.5818   -1.1277 H         1 <0>         0.0639
     53 H28         2.2067    1.4696   -1.5629 H         1 <0>         0.0565
     54 H29         0.5623    1.5598   -2.2381 H         1 <0>         0.0569
     55 H30         0.8089    1.6665   -0.4786 H         1 <0>         0.0514
     56 H31         0.4030   -7.3999   -5.5572 H         1 <0>         0.4033
     57 H32         1.6232   -8.5443   -5.4017 H         1 <0>         0.4029
@<TRIPOS>BOND
     1    1    2 1
     2    1   27 1
     3    1   28 1
     4    1   29 1
     5    2    3 1
     6    2   30 1
     7    2   31 1
     8    3    4 1
     9    3    6 1
    10    3   32 1
    11    4    5 1
    12    4   33 1
    13    4   34 1
    14    5   35 1
    15    5   36 1
    16    5   37 1
    17    6    7 2
    18    6    8 am
    19    8    9 1
    20    8   38 1
    21    9   13 1
    22    9   10 2
    23   10   11 1
    24   10   24 1
    25   11   18 1
    26   11   12 2
    27   12   13 1
    28   12   14 1
    29   14   15 1
    30   14   39 1
    31   14   40 1
    32   15   16 1
    33   15   17 1
    34   15   19 1
    35   17   18 1
    36   17   41 1
    37   17   42 1
    38   18   43 1
    39   18   44 1
    40   19   20 1
    41   19   21 1
    42   19   22 1
    43   20   45 1
    44   20   46 1
    45   20   47 1
    46   21   48 1
    47   21   49 1
    48   21   50 1
    49   22   23 1
    50   22   51 1
    51   22   52 1
    52   23   53 1
    53   23   54 1
    54   23   55 1
    55   24   25 2
    56   24   26 am
    57   26   56 1
    58   26   57 1
@<TRIPOS>MOLECULE
ZINC13437730
   50    51     0     0     0
SMALL
USER_CHARGES
[4-(4-fluorophenyl)-2,6-diisopropyl-5-(methoxymethyl)-3-pyridyl]methanol
@<TRIPOS>ATOM
      1 C1          3.5103    3.4637   -0.6592 C.3       1 <0>        -0.1372
      2 C2          3.4169    2.4252    0.4605 C.3       1 <0>        -0.0482
      3 C3          3.2478    3.1375    1.8040 C.3       1 <0>        -0.1425
      4 C4          2.2317    1.5273    0.2153 C.ar      1 <0>         0.1729
      5 C5          2.4084    0.1591    0.1878 C.ar      1 <0>        -0.1391
      6 C6          1.3014   -0.6630   -0.0405 C.ar      1 <0>         0.0372
      7 C7          0.0565   -0.0563   -0.2321 C.ar      1 <0>        -0.1386
      8 C8         -0.0310    1.3197   -0.1887 C.ar      1 <0>         0.1732
      9 N1          1.0392    2.0599    0.0297 N.ar      1 <0>        -0.4719
     10 C9         -1.3658    1.9866   -0.3998 C.3       1 <0>        -0.0487
     11 C10        -1.6556    2.9292    0.7700 C.3       1 <0>        -0.1369
     12 C11        -1.3358    2.7864   -1.7038 C.3       1 <0>        -0.1422
     13 C12        -1.1716   -0.8932   -0.4817 C.3       1 <0>         0.1059
     14 O1         -1.8710   -1.0915    0.7486 O.3       1 <0>        -0.3806
     15 C13        -3.0580   -1.8770    0.6223 C.3       1 <0>         0.0287
     16 C14         1.4434   -2.1391   -0.0781 C.ar      1 <0>        -0.0723
     17 C15         0.8278   -2.9255    0.8941 C.ar      1 <0>        -0.0629
     18 C16         0.9586   -4.2982    0.8525 C.ar      1 <0>        -0.1559
     19 C17         1.7097   -4.8946   -0.1475 C.ar      1 <0>         0.1076
     20 C18         2.3275   -4.1164   -1.1133 C.ar      1 <0>        -0.1558
     21 C19         2.1977   -2.7433   -1.0824 C.ar      1 <0>        -0.0627
     22 F1          1.8398   -6.2389   -0.1812 F         1 <0>        -0.1369
     23 C20         3.7746   -0.4399    0.4014 C.3       1 <0>         0.1209
     24 O2          4.4947   -0.4361   -0.8330 O.3       1 <0>        -0.5625
     25 H1          2.5991    4.0616   -0.6771 H         1 <0>         0.0658
     26 H2          4.3675    4.1132   -0.4818 H         1 <0>         0.0586
     27 H3          3.6307    2.9563   -1.6163 H         1 <0>         0.0535
     28 H4          4.3281    1.8273    0.4784 H         1 <0>         0.0882
     29 H5          3.1813    2.3976    2.6016 H         1 <0>         0.0515
     30 H6          4.1051    3.7869    1.9813 H         1 <0>         0.0621
     31 H7          2.3366    3.7354    1.7861 H         1 <0>         0.0653
     32 H8         -2.1462    1.2278   -0.4569 H         1 <0>         0.0874
     33 H9         -0.8753    3.6881    0.8271 H         1 <0>         0.0660
     34 H10        -2.6211    3.4116    0.6173 H         1 <0>         0.0585
     35 H11        -1.6770    2.3595    1.6990 H         1 <0>         0.0538
     36 H12        -1.1293    2.1149   -2.5372 H         1 <0>         0.0513
     37 H13        -2.3012    3.2688   -1.8565 H         1 <0>         0.0621
     38 H14        -0.5554    3.5452   -1.6467 H         1 <0>         0.0656
     39 H15        -1.8221   -0.3813   -1.1909 H         1 <0>         0.0645
     40 H16        -0.8760   -1.8590   -0.8914 H         1 <0>         0.0605
     41 H17        -3.7476   -1.3856   -0.0641 H         1 <0>         0.0432
     42 H18        -2.8016   -2.8633    0.2355 H         1 <0>         0.0424
     43 H19        -3.5303   -1.9813    1.5991 H         1 <0>         0.0890
     44 H20         0.2458   -2.4611    1.6764 H         1 <0>         0.1396
     45 H21         0.4785   -4.9086    1.6031 H         1 <0>         0.1394
     46 H22         2.9117   -4.5854   -1.8912 H         1 <0>         0.1397
     47 H23         2.6801   -2.1374   -1.8351 H         1 <0>         0.1403
     48 H24         4.3179    0.1486    1.1407 H         1 <0>         0.0612
     49 H25         3.6704   -1.4647    0.7580 H         1 <0>         0.0569
     50 H26         5.3849   -0.8083   -0.7702 H         1 <0>         0.3821
@<TRIPOS>BOND
     1    1    2 1
     2    1   25 1
     3    1   26 1
     4    1   27 1
     5    2    3 1
     6    2    4 1
     7    2   28 1
     8    3   29 1
     9    3   30 1
    10    3   31 1
    11    4    9 ar
    12    4    5 ar
    13    5    6 ar
    14    5   23 1
    15    6    7 ar
    16    6   16 1
    17    7    8 ar
    18    7   13 1
    19    8    9 ar
    20    8   10 1
    21   10   11 1
    22   10   12 1
    23   10   32 1
    24   11   33 1
    25   11   34 1
    26   11   35 1
    27   12   36 1
    28   12   37 1
    29   12   38 1
    30   13   14 1
    31   13   39 1
    32   13   40 1
    33   14   15 1
    34   15   41 1
    35   15   42 1
    36   15   43 1
    37   16   21 ar
    38   16   17 ar
    39   17   18 ar
    40   17   44 1
    41   18   19 ar
    42   18   45 1
    43   19   20 ar
    44   19   22 1
    45   20   21 ar
    46   20   46 1
    47   21   47 1
    48   23   24 1
    49   23   48 1
    50   23   49 1
    51   24   50 1
@<TRIPOS>MOLECULE
ZINC00288567
   36    38     0     0     0
SMALL
USER_CHARGES
4-hydroxy-N-(1-naphthylmethyleneamino)benzamide
@<TRIPOS>ATOM
      1 C1          0.0619   -8.5981    0.2713 C.ar      1 <0>        -0.1138
      2 C2         -0.0022   -7.2067    0.2826 C.ar      1 <0>        -0.1136
      3 C3          1.1282   -6.4526    0.1758 C.ar      1 <0>        -0.1128
      4 C4          2.3724   -7.0838    0.0589 C.ar      1 <0>        -0.0296
      5 C5          2.4408   -8.4985    0.0415 C.ar      1 <0>        -0.0593
      6 C6          1.2545   -9.2442    0.1538 C.ar      1 <0>        -0.1118
      7 C7          3.6906   -9.1281   -0.0819 C.ar      1 <0>        -0.0806
      8 C8          4.8310   -8.3928   -0.1903 C.ar      1 <0>        -0.1285
      9 C9          4.8110   -7.0050   -0.1844 C.ar      1 <0>        -0.0737
     10 C10         3.6100   -6.3160   -0.0650 C.ar      1 <0>        -0.0544
     11 C11         3.5853   -4.8453   -0.0574 C.2       1 <0>         0.1194
     12 N1          2.4492   -4.2145   -0.0508 N.2       1 <0>        -0.2273
     13 N2          2.4258   -2.8137   -0.0435 N.am      1 <0>        -0.5838
     14 C12         1.2475   -2.1595   -0.0366 C.2       1 <0>         0.5796
     15 O1          0.2045   -2.7852   -0.0367 O.2       1 <0>        -0.4977
     16 C13         1.2227   -0.6843   -0.0289 C.ar      1 <0>        -0.1461
     17 C14         0.0019   -0.0039   -0.0218 C.ar      1 <0>        -0.0354
     18 C15        -0.0168    1.3729   -0.0142 C.ar      1 <0>        -0.1518
     19 C16         1.1763    2.0861   -0.0136 C.ar      1 <0>         0.1398
     20 C17         2.3926    1.4133   -0.0207 C.ar      1 <0>        -0.1525
     21 C18         2.4201    0.0366   -0.0283 C.ar      1 <0>        -0.0686
     22 O2          1.1536    3.4430   -0.0065 O.3       1 <0>        -0.4968
     23 H1         -0.8482   -9.1731    0.3574 H         1 <0>         0.1227
     24 H2         -0.9609   -6.7185    0.3778 H         1 <0>         0.1236
     25 H3          1.0650   -5.3745    0.1859 H         1 <0>         0.1718
     26 H4          1.2890  -10.3236    0.1472 H         1 <0>         0.1275
     27 H5          3.7471  -10.2066   -0.0912 H         1 <0>         0.1285
     28 H6          5.7780   -8.9037   -0.2840 H         1 <0>         0.1283
     29 H7          5.7368   -6.4558   -0.2729 H         1 <0>         0.1313
     30 H8          4.5115   -4.2897   -0.0573 H         1 <0>         0.1277
     31 H9          3.2576   -2.3147   -0.0434 H         1 <0>         0.3859
     32 H10        -0.9255   -0.5573   -0.0219 H         1 <0>         0.1450
     33 H11        -0.9597    1.8994   -0.0132 H         1 <0>         0.1407
     34 H12         3.3174    1.9711   -0.0202 H         1 <0>         0.1385
     35 H13         3.3656   -0.4854   -0.0335 H         1 <0>         0.1291
     36 H14         1.1493    3.8317    0.8790 H         1 <0>         0.3986
@<TRIPOS>BOND
     1    1    6 ar
     2    1    2 ar
     3    1   23 1
     4    2    3 ar
     5    2   24 1
     6    3    4 ar
     7    3   25 1
     8    4   10 ar
     9    4    5 ar
    10    5    6 ar
    11    5    7 ar
    12    6   26 1
    13    7    8 ar
    14    7   27 1
    15    8    9 ar
    16    8   28 1
    17    9   10 ar
    18    9   29 1
    19   10   11 1
    20   11   12 2
    21   11   30 1
    22   12   13 1
    23   13   14 am
    24   13   31 1
    25   14   15 2
    26   14   16 1
    27   16   21 ar
    28   16   17 ar
    29   17   18 ar
    30   17   32 1
    31   18   19 ar
    32   18   33 1
    33   19   20 ar
    34   19   22 1
    35   20   21 ar
    36   20   34 1
    37   21   35 1
    38   22   36 1
@<TRIPOS>MOLECULE
ZINC26575654
   38    41     0     0     0
SMALL
USER_CHARGES
4-[2-(4-bromophenyl)-5-(4-fluorophenyl)-1H-imidazol-4-yl]pyridine
@<TRIPOS>ATOM
      1 C1          2.9593   -2.1453    0.5930 C.ar      1 <0>        -0.0571
      2 C2          3.4318   -3.4385    0.5185 C.ar      1 <0>        -0.1470
      3 C3          2.7990   -4.3646   -0.2959 C.ar      1 <0>         0.1116
      4 C4          1.6849   -3.9989   -1.0349 C.ar      1 <0>        -0.1492
      5 C5          1.2002   -2.7100   -0.9644 C.ar      1 <0>        -0.0785
      6 C6          1.8340   -1.7721   -0.1458 C.ar      1 <0>        -0.0373
      7 C7          1.3202   -0.3907   -0.0664 C.2       1 <0>         0.0451
      8 C8          2.0609    0.7767   -0.1573 C.2       1 <0>         0.0564
      9 N1          1.2119    1.8104   -0.0346 N.2       1 <0>        -0.4489
     10 C9         -0.0101    1.3579    0.1268 C.2       1 <0>         0.2673
     11 N2          0.0124   -0.0077    0.1131 N.pl3     1 <0>        -0.5613
     12 H1         -0.7749   -0.7693    0.2134 H         1 <0>         0.4531
     13 C10        -1.2185    2.1935    0.2908 C.ar      1 <0>         0.0000
     14 C11        -2.4697    1.5937    0.4433 C.ar      1 <0>        -0.1037
     15 C12        -3.5928    2.3786    0.6017 C.ar      1 <0>        -0.0859
     16 C13        -3.4825    3.7588    0.5982 C.ar      1 <0>        -0.0829
     17 C14        -2.2449    4.3596    0.4417 C.ar      1 <0>        -0.0861
     18 C15        -1.1137    3.5854    0.2881 C.ar      1 <0>        -0.0714
     19 Br1        -5.0284    4.8276    0.8075 Br        1 <0>        -0.0416
     20 C16         3.5254    0.8684   -0.3546 C.ar      1 <0>         0.0408
     21 C17         4.2900    1.7996    0.3572 C.ar      1 <0>        -0.1478
     22 C18         5.6517    1.8477    0.1459 C.ar      1 <0>         0.1006
     23 N3          6.2321    1.0385   -0.7201 N.ar      1 <0>        -0.4838
     24 C19         5.5476    0.1498   -1.4154 C.ar      1 <0>         0.1015
     25 C20         4.1824    0.0302   -1.2625 C.ar      1 <0>        -0.1555
     26 F1          3.2698   -5.6288   -0.3692 F         1 <0>        -0.1340
     27 H2          3.4558   -1.4233    1.2244 H         1 <0>         0.1351
     28 H3          4.2993   -3.7293    1.0923 H         1 <0>         0.1427
     29 H4          1.1958   -4.7248   -1.6675 H         1 <0>         0.1417
     30 H5          0.3324   -2.4260   -1.5413 H         1 <0>         0.1333
     31 H6         -2.5576    0.5173    0.4417 H         1 <0>         0.1281
     32 H7         -4.5609    1.9157    0.7239 H         1 <0>         0.1394
     33 H8         -2.1652    5.4366    0.4394 H         1 <0>         0.1415
     34 H9         -0.1490    4.0552    0.1658 H         1 <0>         0.1475
     35 H10         3.8210    2.4679    1.0642 H         1 <0>         0.1379
     36 H11         6.2509    2.5601    0.6935 H         1 <0>         0.1584
     37 H12         6.0636   -0.4923   -2.1139 H         1 <0>         0.1572
     38 H13         3.6287   -0.6995   -1.8345 H         1 <0>         0.1326
@<TRIPOS>BOND
     1    1    6 ar
     2    1    2 ar
     3    1   27 1
     4    2    3 ar
     5    2   28 1
     6    3    4 ar
     7    3   26 1
     8    4    5 ar
     9    4   29 1
    10    5    6 ar
    11    5   30 1
    12    6    7 1
    13    7   11 1
    14    7    8 2
    15    8    9 1
    16    8   20 1
    17    9   10 2
    18   10   11 1
    19   10   13 1
    20   11   12 1
    21   13   18 ar
    22   13   14 ar
    23   14   15 ar
    24   14   31 1
    25   15   16 ar
    26   15   32 1
    27   16   17 ar
    28   16   19 1
    29   17   18 ar
    30   17   33 1
    31   18   34 1
    32   20   25 ar
    33   20   21 ar
    34   21   22 ar
    35   21   35 1
    36   22   23 ar
    37   22   36 1
    38   23   24 ar
    39   24   25 ar
    40   24   37 1
    41   25   38 1
