@<TRIPOS>MOLECULE
ZINC37866152
   49    52     0     0     0
SMALL
USER_CHARGES

@<TRIPOS>ATOM
      1 C1         -4.7001   -7.1343    5.1971 C.3       1 <0>        -0.1506
      2 C2         -3.6887   -6.8316    4.0898 C.3       1 <0>        -0.1205
      3 C3         -4.2600   -5.7631    3.1554 C.3       1 <0>         0.0553
      4 O1         -3.3154   -5.4803    2.1212 O.3       1 <0>        -0.2974
      5 C4         -3.6701   -4.5462    1.2003 C.ar      1 <0>         0.1634
      6 C5         -4.8976   -3.9108    1.2922 C.ar      1 <0>        -0.2055
      7 C6         -5.2578   -2.9607    0.3552 C.ar      1 <0>        -0.0470
      8 C7         -4.3964   -2.6385   -0.6799 C.ar      1 <0>        -0.1285
      9 C8         -3.1698   -3.2641   -0.7836 C.ar      1 <0>        -0.0396
     10 C9         -2.7947   -4.2189    0.1598 C.ar      1 <0>        -0.0415
     11 C10        -1.4767   -4.8889    0.0573 C.2       1 <0>        -0.0853
     12 C11        -1.0602   -5.7658   -0.9644 C.2       1 <0>        -0.1468
     13 C12         0.2139   -6.1548   -0.6803 C.2       1 <0>         0.0640
     14 N1          0.6086   -5.5509    0.4847 N.pl3     1 <0>        -0.5374
     15 H1          1.4732   -5.6576    0.9113 H         1 <0>         0.4172
     16 C13        -0.4183   -4.7663    0.9460 C.2       1 <0>         0.0816
     17 C14        -0.4013   -3.9431    2.1688 C.ar      1 <0>         0.0320
     18 C15        -0.8610   -2.6185    2.1527 C.ar      1 <0>        -0.1474
     19 C16        -0.8271   -1.8859    3.3195 C.ar      1 <0>         0.1043
     20 N2         -0.3701   -2.4147    4.4394 N.ar      1 <0>        -0.4828
     21 C17         0.0721   -3.6570    4.4993 C.ar      1 <0>         0.1032
     22 C18         0.0697   -4.4643    3.3823 C.ar      1 <0>        -0.1634
     23 C19         1.0347   -7.0763   -1.4939 C.ar      1 <0>        -0.0093
     24 C20         0.5171   -7.6241   -2.6689 C.ar      1 <0>        -0.0900
     25 C21         1.2879   -8.4834   -3.4238 C.ar      1 <0>        -0.0998
     26 C22         2.5726   -8.8034   -3.0180 C.ar      1 <0>        -0.0378
     27 C23         3.0917   -8.2631   -1.8533 C.ar      1 <0>        -0.1003
     28 C24         2.3328   -7.3978   -1.0932 C.ar      1 <0>        -0.1116
     29 Cl1         3.5363   -9.8866   -3.9728 Cl        1 <0>        -0.0656
     30 Br1        -4.9017   -1.3378   -1.9561 Br        1 <0>        -0.0487
     31 H2         -4.2931   -7.8955    5.8628 H         1 <0>         0.0657
     32 H3         -4.9009   -6.2254    5.7643 H         1 <0>         0.0579
     33 H4         -5.6269   -7.4978    4.7533 H         1 <0>         0.0583
     34 H5         -2.7619   -6.4681    4.5336 H         1 <0>         0.0718
     35 H6         -3.4880   -7.7405    3.5226 H         1 <0>         0.0734
     36 H7         -5.1868   -6.1266    2.7116 H         1 <0>         0.0639
     37 H8         -4.4608   -4.8542    3.7226 H         1 <0>         0.0622
     38 H9         -5.5741   -4.1583    2.0969 H         1 <0>         0.1366
     39 H10        -6.2157   -2.4676    0.4305 H         1 <0>         0.1354
     40 H11        -2.5001   -3.0106   -1.5920 H         1 <0>         0.1406
     41 H12        -1.6456   -6.0739   -1.8181 H         1 <0>         0.1463
     42 H13        -1.2356   -2.1791    1.2400 H         1 <0>         0.1367
     43 H14        -1.1789   -0.8648    3.3175 H         1 <0>         0.1585
     44 H15         0.4373   -4.0476    5.4377 H         1 <0>         0.1570
     45 H16         0.4289   -5.4811    3.4398 H         1 <0>         0.1315
     46 H17        -0.4850   -7.3758   -2.9860 H         1 <0>         0.1395
     47 H18         0.8885   -8.9079   -4.3331 H         1 <0>         0.1394
     48 H19         4.0942   -8.5167   -1.5417 H         1 <0>         0.1366
     49 H20         2.7402   -6.9736   -0.1874 H         1 <0>         0.1247
@<TRIPOS>BOND
     1    1    2 1
     2    1   31 1
     3    1   32 1
     4    1   33 1
     5    2    3 1
     6    2   34 1
     7    2   35 1
     8    3    4 1
     9    3   36 1
    10    3   37 1
    11    4    5 1
    12    5   10 ar
    13    5    6 ar
    14    6    7 ar
    15    6   38 1
    16    7    8 ar
    17    7   39 1
    18    8    9 ar
    19    8   30 1
    20    9   10 ar
    21    9   40 1
    22   10   11 1
    23   11   16 2
    24   11   12 1
    25   12   13 2
    26   12   41 1
    27   13   14 1
    28   13   23 1
    29   14   15 1
    30   14   16 1
    31   16   17 1
    32   17   22 ar
    33   17   18 ar
    34   18   19 ar
    35   18   42 1
    36   19   20 ar
    37   19   43 1
    38   20   21 ar
    39   21   22 ar
    40   21   44 1
    41   22   45 1
    42   23   28 ar
    43   23   24 ar
    44   24   25 ar
    45   24   46 1
    46   25   26 ar
    47   25   47 1
    48   26   27 ar
    49   26   29 1
    50   27   28 ar
    51   27   48 1
    52   28   49 1
