@<TRIPOS>MOLECULE
ZINC13445493
   67    67     0     0     0
SMALL
USER_CHARGES
(4S)-4-[[(2S,3S)-2-acetamido-3-methyl-pentanoyl]amino]-5-[(2S)-2-[[(1S)-1-formyl-3-hydroxy-3-oxo-propyl]carbamoyl]pyrrolidin-1-yl]-5-oxo-pentanoic acid
@<TRIPOS>ATOM
      1 C1         -5.6737   -2.4983   -2.9088 C.3       1 <0>        -0.1511
      2 C2         -5.7608   -1.6267   -1.6544 C.3       1 <0>        -0.1116
      3 C3         -4.6115   -0.6168   -1.6544 C.3       1 <0>        -0.1010
      4 H1         -4.6296   -0.0456   -2.5826 H         1 <0>         0.0977
      5 C4         -3.2792   -1.3602   -1.5390 C.3       1 <0>        -0.1602
      6 C5         -4.7689    0.3350   -0.4668 C.3       1 <0>         0.1396
      7 H2         -4.7507   -0.2362    0.4614 H         1 <0>         0.1047
      8 C6         -3.6368    1.3297   -0.4668 C.2       1 <0>         0.5038
      9 O1         -3.8118    2.4475   -0.9038 O.2       1 <0>        -0.4992
     10 N1         -2.4300    0.9773    0.0189 N.am      1 <0>        -0.7096
     11 C7         -1.3296    1.9443    0.0189 C.3       1 <0>         0.1367
     12 H3         -1.4000    2.5749   -0.8673 H         1 <0>         0.1059
     13 C8         -1.4166    2.8159    1.2733 C.3       1 <0>        -0.1067
     14 C9         -2.6940    3.6565    1.2227 C.3       1 <0>        -0.1389
     15 C10        -2.7798    4.5150    2.4583 C.2       1 <0>         0.4583
     16 O2         -1.9086    4.4602    3.2936 O.co2     1 <0>        -0.6423
     17 C11        -0.0144    1.2086    0.0087 C.2       1 <0>         0.5367
     18 O3          0.0021   -0.0041    0.0020 O.2       1 <0>        -0.5165
     19 N2          1.1435    1.8983    0.0013 N.am      1 <0>        -0.5965
     20 C12         1.2687    3.3672    0.0085 C.3       1 <0>         0.0929
     21 C13         2.6585    3.6498   -0.6147 C.3       1 <0>        -0.1284
     22 C14         3.4999    2.4778   -0.0441 C.3       1 <0>        -0.1234
     23 C15         2.4910    1.3104   -0.0088 C.3       1 <0>         0.1241
     24 H4          2.6169    0.6871   -0.8941 H         1 <0>         0.1001
     25 C16         2.7000    0.4863    1.2355 C.2       1 <0>         0.5198
     26 O4          1.8131    0.3937    2.0576 O.2       1 <0>        -0.5233
     27 N3          3.8725   -0.1477    1.4349 N.am      1 <0>        -0.6941
     28 C17         4.0757   -0.9488    2.6445 C.3       1 <0>         0.1129
     29 H5          3.2159   -1.3911    2.8997 H         1 <0>         0.1058
     30 C18         5.1385   -2.0163    2.3767 C.3       1 <0>        -0.1631
     31 C19         4.6290   -2.9832    1.3391 C.2       1 <0>         0.4588
     32 O5          3.5288   -2.8338    0.8627 O.co2     1 <0>        -0.6149
     33 C20         4.5335   -0.0548    3.7680 C.2       1 <0>         0.3311
     34 O6          4.6754    1.1292    3.5779 O.2       1 <0>        -0.4576
     35 N4         -6.0445    1.0469   -0.5773 N.am      1 <0>        -0.7195
     36 C21        -6.2926    1.8225   -1.6512 C.2       1 <0>         0.5170
     37 O7         -5.4598    1.9311   -2.5262 O.2       1 <0>        -0.5157
     38 C22        -7.6048    2.5548   -1.7648 C.3       1 <0>        -0.1696
     39 H6         -6.4925   -3.2178   -2.9089 H         1 <0>         0.0491
     40 H7         -5.7442   -1.8677   -3.7951 H         1 <0>         0.0518
     41 H8         -4.7225   -3.0304   -2.9162 H         1 <0>         0.0584
     42 H9         -5.6903   -2.2573   -0.7682 H         1 <0>         0.0610
     43 H10        -6.7120   -1.0946   -1.6470 H         1 <0>         0.0603
     44 H11        -3.2611   -1.9314   -0.6108 H         1 <0>         0.0580
     45 H12        -3.1671   -2.0382   -2.3851 H         1 <0>         0.0619
     46 H13        -2.4604   -0.6407   -1.5390 H         1 <0>         0.0706
     47 H14        -2.2901    0.0833    0.3684 H         1 <0>         0.4062
     48 H15        -1.4356    2.1790    2.1577 H         1 <0>         0.0683
     49 H16        -0.5496    3.4750    1.3187 H         1 <0>         0.0784
     50 H17        -2.6751    4.2933    0.3383 H         1 <0>         0.0650
     51 H18        -3.5611    2.9974    1.1773 H         1 <0>         0.0628
     52 H19         0.4826    3.8179   -0.5972 H         1 <0>         0.0828
     53 H20         1.2247    3.7467    1.0294 H         1 <0>         0.0814
     54 H21         2.6148    3.6059   -1.7030 H         1 <0>         0.0775
     55 H22         3.0490    4.6106   -0.2794 H         1 <0>         0.0870
     56 H23         4.3369    2.2473   -0.7032 H         1 <0>         0.0882
     57 H24         3.8543    2.7105    0.9600 H         1 <0>         0.0866
     58 H25         4.5818   -0.0736    0.7774 H         1 <0>         0.3955
     59 H26         6.0488   -1.5395    2.0132 H         1 <0>         0.0725
     60 H27         5.3538   -2.5542    3.3000 H         1 <0>         0.0855
     61 H28         4.7346   -0.4731    4.7432 H         1 <0>         0.0939
     62 H29        -6.7106    0.9600    0.1225 H         1 <0>         0.4021
     63 H30        -7.5132    3.5382   -1.3038 H         1 <0>         0.0940
     64 H31        -7.8669    2.6696   -2.8166 H         1 <0>         0.0863
     65 H32        -8.3834    1.9862   -1.2563 H         1 <0>         0.0730
     66 O8         -3.8240    5.3406    2.6307 O.co2     1 <0>        -0.7837
     67 O9          5.3976   -4.0104    0.9442 O.co2     1 <0>        -0.7773
@<TRIPOS>BOND
     1    1    2 1
     2    1   39 1
     3    1   40 1
     4    1   41 1
     5    2    3 1
     6    2   42 1
     7    2   43 1
     8    3    4 1
     9    3    5 1
    10    3    6 1
    11    5   44 1
    12    5   45 1
    13    5   46 1
    14    6    7 1
    15    6    8 1
    16    6   35 1
    17    8    9 2
    18    8   10 am
    19   10   11 1
    20   10   47 1
    21   11   12 1
    22   11   13 1
    23   11   17 1
    24   13   14 1
    25   13   48 1
    26   13   49 1
    27   14   15 1
    28   14   50 1
    29   14   51 1
    30   15   16 2
    31   15   66 1
    32   17   18 2
    33   17   19 am
    34   19   23 1
    35   19   20 1
    36   20   21 1
    37   20   52 1
    38   20   53 1
    39   21   22 1
    40   21   54 1
    41   21   55 1
    42   22   23 1
    43   22   56 1
    44   22   57 1
    45   23   24 1
    46   23   25 1
    47   25   26 2
    48   25   27 am
    49   27   28 1
    50   27   58 1
    51   28   29 1
    52   28   30 1
    53   28   33 1
    54   30   31 1
    55   30   59 1
    56   30   60 1
    57   31   32 2
    58   31   67 1
    59   33   34 2
    60   33   61 1
    61   35   36 am
    62   35   62 1
    63   36   37 2
    64   36   38 1
    65   38   63 1
    66   38   64 1
    67   38   65 1
