@<TRIPOS>MOLECULE
ZINC17213207
   46    48     0     0     0
SMALL
USER_CHARGES

@<TRIPOS>ATOM
      1 C1         -0.6515    1.3939    1.8295 C.3       1 <0>         0.0337
      2 O1         -0.4201    0.0829    1.3101 O.3       1 <0>        -0.3465
      3 C2         -1.5042   -0.6834    1.0780 C.2       1 <0>         0.4721
      4 O2         -2.6149   -0.2504    1.3102 O.2       1 <0>        -0.4969
      5 C3         -1.3415   -2.0506    0.5409 C.2       1 <0>         0.2704
      6 O3         -0.1047   -2.5756    0.3922 O.3       1 <0>        -0.6742
      7 C4         -2.4510   -2.7906    0.1916 C.2       1 <0>        -0.3232
      8 C5         -3.8017   -2.2107    0.3382 C.ar      1 <0>         0.2531
      9 C6         -4.7459   -2.8318    1.1912 C.ar      1 <0>         0.3990
     10 N1         -5.9524   -2.3249    1.3298 N.ar      1 <0>        -0.5917
     11 C7         -6.2897   -1.2142    0.6604 C.ar      1 <0>         0.1325
     12 C8         -7.5710   -0.6543    0.7926 C.ar      1 <0>        -0.0545
     13 C9         -7.8899    0.4751    0.1021 C.ar      1 <0>        -0.0525
     14 C10        -6.9621    1.0878   -0.7379 C.ar      1 <0>        -0.1485
     15 C11        -5.7112    0.5741   -0.8916 C.ar      1 <0>        -0.0498
     16 C12        -5.3449   -0.5910   -0.1938 C.ar      1 <0>         0.0521
     17 N2         -4.1206   -1.1117   -0.3233 N.ar      1 <0>        -0.4272
     18 N3         -9.2418    1.0603    0.2456 N.pl3     1 <0>         0.0564
     19 O4        -10.0536    0.5357    0.9718 O.2       1 <0>        -0.2010
     20 O5         -9.5342    2.0630   -0.3633 O.3       1 <0>        -0.2018
     21 O6         -4.4054   -3.9548    1.8682 O.3       1 <0>        -0.6557
     22 C13        -2.2897   -4.1587   -0.3276 C.2       1 <0>         0.4902
     23 O7         -1.7347   -5.0039    0.3479 O.2       1 <0>        -0.4440
     24 C14        -2.8026   -4.5051   -1.6707 C.2       1 <0>         0.4155
     25 O8         -2.7506   -5.7853   -2.1052 O.3       1 <0>        -0.6818
     26 N4         -3.3066   -3.5737   -2.4387 N.2       1 <0>        -0.6160
     27 C15        -3.8778   -3.9076   -3.6279 C.ar      1 <0>         0.3272
     28 C16        -4.8303   -4.9289   -3.6896 C.ar      1 <0>        -0.1590
     29 C17        -5.4056   -5.2620   -4.8973 C.ar      1 <0>        -0.0235
     30 C18        -5.0468   -4.5914   -6.0563 C.ar      1 <0>        -0.1484
     31 C19        -4.1089   -3.5800   -6.0190 C.ar      1 <0>         0.0253
     32 C20        -3.5175   -3.2213   -4.8078 C.ar      1 <0>        -0.1050
     33 C21        -2.5475   -2.1688   -4.7624 C.1       1 <0>         0.2945
     34 N5         -1.7781   -1.3338   -4.7264 N.1       1 <0>        -0.4454
     35 N6         -5.6745   -4.9635   -7.3441 N.pl3     1 <0>         0.0715
     36 O9         -6.4965   -5.8492   -7.3822 O.2       1 <0>        -0.2118
     37 O10        -5.3651   -4.3818   -8.3577 O.3       1 <0>        -0.2173
     38 H1          0.3022    1.9027    1.9699 H         1 <0>         0.0817
     39 H2         -1.2652    1.9595    1.1284 H         1 <0>         0.0487
     40 H3         -1.1680    1.3197    2.7865 H         1 <0>         0.0452
     41 H4         -8.3009   -1.1183    1.4393 H         1 <0>         0.1373
     42 H5         -7.2397    1.9828   -1.2750 H         1 <0>         0.1274
     43 H6         -5.0024    1.0595   -1.5461 H         1 <0>         0.1295
     44 H7         -5.1151   -5.4570   -2.7916 H         1 <0>         0.1391
     45 H8         -6.1411   -6.0517   -4.9408 H         1 <0>         0.1337
     46 H9         -3.8355   -3.0635   -6.9272 H         1 <0>         0.1395
@<TRIPOS>BOND
     1    1    2 1
     2    1   38 1
     3    1   39 1
     4    1   40 1
     5    2    3 1
     6    3    4 2
     7    3    5 1
     8    5    6 1
     9    5    7 2
    10    7    8 1
    11    7   22 1
    12    8   17 ar
    13    8    9 ar
    14    9   10 ar
    15    9   21 1
    16   10   11 ar
    17   11   16 ar
    18   11   12 ar
    19   12   13 ar
    20   12   41 1
    21   13   14 ar
    22   13   18 1
    23   14   15 ar
    24   14   42 1
    25   15   16 ar
    26   15   43 1
    27   16   17 ar
    28   18   19 2
    29   18   20 1
    30   22   23 2
    31   22   24 1
    32   24   25 1
    33   24   26 2
    34   26   27 1
    35   27   32 ar
    36   27   28 ar
    37   28   29 ar
    38   28   44 1
    39   29   30 ar
    40   29   45 1
    41   30   31 ar
    42   30   35 1
    43   31   32 ar
    44   31   46 1
    45   32   33 1
    46   33   34 3
    47   35   36 2
    48   35   37 1
@<TRIPOS>MOLECULE
ZINC16958043
   48    50     0     0     0
SMALL
USER_CHARGES
methyl (3S)-5-(3-acetylanilino)-2,4,5-trioxo-3-(3-oxo-4H-quinoxalin-2-yl)pentanoate
@<TRIPOS>ATOM
      1 C1          5.1044    8.4654   -0.6979 C.3       1 <0>        -0.2038
      2 C2          3.8092    7.7028   -0.8080 C.2       1 <0>         0.3978
      3 O1          2.8431    8.2205   -1.3263 O.2       1 <0>        -0.4630
      4 C3          3.7171    6.3296   -0.2864 C.ar      1 <0>        -0.1581
      5 C4          4.8300    5.7297    0.3126 C.ar      1 <0>        -0.1016
      6 C5          4.7401    4.4428    0.8007 C.ar      1 <0>        -0.1110
      7 C6          3.5511    3.7432    0.7059 C.ar      1 <0>        -0.0937
      8 C7          2.4399    4.3271    0.1075 C.ar      1 <0>         0.1578
      9 C8          2.5178    5.6200   -0.3870 C.ar      1 <0>        -0.0952
     10 N1          1.2432    3.6127    0.0096 N.am      1 <0>        -0.6875
     11 C9          1.2683    2.2768   -0.1669 C.2       1 <0>         0.4714
     12 O2          2.3266    1.7068   -0.3367 O.2       1 <0>        -0.4522
     13 C10        -0.0026    1.4997   -0.1537 C.2       1 <0>         0.3875
     14 O3         -1.0559    2.0675    0.0103 O.3       1 <0>        -0.4330
     15 C11         0.0255    0.0059   -0.3510 C.2       1 <0>        -0.3968
     16 C12        -1.2537   -0.4375   -1.0128 C.2       1 <0>         0.2152
     17 C13        -1.4198   -1.8376   -1.4180 C.2       1 <0>         0.5054
     18 O4         -0.5295   -2.6453   -1.2230 O.2       1 <0>        -0.5142
     19 N2         -2.5750   -2.2215   -2.0040 N.am      1 <0>        -0.6457
     20 H1         -2.7176   -3.2702   -2.3039 H         1 <0>         0.4278
     21 C14        -3.5619   -1.2799   -2.2161 C.ar      1 <0>         0.1020
     22 C15        -4.7607   -1.6423   -2.8233 C.ar      1 <0>        -0.1486
     23 C16        -5.7385   -0.6941   -3.0294 C.ar      1 <0>        -0.1120
     24 C17        -5.5382    0.6227   -2.6354 C.ar      1 <0>        -0.1414
     25 C18        -4.3712    1.0006   -2.0389 C.ar      1 <0>        -0.0714
     26 C19        -3.3585    0.0543   -1.8172 C.ar      1 <0>         0.0818
     27 N3         -2.2057    0.4247   -1.2276 N.2       1 <0>        -0.4812
     28 C20         0.1615   -0.6750    0.9865 C.2       1 <0>         0.4209
     29 O5         -0.8229   -1.0605    1.5707 O.2       1 <0>        -0.4641
     30 C21         1.5107   -0.8728    1.5884 C.2       1 <0>         0.4142
     31 O6          2.4990   -0.4857    1.0019 O.2       1 <0>        -0.4381
     32 O7          1.6321   -1.4809    2.7830 O.3       1 <0>        -0.3570
     33 C22         2.9764   -1.6395    3.3084 C.3       1 <0>         0.0293
     34 H2          5.8592    7.8366   -0.2029 H         1 <0>         0.0857
     35 H3          4.9430    9.3787   -0.1065 H         1 <0>         0.0934
     36 H4          5.4564    8.7374   -1.7039 H         1 <0>         0.0938
     37 H5          5.7593    6.2741    0.3931 H         1 <0>         0.1313
     38 H6          5.6003    3.9814    1.2628 H         1 <0>         0.1302
     39 H7          3.4865    2.7375    1.0942 H         1 <0>         0.1419
     40 H8          1.6548    6.0767   -0.8485 H         1 <0>         0.1347
     41 H9          0.2805    4.1406    0.0766 H         1 <0>         0.4402
     42 H10        -4.9241   -2.6643   -3.1318 H         1 <0>         0.1212
     43 H11        -6.6682   -0.9768   -3.5008 H         1 <0>         0.1201
     44 H12        -6.3144    1.3547   -2.8030 H         1 <0>         0.1207
     45 H13        -4.2267    2.0274   -1.7368 H         1 <0>         0.1312
     46 H14         2.9316   -2.1477    4.2829 H         1 <0>         0.0942
     47 H15         3.4409   -0.6501    3.4318 H         1 <0>         0.0583
     48 H16         3.5750   -2.2409    2.6084 H         1 <0>         0.0614
@<TRIPOS>BOND
     1    1    2 1
     2    1   34 1
     3    1   35 1
     4    1   36 1
     5    2    3 2
     6    2    4 1
     7    4    9 ar
     8    4    5 ar
     9    5    6 ar
    10    5   37 1
    11    6    7 ar
    12    6   38 1
    13    7    8 ar
    14    7   39 1
    15    8    9 ar
    16    8   10 1
    17    9   40 1
    18   10   11 am
    19   10   41 1
    20   11   12 2
    21   11   13 1
    22   13   14 1
    23   13   15 2
    24   15   16 1
    25   15   28 1
    26   16   27 2
    27   16   17 1
    28   17   18 2
    29   17   19 am
    30   19   20 1
    31   19   21 1
    32   21   26 ar
    33   21   22 ar
    34   22   23 ar
    35   22   42 1
    36   23   24 ar
    37   23   43 1
    38   24   25 ar
    39   24   44 1
    40   25   26 ar
    41   25   45 1
    42   26   27 1
    43   28   29 2
    44   28   30 1
    45   30   31 2
    46   30   32 1
    47   32   33 1
    48   33   46 1
    49   33   47 1
    50   33   48 1
@<TRIPOS>MOLECULE
ZINC16958043
   47    49     0     0     0
SMALL
USER_CHARGES

@<TRIPOS>ATOM
      1 C1          1.0641    1.1369    1.6826 C.3       1 <0>        -0.1928
      2 C2          0.9031   -0.3271    1.3635 C.2       1 <0>         0.3972
      3 O1          1.8809   -1.0133    1.1554 O.2       1 <0>        -0.4785
      4 C3         -0.4411   -0.9241    1.3044 C.ar      1 <0>        -0.1691
      5 C4         -1.5717   -0.1321    1.5388 C.ar      1 <0>        -0.1619
      6 C5         -2.8335   -0.6898    1.4845 C.ar      1 <0>        -0.1208
      7 C6         -2.9921   -2.0309    1.1991 C.ar      1 <0>        -0.1292
      8 C7         -1.8718   -2.8372    0.9621 C.ar      1 <0>         0.2076
      9 C8         -0.5922   -2.2790    1.0091 C.ar      1 <0>        -0.1120
     10 N1         -2.0299   -4.1616    0.6813 N.2       1 <0>        -0.6500
     11 C9         -2.8595   -4.8873    1.3904 C.2       1 <0>         0.4181
     12 O2         -3.5597   -4.3213    2.4022 O.3       1 <0>        -0.7158
     13 C10        -3.0299   -6.3139    1.0879 C.2       1 <0>         0.3748
     14 O3         -2.2413   -6.9075    0.1666 O.3       1 <0>        -0.6526
     15 C11        -4.0049   -7.0549    1.7513 C.2       1 <0>        -0.4579
     16 C12        -4.0771   -8.5149    1.5618 C.2       1 <0>         0.3141
     17 C13        -5.1228   -9.0960    0.6978 C.2       1 <0>         0.4855
     18 N2         -5.1718  -10.4364    0.5372 N.am      1 <0>        -0.6362
     19 C14        -4.2411  -11.2255    1.1867 C.ar      1 <0>         0.1160
     20 C15        -4.2696  -12.6083    1.0368 C.ar      1 <0>        -0.1565
     21 C16        -3.3378  -13.3886    1.6867 C.ar      1 <0>        -0.1021
     22 C17        -2.3685  -12.8057    2.4925 C.ar      1 <0>        -0.1489
     23 C18        -2.3211  -11.4521    2.6548 C.ar      1 <0>        -0.0551
     24 C19        -3.2582  -10.6338    2.0030 C.ar      1 <0>         0.0680
     25 N3         -3.2071   -9.2986    2.1578 N.2       1 <0>        -0.4332
     26 O4         -5.9301   -8.3777    0.1381 O.2       1 <0>        -0.4954
     27 C20        -4.9567   -6.3846    2.6357 C.2       1 <0>         0.4969
     28 O5         -5.7813   -5.6198    2.1735 O.2       1 <0>        -0.4273
     29 C21        -4.9162   -6.6385    4.1031 C.2       1 <0>         0.4278
     30 O6         -4.0333   -7.3229    4.5761 O.2       1 <0>        -0.4757
     31 O7         -5.8593   -6.1086    4.9040 O.3       1 <0>        -0.3478
     32 C22        -5.7589   -6.3932    6.3008 C.3       1 <0>         0.0310
     33 H1          2.1232    1.3947    1.6816 H         1 <0>         0.0715
     34 H2          0.5446    1.7318    0.9314 H         1 <0>         0.0872
     35 H3          0.6410    1.3431    2.6658 H         1 <0>         0.0874
     36 H4         -1.4564    0.9181    1.7631 H         1 <0>         0.1040
     37 H5         -3.7014   -0.0733    1.6666 H         1 <0>         0.1016
     38 H6         -3.9826   -2.4596    1.1588 H         1 <0>         0.1206
     39 H7          0.2758   -2.8942    0.8230 H         1 <0>         0.1173
     40 H8         -5.0207  -13.0694    0.4126 H         1 <0>         0.1217
     41 H9         -3.3619  -14.4619    1.5688 H         1 <0>         0.1201
     42 H10        -1.6452  -13.4302    2.9957 H         1 <0>         0.1218
     43 H11        -1.5632  -11.0097    3.2844 H         1 <0>         0.1360
     44 H12        -5.8136   -7.4706    6.4569 H         1 <0>         0.0487
     45 H13        -4.8081   -6.0190    6.6804 H         1 <0>         0.0536
     46 H14        -6.5782   -5.9073    6.8305 H         1 <0>         0.0880
     47 H15        -5.8509  -10.8396   -0.0258 H         1 <0>         0.4022
@<TRIPOS>BOND
     1    1    2 1
     2    1   33 1
     3    1   34 1
     4    1   35 1
     5    2    3 2
     6    2    4 1
     7    4    9 ar
     8    4    5 ar
     9    5    6 ar
    10    5   36 1
    11    6    7 ar
    12    6   37 1
    13    7    8 ar
    14    7   38 1
    15    8    9 ar
    16    8   10 1
    17    9   39 1
    18   10   11 2
    19   11   12 1
    20   11   13 1
    21   13   14 1
    22   13   15 2
    23   15   16 1
    24   15   27 1
    25   16   25 2
    26   16   17 1
    27   17   18 am
    28   17   26 2
    29   18   19 1
    30   18   47 1
    31   19   24 ar
    32   19   20 ar
    33   20   21 ar
    34   20   40 1
    35   21   22 ar
    36   21   41 1
    37   22   23 ar
    38   22   42 1
    39   23   24 ar
    40   23   43 1
    41   24   25 1
    42   27   28 2
    43   27   29 1
    44   29   30 2
    45   29   31 1
    46   31   32 1
    47   32   44 1
    48   32   45 1
    49   32   46 1
@<TRIPOS>MOLECULE
ZINC16958043
   47    49     0     0     0
SMALL
USER_CHARGES
methyl (3S)-5-(3-acetylanilino)-2,4,5-trioxo-3-(3-oxo-4H-quinoxalin-2-yl)pentanoate
@<TRIPOS>ATOM
      1 C1          5.1044    8.4654   -0.6979 C.3       1 <0>        -0.2025
      2 C2          3.8092    7.7028   -0.8080 C.2       1 <0>         0.3981
      3 O1          2.8431    8.2205   -1.3263 O.2       1 <0>        -0.4652
      4 C3          3.7171    6.3296   -0.2864 C.ar      1 <0>        -0.1606
      5 C4          4.8300    5.7297    0.3126 C.ar      1 <0>        -0.1095
      6 C5          4.7401    4.4428    0.8007 C.ar      1 <0>        -0.1116
      7 C6          3.5511    3.7432    0.7059 C.ar      1 <0>        -0.0954
      8 C7          2.4399    4.3271    0.1075 C.ar      1 <0>         0.1669
      9 C8          2.5178    5.6200   -0.3870 C.ar      1 <0>        -0.0997
     10 N1          1.2432    3.6127    0.0096 N.am      1 <0>        -0.6927
     11 C9          1.2683    2.2768   -0.1669 C.2       1 <0>         0.4695
     12 O2          2.3266    1.7068   -0.3367 O.2       1 <0>        -0.4567
     13 C10        -0.0026    1.4997   -0.1537 C.2       1 <0>         0.3763
     14 O3         -1.0559    2.0675    0.0103 O.3       1 <0>        -0.4491
     15 C11         0.0255    0.0059   -0.3510 C.2       1 <0>        -0.4019
     16 C12        -1.2537   -0.4375   -1.0128 C.ar      1 <0>         0.1459
     17 C13        -1.4198   -1.8376   -1.4180 C.ar      1 <0>         0.4622
     18 O4         -0.5295   -2.6453   -1.2230 O.3       1 <0>        -0.5948
     19 N2         -2.5750   -2.2215   -2.0040 N.ar      1 <0>        -0.6769
     20 C14        -3.5619   -1.2799   -2.2161 C.ar      1 <0>         0.1462
     21 C15        -4.7607   -1.6423   -2.8233 C.ar      1 <0>        -0.1545
     22 C16        -5.7385   -0.6941   -3.0294 C.ar      1 <0>        -0.1230
     23 C17        -5.5382    0.6227   -2.6354 C.ar      1 <0>        -0.2083
     24 C18        -4.3712    1.0006   -2.0389 C.ar      1 <0>        -0.0654
     25 C19        -3.3585    0.0543   -1.8172 C.ar      1 <0>        -0.0088
     26 N3         -2.2057    0.4247   -1.2276 N.ar      1 <0>        -0.4840
     27 C20         0.1615   -0.6750    0.9865 C.2       1 <0>         0.4145
     28 O5         -0.8229   -1.0605    1.5707 O.2       1 <0>        -0.4780
     29 C21         1.5107   -0.8728    1.5884 C.2       1 <0>         0.4158
     30 O6          2.4990   -0.4857    1.0019 O.2       1 <0>        -0.4504
     31 O7          1.6321   -1.4809    2.7830 O.3       1 <0>        -0.3606
     32 C22         2.9764   -1.6395    3.3084 C.3       1 <0>         0.0293
     33 H1          5.8592    7.8366   -0.2029 H         1 <0>         0.0855
     34 H2          4.9430    9.3787   -0.1065 H         1 <0>         0.0911
     35 H3          5.4564    8.7374   -1.7039 H         1 <0>         0.0918
     36 H4          5.7593    6.2741    0.3931 H         1 <0>         0.1277
     37 H5          5.6003    3.9814    1.2628 H         1 <0>         0.1275
     38 H6          3.4865    2.7375    1.0942 H         1 <0>         0.1431
     39 H7          1.6548    6.0767   -0.8485 H         1 <0>         0.1335
     40 H8          0.2805    4.1406    0.0766 H         1 <0>         0.4387
     41 H9         -4.9241   -2.6643   -3.1318 H         1 <0>         0.1011
     42 H10        -6.6682   -0.9768   -3.5008 H         1 <0>         0.0941
     43 H11        -6.3144    1.3547   -2.8030 H         1 <0>         0.0932
     44 H12        -4.2267    2.0274   -1.7368 H         1 <0>         0.1009
     45 H13         2.9316   -2.1477    4.2829 H         1 <0>         0.0871
     46 H14         3.4409   -0.6501    3.4318 H         1 <0>         0.0524
     47 H15         3.5750   -2.2409    2.6084 H         1 <0>         0.0572
@<TRIPOS>BOND
     1    1    2 1
     2    1   33 1
     3    1   34 1
     4    1   35 1
     5    2    3 2
     6    2    4 1
     7    4    9 ar
     8    4    5 ar
     9    5    6 ar
    10    5   36 1
    11    6    7 ar
    12    6   37 1
    13    7    8 ar
    14    7   38 1
    15    8    9 ar
    16    8   10 1
    17    9   39 1
    18   10   11 am
    19   10   40 1
    20   11   12 2
    21   11   13 1
    22   13   14 1
    23   13   15 2
    24   15   16 1
    25   15   27 1
    26   16   26 ar
    27   16   17 ar
    28   17   18 1
    29   17   19 ar
    30   19   20 ar
    31   20   25 ar
    32   20   21 ar
    33   21   22 ar
    34   21   41 1
    35   22   23 ar
    36   22   42 1
    37   23   24 ar
    38   23   43 1
    39   24   25 ar
    40   24   44 1
    41   25   26 ar
    42   27   28 2
    43   27   29 1
    44   29   30 2
    45   29   31 1
    46   31   32 1
    47   32   45 1
    48   32   46 1
    49   32   47 1
@<TRIPOS>MOLECULE
ZINC16957895
   58    60     0     0     0
SMALL
USER_CHARGES

@<TRIPOS>ATOM
      1 C1          0.6889    2.9102    1.4502 C.3       1 <0>        -0.1400
      2 C2          0.5205    1.6567    0.5893 C.3       1 <0>        -0.0922
      3 C3          1.0776    0.4644    1.3236 C.ar      1 <0>        -0.0654
      4 C4          2.3992    0.1019    1.1513 C.ar      1 <0>        -0.1154
      5 C5          2.9113   -0.9916    1.8251 C.ar      1 <0>        -0.1244
      6 C6          2.1027   -1.7262    2.6735 C.ar      1 <0>        -0.1136
      7 C7          0.7806   -1.3694    2.8504 C.ar      1 <0>        -0.0790
      8 C8          0.2640   -0.2679    2.1790 C.ar      1 <0>         0.1536
      9 N1         -1.0717    0.0994    2.3601 N.am      1 <0>        -0.6681
     10 C9         -1.9249    0.0741    1.3170 C.2       1 <0>         0.5262
     11 O1         -1.5552   -0.3500    0.2397 O.2       1 <0>        -0.5163
     12 C10        -3.3115    0.5627    1.4835 C.2       1 <0>         0.2976
     13 O2         -3.7474    0.9555    2.6993 O.3       1 <0>        -0.6501
     14 C11        -4.1611    0.6171    0.3935 C.2       1 <0>        -0.3954
     15 C12        -5.4961    1.2300    0.5287 C.2       1 <0>         0.2784
     16 C13        -6.6961    0.3750    0.6033 C.2       1 <0>         0.4907
     17 N2         -7.9094    0.9559    0.7275 N.am      1 <0>        -0.6310
     18 C14        -7.9918    2.3339    0.7811 C.ar      1 <0>         0.1275
     19 C15        -9.2293    2.9568    0.9093 C.ar      1 <0>        -0.1581
     20 C16        -9.3033    4.3319    0.9624 C.ar      1 <0>        -0.0851
     21 C17        -8.1509    5.1040    0.8889 C.ar      1 <0>        -0.1481
     22 C18        -6.9267    4.5163    0.7626 C.ar      1 <0>        -0.0454
     23 C19        -6.8227    3.1162    0.7066 C.ar      1 <0>         0.0516
     24 N3         -5.6158    2.5365    0.5881 N.2       1 <0>        -0.4095
     25 O3         -6.5944   -0.8367    0.5533 O.2       1 <0>        -0.4983
     26 C20        -3.7341    0.0644   -0.8989 C.2       1 <0>         0.4693
     27 O4         -3.5699   -1.1324   -1.0231 O.2       1 <0>        -0.4005
     28 C21        -3.5023    0.9732   -2.0586 C.2       1 <0>         0.4192
     29 O5         -3.5748    2.1749   -1.9113 O.2       1 <0>        -0.4651
     30 O6         -3.2127    0.4599   -3.2684 O.3       1 <0>        -0.3427
     31 C22        -3.0028    1.3887   -4.3339 C.3       1 <0>         0.0297
     32 C23        -0.0996   -2.1703    3.7750 C.3       1 <0>        -0.0618
     33 C24        -0.1704   -3.6180    3.2849 C.3       1 <0>        -0.1397
     34 C25         0.4836   -2.1386    5.1891 C.3       1 <0>        -0.1396
     35 H1          1.7474    3.0713    1.6544 H         1 <0>         0.0500
     36 H2          0.2860    3.7725    0.9191 H         1 <0>         0.0569
     37 H3          0.1533    2.7798    2.3906 H         1 <0>         0.0556
     38 H4         -0.5380    1.4956    0.3852 H         1 <0>         0.0824
     39 H5          1.0562    1.7870   -0.3510 H         1 <0>         0.0667
     40 H6          3.0332    0.6730    0.4894 H         1 <0>         0.1199
     41 H7          3.9449   -1.2731    1.6883 H         1 <0>         0.1185
     42 H8          2.5058   -2.5799    3.1979 H         1 <0>         0.1202
     43 H9         -1.3850    0.3725    3.2365 H         1 <0>         0.4171
     44 H10       -10.1301    2.3639    0.9667 H         1 <0>         0.1273
     45 H11       -10.2651    4.8131    1.0616 H         1 <0>         0.1266
     46 H12        -8.2251    6.1806    0.9319 H         1 <0>         0.1274
     47 H13        -6.0377    5.1268    0.7057 H         1 <0>         0.1383
     48 H14        -3.9028    1.9866   -4.4773 H         1 <0>         0.0555
     49 H15        -2.1673    2.0433   -4.0859 H         1 <0>         0.0575
     50 H16        -2.7782    0.8445   -5.2512 H         1 <0>         0.0961
     51 H17        -1.1014   -1.7409    3.7854 H         1 <0>         0.0829
     52 H18        -0.8070   -4.1973    3.9536 H         1 <0>         0.0562
     53 H19        -0.5859   -3.6406    2.2774 H         1 <0>         0.0583
     54 H20         0.8314   -4.0474    3.2744 H         1 <0>         0.0533
     55 H21         0.5340   -1.1072    5.5382 H         1 <0>         0.0545
     56 H22        -0.1530   -2.7179    5.8578 H         1 <0>         0.0566
     57 H23         1.4854   -2.5680    5.1786 H         1 <0>         0.0542
     58 H24        -8.7117    0.4130    0.7781 H         1 <0>         0.4089
@<TRIPOS>BOND
     1    1    2 1
     2    1   35 1
     3    1   36 1
     4    1   37 1
     5    2    3 1
     6    2   38 1
     7    2   39 1
     8    3    8 ar
     9    3    4 ar
    10    4    5 ar
    11    4   40 1
    12    5    6 ar
    13    5   41 1
    14    6    7 ar
    15    6   42 1
    16    7    8 ar
    17    7   32 1
    18    8    9 1
    19    9   10 am
    20    9   43 1
    21   10   11 2
    22   10   12 1
    23   12   13 1
    24   12   14 2
    25   14   15 1
    26   14   26 1
    27   15   24 2
    28   15   16 1
    29   16   17 am
    30   16   25 2
    31   17   18 1
    32   17   58 1
    33   18   23 ar
    34   18   19 ar
    35   19   20 ar
    36   19   44 1
    37   20   21 ar
    38   20   45 1
    39   21   22 ar
    40   21   46 1
    41   22   23 ar
    42   22   47 1
    43   23   24 1
    44   26   27 2
    45   26   28 1
    46   28   29 2
    47   28   30 1
    48   30   31 1
    49   31   48 1
    50   31   49 1
    51   31   50 1
    52   32   33 1
    53   32   34 1
    54   32   51 1
    55   33   52 1
    56   33   53 1
    57   33   54 1
    58   34   55 1
    59   34   56 1
    60   34   57 1
@<TRIPOS>MOLECULE
ZINC16957895
   59    61     0     0     0
SMALL
USER_CHARGES
methyl (3R)-5-[(2-ethyl-6-isopropyl-phenyl)amino]-3-(3-hydroxyquinoxalin-2-yl)-2,4,5-trioxo-pentanoate
@<TRIPOS>ATOM
      1 C1         -3.3803    2.9642    3.3272 C.3       1 <0>        -0.1532
      2 C2         -4.4650    1.9125    3.5689 C.3       1 <0>        -0.1003
      3 C3         -5.7345    2.5930    4.0120 C.ar      1 <0>        -0.0534
      4 C4         -5.7373    3.9493    4.2727 C.ar      1 <0>        -0.1139
      5 C5         -6.9017    4.5744    4.6794 C.ar      1 <0>        -0.0876
      6 C6         -8.0672    3.8443    4.8273 C.ar      1 <0>        -0.1100
      7 C7         -8.0730    2.4891    4.5629 C.ar      1 <0>        -0.0488
      8 C8         -6.9034    1.8566    4.1592 C.ar      1 <0>         0.0696
      9 N1         -6.9041    0.4847    3.8965 N.am      1 <0>        -0.5625
     10 C9         -6.6542    0.0372    2.6500 C.2       1 <0>         0.3010
     11 O1         -6.5485    0.8246    1.7321 O.2       1 <0>        -0.1710
     12 C10        -6.5078   -1.4238    2.3986 C.2       1 <0>         0.3516
     13 O2         -6.6132   -2.2073    3.3118 O.2       1 <0>        -0.4327
     14 C11        -6.2282   -1.9242    1.0049 C.2       1 <0>        -0.3620
     15 H1         -6.4664    0.3419    1.4581 H         1 <0>         0.4299
     16 C12        -6.1259   -3.4277    1.0220 C.ar      1 <0>         0.2274
     17 C13        -4.9371   -4.0486    0.6058 C.ar      1 <0>         0.3175
     18 N2         -4.8269   -5.3616    0.6204 N.ar      1 <0>        -0.4524
     19 C14        -5.8620   -6.1090    1.0231 C.ar      1 <0>         0.0968
     20 C15        -5.7781   -7.5116    1.0425 C.ar      1 <0>        -0.0864
     21 C16        -6.8464   -8.2460    1.4572 C.ar      1 <0>        -0.0980
     22 C17        -8.0266   -7.6271    1.8646 C.ar      1 <0>        -0.1044
     23 C18        -8.1440   -6.2711    1.8586 C.ar      1 <0>        -0.0775
     24 C19        -7.0619   -5.4796    1.4368 C.ar      1 <0>         0.0758
     25 N3         -7.1498   -4.1438    1.4205 N.ar      1 <0>        -0.4007
     26 O3         -3.8921   -3.2907    0.1918 O.3       1 <0>        -0.4617
     27 C20        -6.1441   -0.7544    0.0586 C.2       1 <0>         0.3706
     28 O4         -6.2956    0.3700    0.4732 O.3       1 <0>        -0.5025
     29 C21        -5.8739   -0.9848   -1.3892 C.2       1 <0>         0.4363
     30 O5         -5.7220   -2.1136   -1.8055 O.2       1 <0>        -0.4545
     31 O6         -5.8043    0.0597   -2.2353 O.3       1 <0>        -0.3413
     32 C22        -5.5443   -0.2398   -3.6321 C.3       1 <0>         0.0318
     33 C23        -9.3449    1.6958    4.7176 C.3       1 <0>        -0.0655
     34 C24        -9.8365    1.7968    6.1630 C.3       1 <0>        -0.1457
     35 C25       -10.4127    2.2553    3.7754 C.3       1 <0>        -0.1461
     36 H2         -3.7614    3.7308    2.6526 H         1 <0>         0.0656
     37 H3         -3.1001    3.4218    4.2760 H         1 <0>         0.0626
     38 H4         -2.5066    2.4891    2.8809 H         1 <0>         0.0647
     39 H5         -4.1341    1.2207    4.3435 H         1 <0>         0.0830
     40 H6         -4.6503    1.3630    2.6460 H         1 <0>         0.0714
     41 H7         -4.8291    4.5224    4.1585 H         1 <0>         0.1415
     42 H8         -6.9012    5.6352    4.8821 H         1 <0>         0.1347
     43 H9         -8.9749    4.3357    5.1450 H         1 <0>         0.1355
     44 H10        -7.0847   -0.1458    4.6111 H         1 <0>         0.4358
     45 H11        -4.8698   -8.0049    0.7292 H         1 <0>         0.1394
     46 H12        -6.7783   -9.3238    1.4711 H         1 <0>         0.1358
     47 H13        -8.8602   -8.2320    2.1893 H         1 <0>         0.1355
     48 H14        -9.0651   -5.8053    2.1764 H         1 <0>         0.1387
     49 H15        -3.2829   -3.0402    0.8998 H         1 <0>         0.3979
     50 H16        -5.5132    0.6883   -4.2030 H         1 <0>         0.1054
     51 H17        -4.5871   -0.7536   -3.7214 H         1 <0>         0.0668
     52 H18        -6.3373   -0.8789   -4.0203 H         1 <0>         0.0647
     53 H19        -9.1540    0.6514    4.4709 H         1 <0>         0.0734
     54 H20       -10.0275    2.8413    6.4096 H         1 <0>         0.0627
     55 H21       -10.7565    1.2230    6.2748 H         1 <0>         0.0651
     56 H22        -9.0758    1.3982    6.8341 H         1 <0>         0.0575
     57 H23       -10.0625    2.1833    2.7458 H         1 <0>         0.0577
     58 H24       -11.3327    1.6816    3.8873 H         1 <0>         0.0651
     59 H25       -10.6036    3.2999    4.0221 H         1 <0>         0.0631
@<TRIPOS>BOND
     1    1    2 1
     2    1   36 1
     3    1   37 1
     4    1   38 1
     5    2    3 1
     6    2   39 1
     7    2   40 1
     8    3    8 ar
     9    3    4 ar
    10    4    5 ar
    11    4   41 1
    12    5    6 ar
    13    5   42 1
    14    6    7 ar
    15    6   43 1
    16    7    8 ar
    17    7   33 1
    18    8    9 1
    19    9   10 am
    20    9   44 1
    21   10   11 2
    22   10   12 1
    23   12   14 1
    24   12   13 2
    25   14   16 1
    26   14   27 2
    27   15   28 1
    28   16   25 ar
    29   16   17 ar
    30   17   18 ar
    31   17   26 1
    32   18   19 ar
    33   19   24 ar
    34   19   20 ar
    35   20   21 ar
    36   20   45 1
    37   21   22 ar
    38   21   46 1
    39   22   23 ar
    40   22   47 1
    41   23   24 ar
    42   23   48 1
    43   24   25 ar
    44   26   49 1
    45   27   29 1
    46   27   28 1
    47   29   30 2
    48   29   31 1
    49   31   32 1
    50   32   50 1
    51   32   51 1
    52   32   52 1
    53   33   34 1
    54   33   35 1
    55   33   53 1
    56   34   54 1
    57   34   55 1
    58   34   56 1
    59   35   57 1
    60   35   58 1
    61   35   59 1
@<TRIPOS>MOLECULE
ZINC16957895
   57    59     0     0     0
SMALL
USER_CHARGES
methyl (3S)-5-(2-ethyl-6-isopropyl-anilino)-2,4,5-trioxo-3-(3-oxo-4H-quinoxalin-2-yl)pentanoate
@<TRIPOS>ATOM
      1 C1         -0.1141   -1.9206   -2.9007 C.3       1 <0>        -0.1353
      2 C2          0.5606   -0.8449   -3.7542 C.3       1 <0>        -0.1189
      3 C3         -0.4907   -0.0567   -4.4923 C.ar      1 <0>        -0.0661
      4 C4         -1.7288   -0.6170   -4.7387 C.ar      1 <0>        -0.1175
      5 C5         -2.6938    0.1053   -5.4162 C.ar      1 <0>        -0.1370
      6 C6         -2.4230    1.3905   -5.8500 C.ar      1 <0>        -0.1148
      7 C7         -1.1895    1.9591   -5.6017 C.ar      1 <0>        -0.0911
      8 C8         -0.2154    1.2340   -4.9261 C.ar      1 <0>         0.1660
      9 N1          1.0357    1.8038   -4.6786 N.am      1 <0>        -0.6965
     10 C9          1.5123    1.8625   -3.4193 C.2       1 <0>         0.4694
     11 O1          0.8131    1.5171   -2.4890 O.2       1 <0>        -0.4529
     12 C10         2.8971    2.3513   -3.1690 C.2       1 <0>         0.3767
     13 O2          3.5928    2.6950   -4.0947 O.3       1 <0>        -0.4511
     14 C11         3.4300    2.4170   -1.7609 C.2       1 <0>        -0.4035
     15 C12         4.4317    3.5379   -1.6547 C.ar      1 <0>         0.1475
     16 C13         5.0091    3.8808   -0.3504 C.ar      1 <0>         0.4619
     17 O3          4.6837    3.2653    0.6487 O.3       1 <0>        -0.5946
     18 N2          5.9103    4.8843   -0.2720 N.ar      1 <0>        -0.6777
     19 C14         6.2527    5.5664   -1.4223 C.ar      1 <0>         0.1457
     20 C15         7.1731    6.6094   -1.3737 C.ar      1 <0>        -0.1547
     21 C16         7.5074    7.2826   -2.5281 C.ar      1 <0>        -0.1238
     22 C17         6.9328    6.9289   -3.7423 C.ar      1 <0>        -0.2086
     23 C18         6.0286    5.9102   -3.8136 C.ar      1 <0>        -0.0661
     24 C19         5.6704    5.2079   -2.6524 C.ar      1 <0>        -0.0077
     25 N3          4.7775    4.2019   -2.7200 N.ar      1 <0>        -0.4849
     26 C20         4.0986    1.1114   -1.4155 C.2       1 <0>         0.4139
     27 O4          5.2922    0.9889   -1.5540 O.2       1 <0>        -0.4800
     28 C21         3.2869   -0.0289   -0.9027 C.2       1 <0>         0.4137
     29 O5          2.0885    0.0941   -0.7636 O.2       1 <0>        -0.4457
     30 O6          3.8841   -1.1950   -0.5942 O.3       1 <0>        -0.3608
     31 C22         3.0317   -2.2617   -0.1005 C.3       1 <0>         0.0287
     32 C23        -0.8977    3.3619   -6.0687 C.3       1 <0>        -0.0606
     33 C24        -1.0440    3.4337   -7.5900 C.3       1 <0>        -0.1393
     34 C25        -1.8834    4.3324   -5.4152 C.3       1 <0>        -0.1394
     35 H1          0.6532   -2.4959   -2.3620 H         1 <0>         0.0496
     36 H2         -0.6902   -2.5961   -3.5502 H         1 <0>         0.0432
     37 H3         -0.7904   -1.4432   -2.1763 H         1 <0>         0.0594
     38 H4          1.1367   -0.1694   -3.1047 H         1 <0>         0.1173
     39 H5          1.2369   -1.3223   -4.4786 H         1 <0>         0.0602
     40 H6         -1.9436   -1.6202   -4.4014 H         1 <0>         0.1210
     41 H7         -3.6611   -0.3352   -5.6076 H         1 <0>         0.1131
     42 H8         -3.1790    1.9518   -6.3789 H         1 <0>         0.1152
     43 H9          1.6320    2.2046   -5.5115 H         1 <0>         0.4313
     44 H10         7.6238    6.8904   -0.4334 H         1 <0>         0.1006
     45 H11         8.2215    8.0918   -2.4888 H         1 <0>         0.0937
     46 H12         7.2051    7.4657   -4.6390 H         1 <0>         0.0927
     47 H13         5.5881    5.6443   -4.7632 H         1 <0>         0.1004
     48 H14         3.6431   -3.1513    0.1113 H         1 <0>         0.0861
     49 H15         2.2759   -2.5087   -0.8607 H         1 <0>         0.0530
     50 H16         2.5304   -1.9332    0.8219 H         1 <0>         0.0568
     51 H17         0.1310    3.6224   -5.7791 H         1 <0>         0.0845
     52 H18        -0.8310    4.4576   -7.9309 H         1 <0>         0.0553
     53 H19        -2.0709    3.1592   -7.8729 H         1 <0>         0.0524
     54 H20        -0.3352    2.7359   -8.0598 H         1 <0>         0.0540
     55 H21        -1.6704    5.3563   -5.7561 H         1 <0>         0.0549
     56 H22        -1.7782    4.2807   -4.3215 H         1 <0>         0.0593
     57 H23        -2.9103    4.0579   -5.6982 H         1 <0>         0.0513
@<TRIPOS>BOND
     1    1    2 1
     2    1   35 1
     3    1   36 1
     4    1   37 1
     5    2    3 1
     6    2   38 1
     7    2   39 1
     8    3    8 ar
     9    3    4 ar
    10    4    5 ar
    11    4   40 1
    12    5    6 ar
    13    5   41 1
    14    6    7 ar
    15    6   42 1
    16    7    8 ar
    17    7   32 1
    18    8    9 1
    19    9   10 am
    20    9   43 1
    21   10   11 2
    22   10   12 1
    23   12   13 1
    24   12   14 2
    25   14   15 1
    26   14   26 1
    27   15   25 ar
    28   15   16 ar
    29   16   17 1
    30   16   18 ar
    31   18   19 ar
    32   19   24 ar
    33   19   20 ar
    34   20   21 ar
    35   20   44 1
    36   21   22 ar
    37   21   45 1
    38   22   23 ar
    39   22   46 1
    40   23   24 ar
    41   23   47 1
    42   24   25 ar
    43   26   27 2
    44   26   28 1
    45   28   29 2
    46   28   30 1
    47   30   31 1
    48   31   48 1
    49   31   49 1
    50   31   50 1
    51   32   33 1
    52   32   34 1
    53   32   51 1
    54   33   52 1
    55   33   53 1
    56   33   54 1
    57   34   55 1
    58   34   56 1
    59   34   57 1
@<TRIPOS>MOLECULE
ZINC16957895
   57    59     0     0     0
SMALL
USER_CHARGES

@<TRIPOS>ATOM
      1 C1          0.5811   -2.8587    0.3701 C.3       1 <0>        -0.1293
      2 C2         -0.1573   -2.5106    1.6641 C.3       1 <0>        -0.1322
      3 C3          0.6999   -1.5967    2.5014 C.ar      1 <0>        -0.0525
      4 C4          2.0719   -1.7553    2.5142 C.ar      1 <0>        -0.1179
      5 C5          2.8592   -0.9170    3.2818 C.ar      1 <0>        -0.1361
      6 C6          2.2764    0.0829    4.0392 C.ar      1 <0>        -0.1173
      7 C7          0.9054    0.2471    4.0310 C.ar      1 <0>        -0.0929
      8 C8          0.1116   -0.5902    3.2567 C.ar      1 <0>         0.1553
      9 N1         -1.2755   -0.4232    3.2416 N.am      1 <0>        -0.6580
     10 C9         -1.9362   -0.3788    2.0678 C.2       1 <0>         0.4998
     11 O1         -1.3242   -0.4677    1.0230 O.2       1 <0>        -0.5017
     12 C10        -3.4186   -0.2203    2.0522 C.2       1 <0>         0.4068
     13 C11        -4.2824   -1.4009    1.9117 C.2       1 <0>        -0.3357
     14 C12        -3.6879   -2.7534    1.8948 C.ar      1 <0>         0.1820
     15 C13        -3.3879   -3.4061    3.1149 C.ar      1 <0>         0.4194
     16 O2         -3.6477   -2.7867    4.2914 O.3       1 <0>        -0.6836
     17 N2         -2.8587   -4.6110    3.1129 N.ar      1 <0>        -0.5944
     18 C14        -2.6016   -5.2240    1.9494 C.ar      1 <0>         0.1567
     19 C15        -2.0376   -6.5100    1.9217 C.ar      1 <0>        -0.1357
     20 C16        -1.7859   -7.1124    0.7268 C.ar      1 <0>        -0.1123
     21 C17        -2.0798   -6.4714   -0.4751 C.ar      1 <0>        -0.1962
     22 C18        -2.6268   -5.2252   -0.4879 C.ar      1 <0>        -0.0500
     23 C19        -2.9010   -4.5712    0.7268 C.ar      1 <0>        -0.0152
     24 N3         -3.4439   -3.3497    0.7408 N.ar      1 <0>        -0.4377
     25 C20        -5.6494   -1.2462    1.7956 C.2       1 <0>         0.3083
     26 O3         -6.1833   -0.0093    1.7000 O.3       1 <0>        -0.6115
     27 C21        -6.5294   -2.4353    1.7760 C.2       1 <0>         0.4645
     28 O4         -6.0629   -3.5391    1.9721 O.2       1 <0>        -0.4834
     29 O5         -7.8485   -2.2935    1.5406 O.3       1 <0>        -0.3447
     30 C22        -8.6385   -3.4843    1.5362 C.3       1 <0>         0.0321
     31 O6         -3.9122    0.8845    2.1555 O.2       1 <0>        -0.4691
     32 C23         0.2713    1.3368    4.8566 C.3       1 <0>        -0.0608
     33 C24         0.6083    1.1196    6.3331 C.3       1 <0>        -0.1395
     34 C25         0.8085    2.6965    4.4055 C.3       1 <0>        -0.1359
     35 H1          1.6144   -3.1184    0.6000 H         1 <0>         0.0401
     36 H2          0.0919   -3.7058   -0.1107 H         1 <0>         0.0524
     37 H3          0.5629   -1.9999   -0.3009 H         1 <0>         0.0508
     38 H4         -1.0952   -2.0098    1.4238 H         1 <0>         0.1331
     39 H5         -0.3656   -3.4244    2.2207 H         1 <0>         0.0648
     40 H6          2.5302   -2.5353    1.9243 H         1 <0>         0.1216
     41 H7          3.9318   -1.0434    3.2902 H         1 <0>         0.1132
     42 H8          2.8942    0.7358    4.6378 H         1 <0>         0.1158
     43 H9         -1.7630   -0.3394    4.0760 H         1 <0>         0.4162
     44 H10        -1.8041   -7.0192    2.8451 H         1 <0>         0.1082
     45 H11        -1.3518   -8.1012    0.7103 H         1 <0>         0.1002
     46 H12        -1.8703   -6.9704   -1.4097 H         1 <0>         0.1002
     47 H13        -2.8493   -4.7405   -1.4270 H         1 <0>         0.1075
     48 H14        -8.2738   -4.1594    0.7621 H         1 <0>         0.0499
     49 H15        -8.5653   -3.9724    2.5080 H         1 <0>         0.0505
     50 H16        -9.6790   -3.2293    1.3351 H         1 <0>         0.0874
     51 H17        -0.8102    1.3110    4.7231 H         1 <0>         0.0807
     52 H18         0.1496    1.9078    6.9302 H         1 <0>         0.0543
     53 H19         0.2255    0.1510    6.6545 H         1 <0>         0.0580
     54 H20         1.6898    1.1454    6.4666 H         1 <0>         0.0525
     55 H21         0.5685    2.8512    3.3535 H         1 <0>         0.0557
     56 H22         0.3499    3.4847    5.0026 H         1 <0>         0.0539
     57 H23         1.8900    2.7223    4.5389 H         1 <0>         0.0519
@<TRIPOS>BOND
     1    1    2 1
     2    1   35 1
     3    1   36 1
     4    1   37 1
     5    2    3 1
     6    2   38 1
     7    2   39 1
     8    3    8 ar
     9    3    4 ar
    10    4    5 ar
    11    4   40 1
    12    5    6 ar
    13    5   41 1
    14    6    7 ar
    15    6   42 1
    16    7    8 ar
    17    7   32 1
    18    8    9 1
    19    9   10 am
    20    9   43 1
    21   10   11 2
    22   10   12 1
    23   12   13 1
    24   12   31 2
    25   13   14 1
    26   13   25 2
    27   14   24 ar
    28   14   15 ar
    29   15   16 1
    30   15   17 ar
    31   17   18 ar
    32   18   23 ar
    33   18   19 ar
    34   19   20 ar
    35   19   44 1
    36   20   21 ar
    37   20   45 1
    38   21   22 ar
    39   21   46 1
    40   22   23 ar
    41   22   47 1
    42   23   24 ar
    43   25   26 1
    44   25   27 1
    45   27   28 2
    46   27   29 1
    47   29   30 1
    48   30   48 1
    49   30   49 1
    50   30   50 1
    51   32   33 1
    52   32   34 1
    53   32   51 1
    54   33   52 1
    55   33   53 1
    56   33   54 1
    57   34   55 1
    58   34   56 1
    59   34   57 1
@<TRIPOS>MOLECULE
ZINC16958151
   57    60     0     0     0
SMALL
USER_CHARGES

@<TRIPOS>ATOM
      1 C1         -4.5333   -0.4922    0.9166 C.3       1 <0>        -0.1036
      2 C2         -3.8650   -1.8238    0.6907 C.ar      1 <0>        -0.1248
      3 C3         -2.7809   -1.9156   -0.1631 C.ar      1 <0>        -0.1042
      4 C4         -2.1660   -3.1343   -0.3724 C.ar      1 <0>        -0.1508
      5 C5         -2.6377   -4.2690    0.2759 C.ar      1 <0>         0.1609
      6 C6         -3.7271   -4.1731    1.1329 C.ar      1 <0>        -0.1216
      7 C7         -4.3336   -2.9502    1.3420 C.ar      1 <0>        -0.1014
      8 N1         -2.0184   -5.5036    0.0661 N.am      1 <0>        -0.6639
      9 C8         -1.9170   -6.3873    1.0786 C.2       1 <0>         0.5218
     10 O1         -2.4378   -6.1464    2.1499 O.2       1 <0>        -0.5258
     11 C9         -1.1714   -7.6516    0.8858 C.2       1 <0>         0.2627
     12 O2         -0.5321   -7.8871   -0.2795 O.3       1 <0>        -0.6084
     13 C10        -1.1298   -8.5907    1.8988 C.2       1 <0>        -0.3496
     14 C11        -0.4878   -9.9005    1.6658 C.ar      1 <0>         0.2010
     15 C12        -0.4944  -10.8803    2.6890 C.ar      1 <0>         0.3902
     16 N2          0.0737  -12.0502    2.4927 N.ar      1 <0>        -0.5907
     17 C13         0.6626  -12.3175    1.3179 C.ar      1 <0>         0.1067
     18 C14         1.2730  -13.5592    1.0896 C.ar      1 <0>        -0.0737
     19 C15         1.8749  -13.8107   -0.1343 C.ar      1 <0>        -0.1809
     20 C16         1.8757  -12.8304   -1.1431 C.ar      1 <0>        -0.1285
     21 C17         1.2896  -11.6235   -0.9394 C.ar      1 <0>        -0.0741
     22 C18         0.6702  -11.3376    0.2925 C.ar      1 <0>         0.0394
     23 N3          0.0851  -10.1539    0.5018 N.ar      1 <0>        -0.4346
     24 C19         2.5197  -15.1166   -0.3799 C.2       1 <0>         0.4463
     25 O3          3.3866  -15.2167   -1.2262 O.2       1 <0>        -0.4748
     26 C20         2.1111  -16.3011    0.4029 C.ar      1 <0>        -0.1490
     27 C21         0.8472  -16.3486    0.9957 C.ar      1 <0>        -0.0672
     28 C22         0.4724  -17.4575    1.7251 C.ar      1 <0>        -0.1314
     29 C23         1.3454  -18.5213    1.8708 C.ar      1 <0>        -0.1013
     30 C24         2.5992  -18.4810    1.2863 C.ar      1 <0>        -0.1405
     31 C25         2.9849  -17.3811    0.5490 C.ar      1 <0>        -0.0718
     32 O4         -1.0888  -10.6107    3.8762 O.3       1 <0>        -0.6776
     33 C26        -1.7239   -8.2866    3.2068 C.2       1 <0>         0.5116
     34 O5         -2.8516   -8.6577    3.4626 O.2       1 <0>        -0.4294
     35 C27        -0.9423   -7.5219    4.2212 C.2       1 <0>         0.4510
     36 O6          0.1520   -7.0822    3.9382 O.2       1 <0>        -0.4954
     37 O7         -1.4514   -7.3198    5.4504 O.3       1 <0>        -0.3403
     38 C28        -0.6483   -6.5790    6.3714 C.3       1 <0>         0.0315
     39 H1         -4.0563    0.0163    1.7544 H         1 <0>         0.0623
     40 H2         -4.4384    0.1189    0.0189 H         1 <0>         0.0590
     41 H3         -5.5887   -0.6486    1.1397 H         1 <0>         0.0602
     42 H4         -2.4149   -1.0332   -0.6670 H         1 <0>         0.1180
     43 H5         -1.3197   -3.2053   -1.0396 H         1 <0>         0.1238
     44 H6         -4.0966   -5.0532    1.6382 H         1 <0>         0.1422
     45 H7         -5.1774   -2.8741    2.0117 H         1 <0>         0.1194
     46 H8         -1.6614   -5.7248   -0.8082 H         1 <0>         0.4205
     47 H9          1.2748  -14.3142    1.8618 H         1 <0>         0.1217
     48 H10         2.3487  -13.0406   -2.0910 H         1 <0>         0.1119
     49 H11         1.2983  -10.8808   -1.7235 H         1 <0>         0.1191
     50 H12         0.1651  -15.5187    0.8833 H         1 <0>         0.1444
     51 H13        -0.5046  -17.4955    2.1839 H         1 <0>         0.1276
     52 H14         1.0470  -19.3869    2.4437 H         1 <0>         0.1204
     53 H15         3.2755  -19.3148    1.4041 H         1 <0>         0.1214
     54 H16         3.9617  -17.3531    0.0893 H         1 <0>         0.1274
     55 H17        -0.4551   -5.5853    5.9674 H         1 <0>         0.0502
     56 H18        -1.1747   -6.4889    7.3216 H         1 <0>         0.0897
     57 H19         0.2975   -7.0978    6.5277 H         1 <0>         0.0528
@<TRIPOS>BOND
     1    1    2 1
     2    1   39 1
     3    1   40 1
     4    1   41 1
     5    2    7 ar
     6    2    3 ar
     7    3    4 ar
     8    3   42 1
     9    4    5 ar
    10    4   43 1
    11    5    6 ar
    12    5    8 1
    13    6    7 ar
    14    6   44 1
    15    7   45 1
    16    8    9 am
    17    8   46 1
    18    9   10 2
    19    9   11 1
    20   11   12 1
    21   11   13 2
    22   13   14 1
    23   13   33 1
    24   14   23 ar
    25   14   15 ar
    26   15   16 ar
    27   15   32 1
    28   16   17 ar
    29   17   22 ar
    30   17   18 ar
    31   18   19 ar
    32   18   47 1
    33   19   20 ar
    34   19   24 1
    35   20   21 ar
    36   20   48 1
    37   21   22 ar
    38   21   49 1
    39   22   23 ar
    40   24   25 2
    41   24   26 1
    42   26   31 ar
    43   26   27 ar
    44   27   28 ar
    45   27   50 1
    46   28   29 ar
    47   28   51 1
    48   29   30 ar
    49   29   52 1
    50   30   31 ar
    51   30   53 1
    52   31   54 1
    53   33   34 2
    54   33   35 1
    55   35   36 2
    56   35   37 1
    57   37   38 1
    58   38   55 1
    59   38   56 1
    60   38   57 1
