@<TRIPOS>MOLECULE
ZINC18118278
   22    23     0     0     0
SMALL
USER_CHARGES

@<TRIPOS>ATOM
      1 C1          0.0496    1.1063    0.6344 C.ar      1 <0>        -0.0815
      2 C2          0.8293    1.9861   -0.1610 C.ar      1 <0>         0.4075
      3 N1          0.4596    3.2355   -0.3488 N.am      1 <0>        -0.4279
      4 C3          1.2172    4.0533   -1.1085 C.2       1 <0>         0.4679
      5 O1          0.8827    5.2069   -1.2858 O.2       1 <0>        -0.1860
      6 C4          2.4726    3.5290   -1.7307 C.2       1 <0>         0.4680
      7 O2          3.1640    4.2540   -2.4164 O.2       1 <0>        -0.1859
      8 N2          2.8311    2.2450   -1.5240 N.am      1 <0>        -0.4280
      9 C5          2.0762    1.4654   -0.7789 C.ar      1 <0>         0.4074
     10 C6          2.4324    0.1113   -0.5464 C.ar      1 <0>        -0.0816
     11 C7          1.6375   -0.6655    0.2237 C.ar      1 <0>         0.1372
     12 C8          0.4549   -0.1716    0.8097 C.ar      1 <0>         0.1371
     13 N3         -0.3677   -1.0785    1.6416 N.pl3     1 <0>        -0.0219
     14 O3         -1.5741   -1.0221    1.5858 O.2       1 <0>        -0.0173
     15 O4          0.1668   -1.8755    2.3769 O.3       1 <0>        -0.0340
     16 N4          2.0208   -2.0759    0.4581 N.pl3     1 <0>        -0.0219
     17 O5          3.1825   -2.3672    0.6234 O.2       1 <0>        -0.0173
     18 O6          1.1722   -2.9366    0.4842 O.3       1 <0>        -0.0339
     19 H1         -0.8595    1.4568    1.1003 H         1 <0>         0.2615
     20 H2          3.3326   -0.2963   -0.9822 H         1 <0>         0.2615
     21 H3         -0.3561    3.5673    0.0580 H         1 <0>         0.4946
     22 H4          3.6434    1.8969   -1.9239 H         1 <0>         0.4946
@<TRIPOS>BOND
     1    1   12 ar
     2    1    2 ar
     3    1   19 1
     4    2    9 ar
     5    2    3 2
     6    3    4 am
     7    3   21 1
     8    4    5 2
     9    4    6 1
    10    6    7 2
    11    6    8 am
    12    8    9 2
    13    8   22 1
    14    9   10 ar
    15   10   11 ar
    16   10   20 1
    17   11   12 ar
    18   11   16 1
    19   12   13 1
    20   13   14 2
    21   13   15 1
    22   16   17 2
    23   16   18 1
@<TRIPOS>MOLECULE
ZINC18118278
   21    22     0     0     0
SMALL
USER_CHARGES

@<TRIPOS>ATOM
      1 C1          0.0417    1.2522    0.5309 C.ar      1 <0>        -0.0473
      2 C2          0.8780    2.0146   -0.2789 C.ar      1 <0>         0.0748
      3 C3          2.0479    1.4409   -0.8068 C.ar      1 <0>         0.2260
      4 C4          2.3544    0.1053   -0.5080 C.ar      1 <0>        -0.0622
      5 C5          1.5202   -0.6244    0.2883 C.ar      1 <0>         0.0219
      6 C6          0.3650   -0.0580    0.8097 C.ar      1 <0>        -0.0602
      7 N1         -0.5259   -0.8673    1.6712 N.pl3     1 <0>         0.0426
      8 O1         -1.7257   -0.7484    1.5809 O.2       1 <0>        -0.1529
      9 O2         -0.0539   -1.6473    2.4653 O.3       1 <0>        -0.1493
     10 N2          1.8502   -2.0336    0.5987 N.pl3     1 <0>         0.0304
     11 O3          2.9984   -2.3560    0.7971 O.2       1 <0>        -0.1355
     12 O4          0.9715   -2.8622    0.6539 O.3       1 <0>        -0.1417
     13 N3          2.8727    2.1624   -1.5937 N.2       1 <0>        -0.5947
     14 C7          2.6068    3.4079   -1.8848 C.2       1 <0>         0.4324
     15 O5          3.4503    4.1124   -2.6771 O.3       1 <0>        -0.5802
     16 C8          1.3904    4.0475   -1.3530 C.2       1 <0>         0.4795
     17 O6          1.1361    5.2074   -1.6209 O.2       1 <0>        -0.4979
     18 N4          0.5617    3.3300   -0.5634 N.am      1 <0>        -0.6270
     19 H1         -0.2442    3.7314   -0.2024 H         1 <0>         0.4104
     20 H2         -0.8563    1.6877    0.9435 H         1 <0>         0.1592
     21 H3          3.2502   -0.3457   -0.9085 H         1 <0>         0.1717
@<TRIPOS>BOND
     1    1    6 ar
     2    1    2 ar
     3    1   20 1
     4    2   18 1
     5    2    3 ar
     6    3    4 ar
     7    3   13 1
     8    4    5 ar
     9    4   21 1
    10    5    6 ar
    11    5   10 1
    12    6    7 1
    13    7    8 2
    14    7    9 1
    15   10   11 2
    16   10   12 1
    17   13   14 2
    18   14   15 1
    19   14   16 1
    20   16   17 2
    21   16   18 am
    22   18   19 1
@<TRIPOS>MOLECULE
ZINC18118278
   22    23     0     0     0
SMALL
USER_CHARGES

@<TRIPOS>ATOM
      1 C1          0.0382    1.2610    0.5152 C.ar      1 <0>        -0.0552
      2 C2          0.8758    2.0183   -0.2964 C.ar      1 <0>         0.1719
      3 C3          2.0393    1.4471   -0.8145 C.ar      1 <0>         0.1720
      4 C4          2.3510    0.1254   -0.5146 C.ar      1 <0>        -0.0553
      5 C5          1.5125   -0.6159    0.2921 C.ar      1 <0>         0.0166
      6 C6          0.3581   -0.0491    0.8060 C.ar      1 <0>         0.0165
      7 N1         -0.5357   -0.8520    1.6707 N.pl3     1 <0>         0.0206
      8 O1         -1.7351   -0.7324    1.5766 O.2       1 <0>        -0.1120
      9 O2         -0.0664   -1.6272    2.4709 O.3       1 <0>        -0.1151
     10 N2          1.8476   -2.0224    0.6091 N.pl3     1 <0>         0.0206
     11 O3          2.9970   -2.3396    0.8090 O.2       1 <0>        -0.1120
     12 O4          0.9720   -2.8539    0.6680 O.3       1 <0>        -0.1151
     13 N3          2.8903    2.1887   -1.6291 N.am      1 <0>        -0.6303
     14 C7          2.5958    3.4709   -1.9250 C.2       1 <0>         0.5137
     15 C8          1.3528    4.0814   -1.3711 C.2       1 <0>         0.5137
     16 N4          0.5461    3.3396   -0.5854 N.am      1 <0>        -0.6303
     17 O5          1.0696    5.2348   -1.6257 O.2       1 <0>        -0.4318
     18 O6          3.3354    4.1221   -2.6351 O.2       1 <0>        -0.4318
     19 H1         -0.8610    1.7001    0.9216 H         1 <0>         0.1865
     20 H2          3.2498   -0.3211   -0.9137 H         1 <0>         0.1866
     21 H3          3.6965    1.7826   -1.9842 H         1 <0>         0.4351
     22 H4         -0.2650    3.7271   -0.2210 H         1 <0>         0.4351
@<TRIPOS>BOND
     1    1    6 ar
     2    1    2 ar
     3    1   19 1
     4    2   16 1
     5    2    3 ar
     6    3    4 ar
     7    3   13 1
     8    4    5 ar
     9    4   20 1
    10    5    6 ar
    11    5   10 1
    12    6    7 1
    13    7    8 2
    14    7    9 1
    15   10   11 2
    16   10   12 1
    17   13   14 am
    18   13   21 1
    19   14   15 1
    20   14   18 2
    21   15   16 am
    22   15   17 2
    23   16   22 1
@<TRIPOS>MOLECULE
ZINC14951272
   26    28     0     0     0
SMALL
USER_CHARGES

@<TRIPOS>ATOM
      1 C1         -0.0425    0.5463   -0.5268 C.2       1 <0>        -0.0251
      2 C2          1.2091    0.3392   -0.9779 C.2       1 <0>        -0.0516
      3 N1          2.0613    0.7198    0.0267 N.pl3     1 <0>        -0.4127
      4 C3          1.2915    1.1481    1.0610 C.2       1 <0>         0.2332
      5 N2          0.0370    1.0395    0.7180 N.2       1 <0>        -0.4915
      6 C4          3.4606    0.6754   -0.0071 C.ar      1 <0>         0.1187
      7 C5          4.1483    1.3667   -0.9903 C.ar      1 <0>        -0.1065
      8 C6          5.5365    1.3226   -1.0230 C.ar      1 <0>         0.0977
      9 C7          6.2341    0.5752   -0.0560 C.ar      1 <0>         0.1863
     10 C8          5.5167   -0.1173    0.9310 C.ar      1 <0>        -0.0500
     11 C9          4.1546   -0.0598    0.9528 C.ar      1 <0>        -0.0329
     12 N3          3.4061   -0.7891    2.0011 N.pl3     1 <0>         0.0380
     13 O1          4.0014   -1.3281    2.9048 O.2       1 <0>        -0.1603
     14 O2          2.1993   -0.8457    1.9536 O.3       1 <0>        -0.1597
     15 N4          7.5814    0.5210   -0.0713 N.2       1 <0>        -0.5990
     16 C10         8.2711    1.1575   -0.9804 C.2       1 <0>         0.4239
     17 O3          9.6246    1.0871   -0.9750 O.3       1 <0>        -0.6032
     18 C11         7.5808    1.9508   -2.0111 C.2       1 <0>         0.4780
     19 O4          8.2180    2.5461   -2.8607 O.2       1 <0>        -0.5055
     20 N5          6.2312    2.0102   -2.0011 N.am      1 <0>        -0.6289
     21 H1          5.7564    2.5270   -2.6707 H         1 <0>         0.4062
     22 H2         -0.9531    0.3530   -1.0745 H         1 <0>         0.1689
     23 H3          1.4883   -0.0519   -1.9451 H         1 <0>         0.1709
     24 H4          1.6565    1.5167    2.0083 H         1 <0>         0.1937
     25 H5          3.6070    1.9381   -1.7299 H         1 <0>         0.1453
     26 H6          6.0442   -0.6933    1.6769 H         1 <0>         0.1660
@<TRIPOS>BOND
     1    1    5 1
     2    1    2 2
     3    1   22 1
     4    2    3 1
     5    2   23 1
     6    3    4 1
     7    3    6 1
     8    4    5 2
     9    4   24 1
    10    6   11 ar
    11    6    7 ar
    12    7    8 ar
    13    7   25 1
    14    8   20 1
    15    8    9 ar
    16    9   10 ar
    17    9   15 1
    18   10   11 ar
    19   10   26 1
    20   11   12 1
    21   12   13 2
    22   12   14 1
    23   15   16 2
    24   16   17 1
    25   16   18 1
    26   18   19 2
    27   18   20 am
    28   20   21 1
@<TRIPOS>MOLECULE
ZINC14951272
   26    28     0     0     0
SMALL
USER_CHARGES

@<TRIPOS>ATOM
      1 C1          0.0021    1.0261    0.6815 C.2       1 <0>        -0.0328
      2 C2          1.2851    1.1518    1.0710 C.2       1 <0>        -0.0035
      3 N1          2.0612    0.7200    0.0269 N.pl3     1 <0>        -0.4186
      4 C3          1.2169    0.3440   -0.9683 C.2       1 <0>         0.1943
      5 N2         -0.0103    0.5316   -0.5652 N.2       1 <0>        -0.4866
      6 C4          3.4631    0.6752   -0.0075 C.ar      1 <0>         0.1872
      7 C5          4.1483    1.3642   -0.9882 C.ar      1 <0>        -0.1214
      8 C6          5.5486    1.3201   -1.0226 C.ar      1 <0>         0.2401
      9 C7          6.2409    0.5716   -0.0537 C.ar      1 <0>         0.0483
     10 C8          5.5325   -0.1160    0.9268 C.ar      1 <0>        -0.0431
     11 C9          4.1569   -0.0597    0.9520 C.ar      1 <0>        -0.1014
     12 N3          3.4100   -0.7888    2.0017 N.pl3     1 <0>         0.0519
     13 O1          4.0069   -1.3273    2.9047 O.2       1 <0>        -0.1911
     14 O2          2.2033   -0.8458    1.9559 O.3       1 <0>        -0.1636
     15 N4          7.6231    0.5201   -0.0760 N.am      1 <0>        -0.6298
     16 C10         8.2893    1.1961   -1.0371 C.2       1 <0>         0.4781
     17 C11         7.5249    1.9678   -2.0326 C.2       1 <0>         0.4315
     18 N5          6.2198    1.9933   -1.9802 N.2       1 <0>        -0.6005
     19 O3          8.1765    2.6523   -3.0035 O.3       1 <0>        -0.5880
     20 O4          9.5056    1.1685   -1.0799 O.2       1 <0>        -0.5063
     21 H1         -0.8666    1.2759    1.2725 H         1 <0>         0.1696
     22 H2          1.6353    1.5219    2.0233 H         1 <0>         0.1635
     23 H3          1.5115   -0.0444   -1.9320 H         1 <0>         0.2051
     24 H4          3.6064    1.9355   -1.7274 H         1 <0>         0.1574
     25 H5          6.0625   -0.6912    1.6715 H         1 <0>         0.1524
     26 H6          8.1069    0.0062    0.5893 H         1 <0>         0.4074
@<TRIPOS>BOND
     1    1    5 1
     2    1    2 2
     3    1   21 1
     4    2    3 1
     5    2   22 1
     6    3    4 1
     7    3    6 1
     8    4    5 2
     9    4   23 1
    10    6   11 ar
    11    6    7 ar
    12    7    8 ar
    13    7   24 1
    14    8   18 1
    15    8    9 ar
    16    9   10 ar
    17    9   15 1
    18   10   11 ar
    19   10   25 1
    20   11   12 1
    21   12   13 2
    22   12   14 1
    23   15   16 am
    24   15   26 1
    25   16   17 1
    26   16   20 2
    27   17   18 2
    28   17   19 1
@<TRIPOS>MOLECULE
ZINC14951272
   27    29     0     0     0
SMALL
USER_CHARGES

@<TRIPOS>ATOM
      1 C1         -0.0420    0.5400   -0.5314 C.2       1 <0>        -0.0063
      2 C2          1.2106    0.3345   -0.9812 C.2       1 <0>        -0.0534
      3 N1          2.0611    0.7160    0.0240 N.pl3     1 <0>        -0.4382
      4 C3          1.2902    1.1432    1.0573 C.2       1 <0>         0.2377
      5 N2          0.0358    1.0332    0.7134 N.2       1 <0>        -0.4758
      6 C4          3.4628    0.6732   -0.0086 C.ar      1 <0>         0.2086
      7 C5          4.1533    1.3638   -0.9916 C.ar      1 <0>        -0.1178
      8 C6          5.5416    1.3220   -1.0247 C.ar      1 <0>         0.1918
      9 C7          6.2365    0.5821   -0.0651 C.ar      1 <0>         0.1277
     10 C8          5.5350   -0.1082    0.9174 C.ar      1 <0>        -0.0389
     11 C9          4.1572   -0.0574    0.9489 C.ar      1 <0>        -0.0426
     12 N3          3.4154   -0.7886    2.0007 N.pl3     1 <0>         0.0306
     13 O1          4.0164   -1.3259    2.9017 O.2       1 <0>        -0.1407
     14 O2          2.2087   -0.8485    1.9587 O.3       1 <0>        -0.1333
     15 N4          7.6280    0.5288   -0.0836 N.am      1 <0>        -0.6314
     16 C10         8.3177    1.1945   -1.0320 C.2       1 <0>         0.5123
     17 C11         7.5754    1.9847   -2.0560 C.2       1 <0>         0.5126
     18 N5          6.2281    2.0184   -2.0154 N.am      1 <0>        -0.6326
     19 O3          8.1785    2.5911   -2.9184 O.2       1 <0>        -0.4391
     20 O4          9.5315    1.1512   -1.0518 O.2       1 <0>        -0.4434
     21 H1         -0.9518    0.3457   -1.0799 H         1 <0>         0.1777
     22 H2          1.4912   -0.0559   -1.9483 H         1 <0>         0.1790
     23 H3          1.6541    1.5121    2.0049 H         1 <0>         0.2004
     24 H4          3.6123    1.9341   -1.7322 H         1 <0>         0.1717
     25 H5          6.0704   -0.6814    1.6599 H         1 <0>         0.1797
     26 H6          5.7364    2.5291   -2.6775 H         1 <0>         0.4318
     27 H7          8.1018    0.0124    0.5870 H         1 <0>         0.4319
@<TRIPOS>BOND
     1    1    5 1
     2    1    2 2
     3    1   21 1
     4    2    3 1
     5    2   22 1
     6    3    4 1
     7    3    6 1
     8    4    5 2
     9    4   23 1
    10    6   11 ar
    11    6    7 ar
    12    7    8 ar
    13    7   24 1
    14    8   18 1
    15    8    9 ar
    16    9   10 ar
    17    9   15 1
    18   10   11 ar
    19   10   25 1
    20   11   12 1
    21   12   13 2
    22   12   14 1
    23   15   16 am
    24   15   27 1
    25   16   17 1
    26   16   20 2
    27   17   18 am
    28   17   19 2
    29   18   26 1
@<TRIPOS>MOLECULE
ZINC14951272
   26    28     0     0     0
SMALL
USER_CHARGES
6-imidazol-1-yl-7-nitro-quinoxaline-2,3-dione
@<TRIPOS>ATOM
      1 C1         -0.9692    2.3670   -0.5011 C.2       1 <0>         0.0203
      2 C2          0.1710    1.8137   -0.9544 C.2       1 <0>         0.0322
      3 N1          1.1010    1.9441    0.0456 N.pl3     1 <0>        -0.3920
      4 C3          0.4856    2.5787    1.0814 C.cat     1 <0>         0.3472
      5 C4          2.4211    1.5101    0.0089 C.ar      1 <0>         0.1649
      6 C5          3.2440    1.9712   -0.9737 C.ar      1 <0>        -0.0242
      7 C6          4.5864    1.5528   -1.0315 C.ar      1 <0>         0.2441
      8 N2          5.3912    2.0023   -1.9805 N.2       1 <0>        -0.4313
      9 C7          6.6689    1.5908   -2.0264 C.2       1 <0>         0.4244
     10 O1          7.4122    2.0008   -2.8957 O.2       1 <0>        -0.2992
     11 C8          7.1712    0.6250   -1.0008 C.2       1 <0>         0.4198
     12 O2          8.3236    0.2452   -1.0318 O.2       1 <0>        -0.2904
     13 N3          6.3332    0.1780   -0.0399 N.2       1 <0>        -0.4107
     14 C9          5.0867    0.5932   -0.0128 C.ar      1 <0>         0.2261
     15 C10         4.1626    0.1193    1.0230 C.ar      1 <0>         0.0707
     16 C11         2.8885    0.5661    1.0223 C.ar      1 <0>        -0.0270
     17 N4          1.9499    0.0920    2.0641 N.pl3     1 <0>         0.0210
     18 O3          2.3570   -0.5958    2.9831 O.2       1 <0>        -0.0756
     19 O4          0.7705    0.3898    2.0022 O.3       1 <0>        -0.1704
     20 H1         -1.9008    2.4314   -1.0437 H         1 <0>         0.2316
     21 H2          0.3244    1.3552   -1.9202 H         1 <0>         0.2287
     22 H3          0.9431    2.8349    2.0255 H         1 <0>         0.2572
     23 H4          2.8653    2.6649   -1.7098 H         1 <0>         0.1988
     24 H5          4.4972   -0.5779    1.7768 H         1 <0>         0.2143
     25 N5         -0.7504    2.8198    0.7433 N.pl3     1 <0>        -0.4696
     26 H6         -1.4480    3.2838    1.3368 H         1 <0>         0.4890
@<TRIPOS>BOND
     1    1    2 2
     2    1   20 1
     3    1   25 1
     4    2    3 1
     5    2   21 1
     6    3    4 1
     7    3    5 1
     8    4   22 1
     9    4   25 2
    10    5   16 ar
    11    5    6 ar
    12    6    7 ar
    13    6   23 1
    14    7   14 ar
    15    7    8 2
    16    8    9 1
    17    9   10 2
    18    9   11 1
    19   11   12 2
    20   11   13 1
    21   13   14 2
    22   14   15 ar
    23   15   16 ar
    24   15   24 1
    25   16   17 1
    26   17   18 2
    27   17   19 1
    28   25   26 1
@<TRIPOS>MOLECULE
ZINC19850499
   22    22     0     0     0
SMALL
USER_CHARGES

@<TRIPOS>ATOM
      1 C1         -0.0127    1.0858    0.0080 C.3       1 <0>        -0.0876
      2 C2         -0.7416    1.5850   -1.2129 C.2       1 <0>         0.0641
      3 C3         -2.0612    1.8307   -1.2988 C.2       1 <0>        -0.3438
      4 C4         -2.3386    2.2827   -2.6074 C.2       1 <0>         0.3550
      5 N1         -1.2135    2.3025   -3.2730 N.2       1 <0>        -0.4446
      6 O1         -0.1856    1.8672   -2.4015 O.3       1 <0>        -0.1265
      7 O2         -3.5577    2.6341   -3.0892 O.3       1 <0>        -0.7249
      8 C5         -3.0681    1.6536   -0.1917 C.3       1 <0>        -0.0323
      9 C6         -3.1832    2.9541    0.6060 C.3       1 <0>        -0.0363
     10 H1         -2.1961    3.2519    0.9598 H         1 <0>         0.1199
     11 C7         -4.0964    2.7408    1.7856 C.2       1 <0>         0.4926
     12 O3         -3.6379    2.3667    2.8516 O.co2     1 <0>        -0.6522
     13 O4         -5.2936    2.9424    1.6740 O.co2     1 <0>        -0.6738
     14 N2         -3.7337    4.0095   -0.2549 N.4       1 <0>        -0.6054
     15 H2          0.0021   -0.0041    0.0020 H         1 <0>         0.0828
     16 H3          1.0099    1.4631    0.0003 H         1 <0>         0.0752
     17 H4         -0.5229    1.4373    0.9048 H         1 <0>         0.0860
     18 H5         -4.0386    1.4030   -0.6199 H         1 <0>         0.0863
     19 H6         -2.7440    0.8496    0.4691 H         1 <0>         0.0924
     20 H7         -3.8095    4.8672    0.2711 H         1 <0>         0.4148
     21 H8         -3.1222    4.1523   -1.0447 H         1 <0>         0.4233
     22 H9         -4.6474    3.7339   -0.5824 H         1 <0>         0.4348
@<TRIPOS>BOND
     1    1   15 1
     2    1   16 1
     3    1   17 1
     4    1    2 1
     5    2    3 2
     6    2    6 1
     7    3    4 1
     8    3    8 1
     9    4    5 2
    10    4    7 1
    11    5    6 1
    12    8    9 1
    13    8   18 1
    14    8   19 1
    15    9   10 1
    16    9   11 1
    17    9   14 1
    18   11   12 2
    19   11   13 1
    20   14   20 1
    21   14   21 1
    22   14   22 1
@<TRIPOS>MOLECULE
ZINC19850502
   22    22     0     0     0
SMALL
USER_CHARGES

@<TRIPOS>ATOM
      1 C1         -0.0127    1.0858    0.0080 C.3       1 <0>        -0.0839
      2 C2         -0.7416    1.5850   -1.2129 C.2       1 <0>         0.0174
      3 C3         -2.0612    1.8307   -1.2988 C.2       1 <0>        -0.3158
      4 C4         -2.3386    2.2827   -2.6074 C.2       1 <0>         0.3643
      5 N1         -1.2135    2.3025   -3.2730 N.2       1 <0>        -0.4463
      6 O1         -0.1856    1.8672   -2.4015 O.3       1 <0>        -0.1249
      7 O2         -3.5577    2.6341   -3.0892 O.3       1 <0>        -0.7045
      8 C5         -3.0681    1.6536   -0.1917 C.3       1 <0>        -0.0320
      9 C6         -3.1832    2.9541    0.6060 C.3       1 <0>        -0.0405
     10 H1         -3.4207    3.7753   -0.0703 H         1 <0>         0.1345
     11 C7         -4.2765    2.8178    1.6341 C.2       1 <0>         0.4959
     12 O3         -3.9950    2.7558    2.8188 O.co2     1 <0>        -0.6885
     13 O4         -5.4426    2.7696    1.2813 O.co2     1 <0>        -0.6350
     14 N2         -1.9077    3.2290    1.2810 N.4       1 <0>        -0.6115
     15 H2          0.0021   -0.0041    0.0020 H         1 <0>         0.0906
     16 H3          1.0099    1.4631    0.0003 H         1 <0>         0.0828
     17 H4         -0.5229    1.4373    0.9048 H         1 <0>         0.0560
     18 H5         -4.0386    1.4030   -0.6199 H         1 <0>         0.1129
     19 H6         -2.7440    0.8496    0.4691 H         1 <0>         0.0690
     20 H7         -1.1757    3.3203    0.5926 H         1 <0>         0.4130
     21 H8         -1.9836    4.0867    1.8070 H         1 <0>         0.4241
     22 H9         -1.6879    2.4688    1.9070 H         1 <0>         0.4225
@<TRIPOS>BOND
     1    1   15 1
     2    1   16 1
     3    1   17 1
     4    1    2 1
     5    2    3 2
     6    2    6 1
     7    3    4 1
     8    3    8 1
     9    4    5 2
    10    4    7 1
    11    5    6 1
    12    8    9 1
    13    8   18 1
    14    8   19 1
    15    9   10 1
    16    9   11 1
    17    9   14 1
    18   11   12 2
    19   11   13 1
    20   14   20 1
    21   14   21 1
    22   14   22 1
@<TRIPOS>MOLECULE
ZINC13491413
   40    42     0     0     0
SMALL
USER_CHARGES

@<TRIPOS>ATOM
      1 C1         -0.0187    1.5261    0.0104 C.3       1 <0>        -0.1238
      2 C2          1.4178    2.0522   -0.0005 C.3       1 <0>        -0.1090
      3 C3          2.1605    1.5450    1.2347 C.3       1 <0>        -0.0988
      4 H1          3.1856    1.9153    1.2176 H         1 <0>         0.0868
      5 C4          1.4628    2.0425    2.5014 C.3       1 <0>        -0.0134
      6 N1          2.1937    1.5679    3.6830 N.4       1 <0>        -0.4785
      7 C5          2.1694    0.1013    3.7306 C.3       1 <0>        -0.0519
      8 H2          1.1357   -0.2442    3.7341 H         1 <0>         0.1318
      9 C6          2.8921   -0.4673    2.5073 C.3       1 <0>        -0.1138
     10 C7          2.1737    0.0143    1.2417 C.3       1 <0>        -0.0947
     11 H3          2.7053   -0.3518    0.3633 H         1 <0>         0.0946
     12 C8          0.7355   -0.5089    1.2457 C.3       1 <0>        -0.1170
     13 C9          0.0021   -0.0041    0.0020 C.3       1 <0>        -0.0847
     14 H4          0.5174   -0.3558   -0.8918 H         1 <0>         0.0750
     15 C10        -1.4332   -0.5339    0.0057 C.3       1 <0>        -0.1042
     16 C11        -2.1288   -0.1316   -1.2963 C.3       1 <0>         0.0018
     17 C12        -3.5425   -0.6535   -1.2927 C.2       1 <0>         0.0495
     18 N2         -4.6155   -0.0251   -0.8348 N.2       1 <0>        -0.3915
     19 N3         -5.6282   -0.8032   -1.0123 N.2       1 <0>        -0.2004
     20 N4         -5.2266   -1.8948   -1.5645 N.2       1 <0>        -0.1995
     21 N5         -3.9528   -1.8267   -1.7520 N.2       1 <0>        -0.3897
     22 C13         2.8601   -0.3710    4.9839 C.2       1 <0>         0.4920
     23 O1          3.3287    0.4400    5.7643 O.co2     1 <0>        -0.6807
     24 O2          2.9504   -1.5643    5.2174 O.co2     1 <0>        -0.6381
     25 H5         -0.5282    1.8780    0.9075 H         1 <0>         0.0620
     26 H6         -0.5452    1.8876   -0.8729 H         1 <0>         0.0774
     27 H7          1.9259    1.7013   -0.8987 H         1 <0>         0.0781
     28 H8          1.4050    3.1421    0.0060 H         1 <0>         0.0687
     29 H9          1.4423    3.1323    2.5006 H         1 <0>         0.1224
     30 H10         0.4423    1.6603    2.5278 H         1 <0>         0.1295
     31 H11         3.1501    1.8859    3.6355 H         1 <0>         0.4200
     32 H12         3.9255   -0.1208    2.5008 H         1 <0>         0.0773
     33 H13         2.8717   -1.5564    2.5456 H         1 <0>         0.1095
     34 H14         0.7457   -1.5988    1.2436 H         1 <0>         0.0759
     35 H15         0.2223   -0.1530    2.1391 H         1 <0>         0.0596
     36 H16        -1.4192   -1.6206    0.0893 H         1 <0>         0.0633
     37 H17        -1.9744   -0.1114    0.8523 H         1 <0>         0.0593
     38 H18        -2.1429    0.9551   -1.3799 H         1 <0>         0.0649
     39 H19        -1.5876   -0.5541   -2.1429 H         1 <0>         0.0636
     40 H20         1.7601    1.9373    4.5159 H         1 <0>         0.4265
@<TRIPOS>BOND
     1    1   13 1
     2    1    2 1
     3    1   25 1
     4    1   26 1
     5    2    3 1
     6    2   27 1
     7    2   28 1
     8    3    4 1
     9    3   10 1
    10    3    5 1
    11    5    6 1
    12    5   29 1
    13    5   30 1
    14    6    7 1
    15    6   31 1
    16    6   40 1
    17    7    8 1
    18    7    9 1
    19    7   22 1
    20    9   10 1
    21    9   32 1
    22    9   33 1
    23   10   11 1
    24   10   12 1
    25   12   13 1
    26   12   34 1
    27   12   35 1
    28   13   14 1
    29   13   15 1
    30   15   16 1
    31   15   36 1
    32   15   37 1
    33   16   38 1
    34   16   39 1
    35   16   17 1
    36   17   18 2
    37   17   21 1
    38   18   19 1
    39   19   20 2
    40   20   21 1
    41   22   23 2
    42   22   24 1
@<TRIPOS>MOLECULE
ZINC13491413
   41    43     0     0     0
SMALL
USER_CHARGES
(3S,4aR,6R,8aR)-6-[2-(1H-tetrazol-5-yl)ethyl]-1,2,3,4,4a,5,6,7,8,8a-decahydroisoquinoline-3-carboxylic acid
@<TRIPOS>ATOM
      1 C1         -0.0203    1.5171    2.5098 C.3       1 <0>        -0.1259
      2 C2         -0.7419    2.0267    1.2607 C.3       1 <0>        -0.1116
      3 C3         -0.0187    1.5266    0.0104 C.3       1 <0>        -0.1025
      4 H1         -0.5502    1.8924   -0.8805 H         1 <0>         0.0911
      5 C4          1.4181    2.0517   -0.0005 C.3       1 <0>        -0.0040
      6 N1          2.1082    1.5636   -1.2016 N.4       1 <0>        -0.5180
      7 C5          2.1773    0.0970   -1.2175 C.3       1 <0>        -0.0118
      8 H2          2.7177   -0.2199   -0.3133 H         1 <0>         0.1294
      9 C6          0.7613   -0.4835   -1.2399 C.3       1 <0>        -0.1191
     10 C7          0.0021   -0.0041    0.0020 C.3       1 <0>        -0.0922
     11 H3         -1.0283   -0.3890   -0.0117 H         1 <0>         0.0971
     12 C8          0.7199   -0.5114    1.2548 C.3       1 <0>        -0.1198
     13 C9         -0.0118   -0.0130    2.5022 C.3       1 <0>        -0.0858
     14 H4         -1.0466   -0.3861    2.4943 H         1 <0>         0.0813
     15 C10         0.7049   -0.5255    3.7530 C.3       1 <0>        -0.1119
     16 C11        -0.0955   -0.1325    4.9964 C.3       1 <0>        -0.0254
     17 C12         0.6105   -0.6373    6.2284 C.2       1 <0>         0.1656
     18 N2          0.9930    0.0939    7.2918 N.2       1 <0>        -0.3188
     19 H5          1.9490   -0.3336    9.0799 H         1 <0>         0.5131
     20 N3          1.5595   -0.7133    8.1238 N.pl3     1 <0>        -0.2272
     21 N4          1.5524   -1.8989    7.6221 N.2       1 <0>        -0.0570
     22 N5          0.9713   -1.8735    6.4725 N.2       1 <0>        -0.2771
     23 C13         2.9251   -0.3568   -2.4446 C.2       1 <0>         0.4555
     24 O1          3.0387    0.3849   -3.3916 O.co2     1 <0>        -0.6198
     25 O2          3.4651   -1.5850   -2.4855 O.co2     1 <0>        -0.7054
     26 H6         -0.5429    1.8764    3.4086 H         1 <0>         0.0750
     27 H7          1.0147    1.8895    2.5141 H         1 <0>         0.0630
     28 H8         -1.7769    1.6543    1.2576 H         1 <0>         0.0803
     29 H9         -0.7480    3.1267    1.2639 H         1 <0>         0.0720
     30 H10         1.4064    3.1516   -0.0056 H         1 <0>         0.1231
     31 H11         1.9458    1.6948    0.8963 H         1 <0>         0.1238
     32 H12         1.5653    1.8983   -2.0979 H         1 <0>         0.4457
     33 H13         0.2397   -0.1429   -2.1465 H         1 <0>         0.0832
     34 H14         0.8153   -1.5822   -1.2390 H         1 <0>         0.1100
     35 H15         0.7297   -1.6114    1.2517 H         1 <0>         0.0797
     36 H16         1.7537   -0.1355    1.2626 H         1 <0>         0.0616
     37 H17         0.7909   -1.6210    3.7033 H         1 <0>         0.0803
     38 H18         1.7096   -0.0810    3.8080 H         1 <0>         0.0643
     39 H19        -0.1815    0.9630    5.0460 H         1 <0>         0.0949
     40 H20        -1.1002   -0.5770    4.9414 H         1 <0>         0.0963
     41 H21         3.1330    1.9627   -1.2233 H         1 <0>         0.4470
@<TRIPOS>BOND
     1    1   13 1
     2    1    2 1
     3    1   26 1
     4    1   27 1
     5    2    3 1
     6    2   28 1
     7    2   29 1
     8    3    4 1
     9    3   10 1
    10    3    5 1
    11    5    6 1
    12    5   30 1
    13    5   31 1
    14    6    7 1
    15    6   32 1
    16    6   41 1
    17    7    8 1
    18    7    9 1
    19    7   23 1
    20    9   10 1
    21    9   33 1
    22    9   34 1
    23   10   11 1
    24   10   12 1
    25   12   13 1
    26   12   35 1
    27   12   36 1
    28   13   14 1
    29   13   15 1
    30   15   16 1
    31   15   37 1
    32   15   38 1
    33   16   17 1
    34   16   39 1
    35   16   40 1
    36   17   18 2
    37   17   22 1
    38   18   20 1
    39   19   20 1
    40   20   21 1
    41   21   22 2
    42   23   24 2
    43   23   25 1
@<TRIPOS>MOLECULE
ZINC13531895
   34    35     0     0     0
SMALL
USER_CHARGES
4-chloro-2-[(4-methoxyphenyl)carbamoylamino]benzoic acid
@<TRIPOS>ATOM
      1 C1          0.1888   -2.6910   -0.6834 C.3       1 <0>         0.0282
      2 O1          1.1635   -2.0187    0.1166 O.3       1 <0>        -0.3197
      3 C2          1.1575   -0.6593    0.0842 C.ar      1 <0>         0.1028
      4 C3          2.0770    0.0561    0.8372 C.ar      1 <0>        -0.1288
      5 C4          2.0714    1.4367    0.8048 C.ar      1 <0>        -0.0798
      6 C5          1.1453    2.1086    0.0184 C.ar      1 <0>         0.1404
      7 C6          0.2259    1.3919   -0.7358 C.ar      1 <0>        -0.1106
      8 C7          0.2323    0.0114   -0.7021 C.ar      1 <0>        -0.1879
      9 N1          1.1389    3.5096   -0.0146 N.am      1 <0>        -0.6815
     10 C8          2.2952    4.1918    0.1037 C.2       1 <0>         0.7014
     11 O2          3.3528    3.5933    0.1433 O.2       1 <0>        -0.5675
     12 N2          2.2791    5.5374    0.1783 N.am      1 <0>        -0.6518
     13 C9          3.4761    6.2484    0.1879 C.ar      1 <0>         0.2079
     14 C10         4.6048    5.7221   -0.4248 C.ar      1 <0>        -0.1406
     15 C11         5.7905    6.4314   -0.4178 C.ar      1 <0>        -0.0121
     16 C12         5.8653    7.6673    0.2081 C.ar      1 <0>        -0.1495
     17 C13         4.7568    8.2023    0.8255 C.ar      1 <0>        -0.0442
     18 C14         3.5489    7.4984    0.8224 C.ar      1 <0>        -0.1454
     19 C15         2.3594    8.0654    1.4806 C.2       1 <0>         0.4980
     20 O3          1.3423    7.4064    1.5700 O.co2     1 <0>        -0.6335
     21 Cl1         7.1964    5.7697   -1.1920 Cl        1 <0>        -0.0848
     22 H1          0.3032   -3.7686   -0.5662 H         1 <0>         0.0968
     23 H2         -0.8104   -2.3948   -0.3639 H         1 <0>         0.0537
     24 H3          0.3300   -2.4223   -1.7303 H         1 <0>         0.0536
     25 H4          2.7971   -0.4666    1.4492 H         1 <0>         0.1328
     26 H5          2.7844    1.9937    1.3946 H         1 <0>         0.1455
     27 H6         -0.4940    1.9139   -1.3486 H         1 <0>         0.1282
     28 H7         -0.4831   -0.5463   -1.2884 H         1 <0>         0.1294
     29 H8          0.3022    3.9883   -0.1227 H         1 <0>         0.4101
     30 H9          1.4336    6.0105    0.2253 H         1 <0>         0.4262
     31 H10         4.5553    4.7589   -0.9108 H         1 <0>         0.1510
     32 H11         6.7977    8.2124    0.2114 H         1 <0>         0.1287
     33 H12         4.8205    9.1644    1.3119 H         1 <0>         0.1441
     34 O4          2.3990    9.3150    1.9838 O.co2     1 <0>        -0.7409
@<TRIPOS>BOND
     1    1    2 1
     2    1   22 1
     3    1   23 1
     4    1   24 1
     5    2    3 1
     6    3    8 ar
     7    3    4 ar
     8    4    5 ar
     9    4   25 1
    10    5    6 ar
    11    5   26 1
    12    6    7 ar
    13    6    9 1
    14    7    8 ar
    15    7   27 1
    16    8   28 1
    17    9   10 am
    18    9   29 1
    19   10   11 2
    20   10   12 am
    21   12   13 1
    22   12   30 1
    23   13   18 ar
    24   13   14 ar
    25   14   15 ar
    26   14   31 1
    27   15   16 ar
    28   15   21 1
    29   16   17 ar
    30   16   32 1
    31   17   18 ar
    32   17   33 1
    33   18   19 1
    34   19   20 2
    35   19   34 1
@<TRIPOS>MOLECULE
ZINC13531879
   30    31     0     0     0
SMALL
USER_CHARGES
4-chloro-2-[(4-chlorophenyl)carbamoylamino]benzoic acid
@<TRIPOS>ATOM
      1 C1          0.0999   -2.7737    0.5164 C.ar      1 <0>        -0.1088
      2 C2          0.0423   -4.1500    0.4166 C.ar      1 <0>        -0.0899
      3 C3          0.9582   -4.8268   -0.3694 C.ar      1 <0>        -0.0563
      4 C4          1.9306   -4.1266   -1.0616 C.ar      1 <0>        -0.0909
      5 C5          1.9892   -2.7498   -0.9695 C.ar      1 <0>        -0.1377
      6 C6          1.0713   -2.0682   -0.1814 C.ar      1 <0>         0.1789
      7 N1          1.1288   -0.6728   -0.0859 N.am      1 <0>        -0.6830
      8 C7         -0.0081    0.0426    0.0232 C.2       1 <0>         0.7006
      9 O1         -1.0773   -0.5270    0.1259 O.2       1 <0>        -0.5658
     10 N2          0.0401    1.3895    0.0184 N.am      1 <0>        -0.6516
     11 C8         -1.1400    2.1284    0.0091 C.ar      1 <0>         0.2077
     12 C9         -2.3042    1.5765   -0.5070 C.ar      1 <0>        -0.1442
     13 C10        -3.4754    2.3094   -0.5100 C.ar      1 <0>        -0.0112
     14 C11        -3.4950    3.6032   -0.0092 C.ar      1 <0>        -0.1499
     15 C12        -2.3480    4.1686    0.5014 C.ar      1 <0>        -0.0431
     16 C13        -1.1567    3.4371    0.5164 C.ar      1 <0>        -0.1468
     17 C14         0.0736    4.0360    1.0618 C.2       1 <0>         0.5001
     18 O2          1.1260    3.4324    0.9917 O.co2     1 <0>        -0.6351
     19 Cl1        -4.9295    1.6098   -1.1501 Cl        1 <0>        -0.0840
     20 Cl2         0.8869   -6.5573   -0.4879 Cl        1 <0>        -0.0791
     21 H1         -0.6124   -2.2462    1.1335 H         1 <0>         0.1525
     22 H2         -0.7158   -4.6987    0.9556 H         1 <0>         0.1350
     23 H3          2.6440   -4.6572   -1.6747 H         1 <0>         0.1352
     24 H4          2.7481   -2.2038   -1.5102 H         1 <0>         0.1356
     25 H5          1.9870   -0.2208   -0.0982 H         1 <0>         0.4135
     26 H6          0.8970    1.8441    0.0174 H         1 <0>         0.4286
     27 H7         -2.2956    0.5716   -0.9026 H         1 <0>         0.1541
     28 H8         -4.4144    4.1698   -0.0204 H         1 <0>         0.1291
     29 H9         -2.3685    5.1762    0.8897 H         1 <0>         0.1446
     30 O3          0.0321    5.2533    1.6384 O.co2     1 <0>        -0.7379
@<TRIPOS>BOND
     1    1    6 ar
     2    1    2 ar
     3    1   21 1
     4    2    3 ar
     5    2   22 1
     6    3    4 ar
     7    3   20 1
     8    4    5 ar
     9    4   23 1
    10    5    6 ar
    11    5   24 1
    12    6    7 1
    13    7    8 am
    14    7   25 1
    15    8    9 2
    16    8   10 am
    17   10   11 1
    18   10   26 1
    19   11   16 ar
    20   11   12 ar
    21   12   13 ar
    22   12   27 1
    23   13   14 ar
    24   13   19 1
    25   14   15 ar
    26   14   28 1
    27   15   16 ar
    28   15   29 1
    29   16   17 1
    30   17   18 2
    31   17   30 1
@<TRIPOS>MOLECULE
ZINC13531833
   30    31     0     0     0
SMALL
USER_CHARGES
4-chloro-2-[(2-chlorophenyl)carbamoylamino]benzoic acid
@<TRIPOS>ATOM
      1 C1         -3.5577   -0.8772    1.2270 C.ar      1 <0>        -0.0945
      2 C2         -4.6851   -0.3835    0.5962 C.ar      1 <0>        -0.1310
      3 C3         -4.6076    0.7700   -0.1621 C.ar      1 <0>        -0.0917
      4 C4         -3.4018    1.4333   -0.2921 C.ar      1 <0>        -0.0696
      5 C5         -2.2676    0.9394    0.3406 C.ar      1 <0>         0.1877
      6 C6         -2.3487   -0.2222    1.0969 C.ar      1 <0>        -0.1099
      7 N1         -1.0447    1.6084    0.2113 N.am      1 <0>        -0.6814
      8 C7          0.1055    0.9073    0.1662 C.2       1 <0>         0.7035
      9 O1          0.0761   -0.3078    0.1398 O.2       1 <0>        -0.5644
     10 N2          1.2881    1.5534    0.1448 N.am      1 <0>        -0.6495
     11 C8          2.4769    0.8320    0.2151 C.ar      1 <0>         0.2080
     12 C9          2.4985   -0.4200    0.8138 C.ar      1 <0>        -0.1438
     13 C10         3.6784   -1.1359    0.8786 C.ar      1 <0>        -0.0114
     14 C11         4.8498   -0.6071    0.3561 C.ar      1 <0>        -0.1499
     15 C12         4.8479    0.6358   -0.2367 C.ar      1 <0>        -0.0432
     16 C13         3.6606    1.3698   -0.3140 C.ar      1 <0>        -0.1458
     17 C14         3.6518    2.6997   -0.9473 C.2       1 <0>         0.4981
     18 O2          2.6021    3.2926   -1.1010 O.co2     1 <0>        -0.6331
     19 Cl1         3.6965   -2.7038    1.6235 Cl        1 <0>        -0.0845
     20 Cl2        -3.3046    2.8810   -1.2452 Cl        1 <0>        -0.0634
     21 H1         -3.6219   -1.7785    1.8185 H         1 <0>         0.1311
     22 H2         -5.6281   -0.9005    0.6958 H         1 <0>         0.1306
     23 H3         -5.4898    1.1530   -0.6535 H         1 <0>         0.1349
     24 H4         -1.4679   -0.6113    1.5860 H         1 <0>         0.1452
     25 H5         -1.0252    2.5765    0.1542 H         1 <0>         0.4133
     26 H6          1.3110    2.5210    0.0804 H         1 <0>         0.4275
     27 H7          1.5914   -0.8364    1.2264 H         1 <0>         0.1533
     28 H8          5.7679   -1.1729    0.4150 H         1 <0>         0.1290
     29 H9          5.7626    1.0432   -0.6413 H         1 <0>         0.1445
     30 O3          4.8077    3.2590   -1.3563 O.co2     1 <0>        -0.7393
@<TRIPOS>BOND
     1    1    6 ar
     2    1    2 ar
     3    1   21 1
     4    2    3 ar
     5    2   22 1
     6    3    4 ar
     7    3   23 1
     8    4    5 ar
     9    4   20 1
    10    5    6 ar
    11    5    7 1
    12    6   24 1
    13    7    8 am
    14    7   25 1
    15    8    9 2
    16    8   10 am
    17   10   11 1
    18   10   26 1
    19   11   16 ar
    20   11   12 ar
    21   12   13 ar
    22   12   27 1
    23   13   14 ar
    24   13   19 1
    25   14   15 ar
    26   14   28 1
    27   15   16 ar
    28   15   29 1
    29   16   17 1
    30   17   18 2
    31   17   30 1
@<TRIPOS>MOLECULE
ZINC13531864
   30    31     0     0     0
SMALL
USER_CHARGES
4-chloro-2-[(3-iodophenyl)carbamoylamino]benzoic acid
@<TRIPOS>ATOM
      1 C1         -3.8296   -0.9448   -0.2179 C.ar      1 <0>        -0.0959
      2 C2         -2.6188   -0.2837   -0.2907 C.ar      1 <0>        -0.1004
      3 C3         -2.5074    1.0135    0.1919 C.ar      1 <0>         0.1788
      4 C4         -3.6170    1.6463    0.7370 C.ar      1 <0>        -0.1165
      5 C5         -4.8265    0.9818    0.8022 C.ar      1 <0>        -0.0811
      6 C6         -4.9326   -0.3127    0.3252 C.ar      1 <0>        -0.1068
      7 I1         -6.5014    1.9351    1.6236 I         1 <0>        -0.0464
      8 N1         -1.2810    1.6840    0.1238 N.am      1 <0>        -0.6831
      9 C7         -0.1308    1.0044    0.3017 C.2       1 <0>         0.7031
     10 O1         -0.1531   -0.2036    0.4372 O.2       1 <0>        -0.5662
     11 N2          1.0447    1.6634    0.3239 N.am      1 <0>        -0.6499
     12 C8          2.2216    0.9782    0.6138 C.ar      1 <0>         0.2067
     13 C9          2.1873   -0.1651    1.3999 C.ar      1 <0>        -0.1409
     14 C10         3.3557   -0.8464    1.6819 C.ar      1 <0>        -0.0120
     15 C11         4.5706   -0.3891    1.1920 C.ar      1 <0>        -0.1486
     16 C12         4.6239    0.7467    0.4153 C.ar      1 <0>        -0.0440
     17 C13         3.4492    1.4436    0.1171 C.ar      1 <0>        -0.1447
     18 C14         3.4995    2.6589   -0.7137 C.2       1 <0>         0.4981
     19 O2          2.4686    3.2017   -1.0593 O.co2     1 <0>        -0.6341
     20 Cl1         3.3042   -2.2798    2.6599 Cl        1 <0>        -0.0841
     21 H1         -3.9156   -1.9552   -0.5895 H         1 <0>         0.1336
     22 H2         -1.7587   -0.7767   -0.7192 H         1 <0>         0.1489
     23 H3         -3.5344    2.6565    1.1097 H         1 <0>         0.1320
     24 H4         -5.8792   -0.8301    0.3769 H         1 <0>         0.1277
     25 H5         -1.2588    2.6378   -0.0513 H         1 <0>         0.4131
     26 H6          1.0708    2.6151    0.1378 H         1 <0>         0.4269
     27 H7          1.2459   -0.5248    1.7882 H         1 <0>         0.1513
     28 H8          5.4790   -0.9263    1.4214 H         1 <0>         0.1292
     29 H9          5.5722    1.0989    0.0370 H         1 <0>         0.1445
     30 O3          4.6887    3.1688   -1.0905 O.co2     1 <0>        -0.7395
@<TRIPOS>BOND
     1    1    6 ar
     2    1    2 ar
     3    1   21 1
     4    2    3 ar
     5    2   22 1
     6    3    4 ar
     7    3    8 1
     8    4    5 ar
     9    4   23 1
    10    5    6 ar
    11    5    7 1
    12    6   24 1
    13    8    9 am
    14    8   25 1
    15    9   10 2
    16    9   11 am
    17   11   12 1
    18   11   26 1
    19   12   17 ar
    20   12   13 ar
    21   13   14 ar
    22   13   27 1
    23   14   15 ar
    24   14   20 1
    25   15   16 ar
    26   15   28 1
    27   16   17 ar
    28   16   29 1
    29   17   18 1
    30   18   19 2
    31   18   30 1
@<TRIPOS>MOLECULE
ZINC13531810
   33    34     0     0     0
SMALL
USER_CHARGES

@<TRIPOS>ATOM
      1 C1          2.1369    1.4051   -0.7180 C.ar      1 <0>        -0.0992
      2 C2          1.2296    2.0618    0.0933 C.ar      1 <0>        -0.0985
      3 C3          0.3315    1.3395    0.8571 C.ar      1 <0>        -0.1627
      4 C4          0.3379   -0.0411    0.8119 C.ar      1 <0>        -0.0730
      5 C5          1.2476   -0.7034   -0.0016 C.ar      1 <0>         0.1789
      6 C6          2.1485    0.0251   -0.7676 C.ar      1 <0>        -0.1197
      7 N1          1.2570   -2.1019   -0.0492 N.am      1 <0>        -0.6824
      8 C7          0.1051   -2.7885    0.0857 C.2       1 <0>         0.6994
      9 O1         -0.9529   -2.1934    0.1542 O.2       1 <0>        -0.5660
     10 N2          0.1260   -4.1348    0.1445 N.am      1 <0>        -0.6450
     11 C8         -1.0680   -4.8487    0.1705 C.ar      1 <0>         0.2055
     12 C9         -2.2099   -4.3196   -0.4148 C.ar      1 <0>        -0.1406
     13 C10        -3.3943   -5.0302   -0.3879 C.ar      1 <0>        -0.0154
     14 C11        -3.4530   -6.2753    0.2225 C.ar      1 <0>        -0.1479
     15 C12        -2.3309   -6.8164    0.8077 C.ar      1 <0>        -0.0522
     16 C13        -1.1225   -6.1113    0.7840 C.ar      1 <0>        -0.1635
     17 C14         0.0816   -6.6859    1.4025 C.2       1 <0>         0.5285
     18 O2          0.0594   -7.8291    1.8382 O.co2     1 <0>        -0.6731
     19 O3          1.1056   -6.0209    1.4813 O.co2     1 <0>        -0.6875
     20 Cl1        -4.8183   -4.3613   -1.1217 Cl        1 <0>        -0.0861
     21 C15        -0.6552    2.0592    1.7400 C.3       1 <0>         0.5094
     22 F1         -0.4694    3.4404    1.6179 F         1 <0>        -0.1797
     23 F2         -1.9575    1.7276    1.3510 F         1 <0>        -0.1722
     24 F3         -0.4546    1.6776    3.0710 F         1 <0>        -0.1761
     25 H1          2.8343    1.9722   -1.3167 H         1 <0>         0.1376
     26 H2          1.2228    3.1411    0.1306 H         1 <0>         0.1369
     27 H3         -0.3637   -0.6047    1.4090 H         1 <0>         0.1495
     28 H4          2.8570   -0.4871   -1.4016 H         1 <0>         0.1360
     29 H5          2.0925   -2.5771   -0.1793 H         1 <0>         0.4145
     30 H6          0.9735   -4.6061    0.1689 H         1 <0>         0.4280
     31 H7         -2.1726   -3.3512   -0.8915 H         1 <0>         0.1491
     32 H8         -4.3841   -6.8223    0.2386 H         1 <0>         0.1272
     33 H9         -2.3822   -7.7855    1.2816 H         1 <0>         0.1404
@<TRIPOS>BOND
     1    1    6 ar
     2    1    2 ar
     3    1   25 1
     4    2    3 ar
     5    2   26 1
     6    3    4 ar
     7    3   21 1
     8    4    5 ar
     9    4   27 1
    10    5    6 ar
    11    5    7 1
    12    6   28 1
    13    7    8 am
    14    7   29 1
    15    8    9 2
    16    8   10 am
    17   10   11 1
    18   10   30 1
    19   11   16 ar
    20   11   12 ar
    21   12   13 ar
    22   12   31 1
    23   13   14 ar
    24   13   20 1
    25   14   15 ar
    26   14   32 1
    27   15   16 ar
    28   15   33 1
    29   16   17 1
    30   17   18 2
    31   17   19 1
    32   21   22 1
    33   21   23 1
    34   21   24 1
@<TRIPOS>MOLECULE
ZINC01491954
   30    31     0     0     0
SMALL
USER_CHARGES
2-[(3-bromophenyl)carbamoylamino]-4-chloro-benzoic acid
@<TRIPOS>ATOM
      1 C1         -3.8299   -0.9442   -0.2187 C.ar      1 <0>        -0.0946
      2 C2         -2.6191   -0.2831   -0.2912 C.ar      1 <0>        -0.1036
      3 C3         -2.5075    1.0141    0.1915 C.ar      1 <0>         0.1802
      4 C4         -3.6170    1.6470    0.7365 C.ar      1 <0>        -0.1221
      5 C5         -4.8268    0.9826    0.8016 C.ar      1 <0>        -0.0718
      6 C6         -4.9329   -0.3121    0.3243 C.ar      1 <0>        -0.1120
      7 Br1        -6.3386    1.8432    1.5429 Br        1 <0>        -0.0537
      8 N1         -1.2810    1.6843    0.1236 N.am      1 <0>        -0.6828
      9 C7         -0.1309    1.0045    0.3016 C.2       1 <0>         0.7031
     10 O1         -0.1534   -0.2035    0.4370 O.2       1 <0>        -0.5662
     11 N2          1.0447    1.6633    0.3239 N.am      1 <0>        -0.6498
     12 C8          2.2214    0.9778    0.6139 C.ar      1 <0>         0.2066
     13 C9          2.1869   -0.1654    1.4000 C.ar      1 <0>        -0.1408
     14 C10         3.3553   -0.8464    1.6829 C.ar      1 <0>        -0.0121
     15 C11         4.5703   -0.3893    1.1932 C.ar      1 <0>        -0.1485
     16 C12         4.6238    0.7461    0.4160 C.ar      1 <0>        -0.0440
     17 C13         3.4493    1.4430    0.1174 C.ar      1 <0>        -0.1447
     18 C14         3.4998    2.6580   -0.7139 C.2       1 <0>         0.4982
     19 O2          2.4690    3.2008   -1.0599 O.co2     1 <0>        -0.6341
     20 Cl1         3.3035   -2.2791    2.6619 Cl        1 <0>        -0.0841
     21 H1         -3.9159   -1.9544   -0.5907 H         1 <0>         0.1346
     22 H2         -1.7590   -0.7761   -0.7197 H         1 <0>         0.1492
     23 H3         -3.5342    2.6572    1.1094 H         1 <0>         0.1356
     24 H4         -5.8795   -0.8296    0.3758 H         1 <0>         0.1313
     25 H5         -1.2585    2.6381   -0.0515 H         1 <0>         0.4134
     26 H6          1.0710    2.6149    0.1379 H         1 <0>         0.4269
     27 H7          1.2453   -0.5252    1.7879 H         1 <0>         0.1514
     28 H8          5.4786   -0.9265    1.4230 H         1 <0>         0.1292
     29 H9          5.5722    1.0982    0.0379 H         1 <0>         0.1446
     30 O3          4.6890    3.1678   -1.0906 O.co2     1 <0>        -0.7394
@<TRIPOS>BOND
     1    1    6 ar
     2    1    2 ar
     3    1   21 1
     4    2    3 ar
     5    2   22 1
     6    3    4 ar
     7    3    8 1
     8    4    5 ar
     9    4   23 1
    10    5    6 ar
    11    5    7 1
    12    6   24 1
    13    8    9 am
    14    8   25 1
    15    9   10 2
    16    9   11 am
    17   11   12 1
    18   11   26 1
    19   12   17 ar
    20   12   13 ar
    21   13   14 ar
    22   13   27 1
    23   14   15 ar
    24   14   20 1
    25   15   16 ar
    26   15   28 1
    27   16   17 ar
    28   16   29 1
    29   17   18 1
    30   18   19 2
    31   18   30 1
@<TRIPOS>MOLECULE
ZINC13531861
   30    31     0     0     0
SMALL
USER_CHARGES
4-chloro-2-[(3-chlorophenyl)carbamoylamino]benzoic acid
@<TRIPOS>ATOM
      1 C1         -3.8298   -0.9422   -0.2203 C.ar      1 <0>        -0.0882
      2 C2         -2.6188   -0.2814   -0.2919 C.ar      1 <0>        -0.1145
      3 C3         -2.5072    1.0159    0.1906 C.ar      1 <0>         0.1865
      4 C4         -3.6166    1.6490    0.7354 C.ar      1 <0>        -0.1422
      5 C5         -4.8267    0.9845    0.8005 C.ar      1 <0>        -0.0160
      6 C6         -4.9329   -0.3104    0.3228 C.ar      1 <0>        -0.1317
      7 Cl1        -6.2146    1.7744    1.4813 Cl        1 <0>        -0.0730
      8 N1         -1.2806    1.6860    0.1228 N.am      1 <0>        -0.6827
      9 C7         -0.1306    1.0062    0.3011 C.2       1 <0>         0.7031
     10 O1         -0.1533   -0.2018    0.4368 O.2       1 <0>        -0.5658
     11 N2          1.0450    1.6649    0.3234 N.am      1 <0>        -0.6498
     12 C8          2.2217    0.9794    0.6137 C.ar      1 <0>         0.2066
     13 C9          2.1869   -0.1637    1.4001 C.ar      1 <0>        -0.1407
     14 C10         3.3551   -0.8453    1.6825 C.ar      1 <0>        -0.0121
     15 C11         4.5702   -0.3884    1.1929 C.ar      1 <0>        -0.1486
     16 C12         4.6240    0.7472    0.4159 C.ar      1 <0>        -0.0440
     17 C13         3.4496    1.4444    0.1174 C.ar      1 <0>        -0.1447
     18 C14         3.5004    2.6596   -0.7136 C.2       1 <0>         0.4982
     19 O2          2.4698    3.2026   -1.0596 O.co2     1 <0>        -0.6341
     20 Cl2         3.3029   -2.2785    2.6607 Cl        1 <0>        -0.0841
     21 H1         -3.9159   -1.9522   -0.5928 H         1 <0>         0.1348
     22 H2         -1.7585   -0.7746   -0.7199 H         1 <0>         0.1489
     23 H3         -3.5338    2.6593    1.1082 H         1 <0>         0.1362
     24 H4         -5.8794   -0.8279    0.3742 H         1 <0>         0.1317
     25 H5         -1.2581    2.6397   -0.0526 H         1 <0>         0.4134
     26 H6          1.0714    2.6165    0.1372 H         1 <0>         0.4269
     27 H7          1.2453   -0.5232    1.7881 H         1 <0>         0.1514
     28 H8          5.4784   -0.9258    1.4226 H         1 <0>         0.1292
     29 H9          5.5725    1.0991    0.0379 H         1 <0>         0.1446
     30 O3          4.6898    3.1692   -1.0902 O.co2     1 <0>        -0.7395
@<TRIPOS>BOND
     1    1    6 ar
     2    1    2 ar
     3    1   21 1
     4    2    3 ar
     5    2   22 1
     6    3    4 ar
     7    3    8 1
     8    4    5 ar
     9    4   23 1
    10    5    6 ar
    11    5    7 1
    12    6   24 1
    13    8    9 am
    14    8   25 1
    15    9   10 2
    16    9   11 am
    17   11   12 1
    18   11   26 1
    19   12   17 ar
    20   12   13 ar
    21   13   14 ar
    22   13   27 1
    23   14   15 ar
    24   14   20 1
    25   15   16 ar
    26   15   28 1
    27   16   17 ar
    28   16   29 1
    29   17   18 1
    30   18   19 2
    31   18   30 1
@<TRIPOS>MOLECULE
ZINC13531907
   29    30     0     0     0
SMALL
USER_CHARGES
4-chloro-2-(3-pyridylcarbamoylamino)benzoic acid
@<TRIPOS>ATOM
      1 C1          1.0848    2.8613    0.6137 C.ar      1 <0>        -0.1478
      2 C2         -0.0678    3.6294    0.6490 C.ar      1 <0>        -0.0890
      3 C3         -1.2047    3.1459    0.0069 C.ar      1 <0>         0.1289
      4 C4         -1.1455    1.9139   -0.6315 C.ar      1 <0>         0.0656
      5 N1         -0.0297    1.2125   -0.6365 N.ar      1 <0>        -0.4647
      6 C5          1.0655    1.6448   -0.0424 C.ar      1 <0>         0.0657
      7 N2         -2.3914    3.8880    0.0095 N.am      1 <0>        -0.6750
      8 C6         -2.3477    5.2285    0.1417 C.2       1 <0>         0.7016
      9 O1         -1.2765    5.8034    0.1548 O.2       1 <0>        -0.5659
     10 N3         -3.4914    5.9318    0.2592 N.am      1 <0>        -0.6487
     11 C7         -3.4545    7.3236    0.2738 C.ar      1 <0>         0.2060
     12 C8         -2.4047    7.9997   -0.3322 C.ar      1 <0>        -0.1436
     13 C9         -2.3729    9.3809   -0.3211 C.ar      1 <0>        -0.0118
     14 C10        -3.3812   10.1013    0.3030 C.ar      1 <0>        -0.1490
     15 C11        -4.4273    9.4467    0.9141 C.ar      1 <0>        -0.0434
     16 C12        -4.4758    8.0496    0.9064 C.ar      1 <0>        -0.1451
     17 C13        -5.5923    7.3435    1.5579 C.2       1 <0>         0.4982
     18 O2         -5.5824    6.1307    1.6344 O.co2     1 <0>        -0.6340
     19 Cl1        -1.0602   10.2200   -1.0869 Cl        1 <0>        -0.0839
     20 H1          1.9866    3.2070    1.0969 H         1 <0>         0.1363
     21 H2         -0.0828    4.5816    1.1585 H         1 <0>         0.1571
     22 H3         -2.0224    1.5269   -1.1290 H         1 <0>         0.1567
     23 H4          1.9599    1.0400   -0.0691 H         1 <0>         0.1544
     24 H5         -3.2454    3.4374   -0.0837 H         1 <0>         0.4144
     25 H6         -4.3402    5.4683    0.3336 H         1 <0>         0.4278
     26 H7         -1.6140    7.4457   -0.8161 H         1 <0>         0.1537
     27 H8         -3.3452   11.1806    0.3099 H         1 <0>         0.1293
     28 H9         -5.2092   10.0121    1.3992 H         1 <0>         0.1448
     29 O3         -6.6249    8.0424    2.0692 O.co2     1 <0>        -0.7387
@<TRIPOS>BOND
     1    1    6 ar
     2    1    2 ar
     3    1   20 1
     4    2    3 ar
     5    2   21 1
     6    3    4 ar
     7    3    7 1
     8    4    5 ar
     9    4   22 1
    10    5    6 ar
    11    6   23 1
    12    7    8 am
    13    7   24 1
    14    8    9 2
    15    8   10 am
    16   10   11 1
    17   10   25 1
    18   11   16 ar
    19   11   12 ar
    20   12   13 ar
    21   12   26 1
    22   13   14 ar
    23   13   19 1
    24   14   15 ar
    25   14   27 1
    26   15   16 ar
    27   15   28 1
    28   16   17 1
    29   17   18 2
    30   17   29 1
@<TRIPOS>MOLECULE
ZINC13531882
   30    31     0     0     0
SMALL
USER_CHARGES
2-[(4-bromophenyl)carbamoylamino]-4-chloro-benzoic acid
@<TRIPOS>ATOM
      1 C1          0.1000   -2.7736    0.5163 C.ar      1 <0>        -0.1157
      2 C2          0.0420   -4.1498    0.4157 C.ar      1 <0>        -0.0702
      3 C3          0.9578   -4.8265   -0.3703 C.ar      1 <0>        -0.1127
      4 C4          1.9304   -4.1265   -1.0620 C.ar      1 <0>        -0.0709
      5 C5          1.9894   -2.7497   -0.9695 C.ar      1 <0>        -0.1446
      6 C6          1.0715   -2.0681   -0.1814 C.ar      1 <0>         0.1905
      7 N1          1.1289   -0.6728   -0.0859 N.am      1 <0>        -0.6833
      8 C7         -0.0081    0.0426    0.0232 C.2       1 <0>         0.7006
      9 O1         -1.0772   -0.5271    0.1259 O.2       1 <0>        -0.5650
     10 N2          0.0401    1.3895    0.0184 N.am      1 <0>        -0.6512
     11 C8         -1.1400    2.1283    0.0091 C.ar      1 <0>         0.2075
     12 C9         -2.3042    1.5764   -0.5071 C.ar      1 <0>        -0.1442
     13 C10        -3.4753    2.3094   -0.5104 C.ar      1 <0>        -0.0111
     14 C11        -3.4951    3.6031   -0.0093 C.ar      1 <0>        -0.1497
     15 C12        -2.3481    4.1685    0.5014 C.ar      1 <0>        -0.0431
     16 C13        -1.1568    3.4370    0.5164 C.ar      1 <0>        -0.1466
     17 C14         0.0735    4.0360    1.0618 C.2       1 <0>         0.5001
     18 O2          1.1259    3.4324    0.9917 O.co2     1 <0>        -0.6351
     19 Cl1        -4.9293    1.6100   -1.1511 Cl        1 <0>        -0.0839
     20 Br1         0.8798   -6.7114   -0.4998 Br        1 <0>        -0.0604
     21 H1         -0.6124   -2.2463    1.1335 H         1 <0>         0.1523
     22 H2         -0.7164   -4.6987    0.9543 H         1 <0>         0.1343
     23 H3          2.6438   -4.6571   -1.6750 H         1 <0>         0.1346
     24 H4          2.7485   -2.2038   -1.5099 H         1 <0>         0.1354
     25 H5          1.9871   -0.2208   -0.0982 H         1 <0>         0.4139
     26 H6          0.8970    1.8441    0.0174 H         1 <0>         0.4287
     27 H7         -2.2956    0.5715   -0.9027 H         1 <0>         0.1541
     28 H8         -4.4146    4.1695   -0.0201 H         1 <0>         0.1292
     29 H9         -2.3687    5.1761    0.8897 H         1 <0>         0.1446
     30 O3          0.0319    5.2533    1.6385 O.co2     1 <0>        -0.7378
@<TRIPOS>BOND
     1    1    6 ar
     2    1    2 ar
     3    1   21 1
     4    2    3 ar
     5    2   22 1
     6    3    4 ar
     7    3   20 1
     8    4    5 ar
     9    4   23 1
    10    5    6 ar
    11    5   24 1
    12    6    7 1
    13    7    8 am
    14    7   25 1
    15    8    9 2
    16    8   10 am
    17   10   11 1
    18   10   26 1
    19   11   16 ar
    20   11   12 ar
    21   12   13 ar
    22   12   27 1
    23   13   14 ar
    24   13   19 1
    25   14   15 ar
    26   14   28 1
    27   15   16 ar
    28   15   29 1
    29   16   17 1
    30   17   18 2
    31   17   30 1
@<TRIPOS>MOLECULE
ZINC13531839
   30    31     0     0     0
SMALL
USER_CHARGES
4-chloro-2-[(2-iodophenyl)carbamoylamino]benzoic acid
@<TRIPOS>ATOM
      1 C1          1.8459    9.4725    0.4210 C.ar      1 <0>        -0.0823
      2 C2          2.6639   10.2208   -0.4058 C.ar      1 <0>        -0.1420
      3 C3          3.6273    9.5982   -1.1776 C.ar      1 <0>        -0.0666
      4 C4          3.7759    8.2254   -1.1246 C.ar      1 <0>        -0.1390
      5 C5          2.9561    7.4713   -0.2948 C.ar      1 <0>         0.2087
      6 C6          1.9860    8.0996    0.4750 C.ar      1 <0>        -0.1251
      7 N1          3.1036    6.0806   -0.2390 N.am      1 <0>        -0.6816
      8 C7          2.0359    5.2996    0.0191 C.2       1 <0>         0.7087
      9 O1          0.9652    5.8053    0.2945 O.2       1 <0>        -0.5659
     10 N2          2.1553    3.9579   -0.0282 N.am      1 <0>        -0.6497
     11 C8          1.0287    3.1531    0.1192 C.ar      1 <0>         0.1980
     12 C9          0.0643    3.4700    1.0656 C.ar      1 <0>        -0.1235
     13 C10        -1.0530    2.6702    1.2098 C.ar      1 <0>        -0.0186
     14 C11        -1.2228    1.5504    0.4084 C.ar      1 <0>        -0.1398
     15 C12        -0.2733    1.2179   -0.5318 C.ar      1 <0>        -0.0500
     16 C13         0.8625    2.0176   -0.6891 C.ar      1 <0>        -0.1323
     17 C14         1.8787    1.6709   -1.6976 C.2       1 <0>         0.4949
     18 O2          2.8417    2.3934   -1.8631 O.co2     1 <0>        -0.6285
     19 Cl1        -2.2551    3.0728    2.3958 Cl        1 <0>        -0.0841
     20 I1          5.2356    7.2825   -2.2949 I         1 <0>        -0.0365
     21 H1          1.0938    9.9619    1.0221 H         1 <0>         0.1302
     22 H2          2.5496   11.2939   -0.4489 H         1 <0>         0.1283
     23 H3          4.2641   10.1852   -1.8228 H         1 <0>         0.1300
     24 H4          1.3441    7.5156    1.1178 H         1 <0>         0.1582
     25 H5          3.9742    5.6789   -0.3861 H         1 <0>         0.4118
     26 H6          3.0261    3.5530   -0.1649 H         1 <0>         0.4232
     27 H7          0.1872    4.3428    1.6898 H         1 <0>         0.1415
     28 H8         -2.1021    0.9343    0.5254 H         1 <0>         0.1299
     29 H9         -0.4080    0.3426   -1.1500 H         1 <0>         0.1450
     30 O3          1.7404    0.5525   -2.4367 O.co2     1 <0>        -0.7431
@<TRIPOS>BOND
     1    1    6 ar
     2    1    2 ar
     3    1   21 1
     4    2    3 ar
     5    2   22 1
     6    3    4 ar
     7    3   23 1
     8    4    5 ar
     9    4   20 1
    10    5    6 ar
    11    5    7 1
    12    6   24 1
    13    7    8 am
    14    7   25 1
    15    8    9 2
    16    8   10 am
    17   10   11 1
    18   10   26 1
    19   11   16 ar
    20   11   12 ar
    21   12   13 ar
    22   12   27 1
    23   13   14 ar
    24   13   19 1
    25   14   15 ar
    26   14   28 1
    27   15   16 ar
    28   15   29 1
    29   16   17 1
    30   17   18 2
    31   17   30 1
@<TRIPOS>MOLECULE
ZINC13531885
   30    31     0     0     0
SMALL
USER_CHARGES
4-chloro-2-[(4-iodophenyl)carbamoylamino]benzoic acid
@<TRIPOS>ATOM
      1 C1          0.1011   -2.7736    0.5163 C.ar      1 <0>        -0.1169
      2 C2          0.0439   -4.1499    0.4159 C.ar      1 <0>        -0.0651
      3 C3          0.9601   -4.8261   -0.3695 C.ar      1 <0>        -0.1209
      4 C4          1.9320   -4.1260   -1.0615 C.ar      1 <0>        -0.0657
      5 C5          1.9904   -2.7492   -0.9695 C.ar      1 <0>        -0.1460
      6 C6          1.0724   -2.0677   -0.1814 C.ar      1 <0>         0.1937
      7 N1          1.1295   -0.6726   -0.0859 N.am      1 <0>        -0.6835
      8 C7         -0.0077    0.0425    0.0232 C.2       1 <0>         0.7005
      9 O1         -1.0768   -0.5274    0.1258 O.2       1 <0>        -0.5649
     10 N2          0.0401    1.3894    0.0184 N.am      1 <0>        -0.6512
     11 C8         -1.1402    2.1279    0.0091 C.ar      1 <0>         0.2075
     12 C9         -2.3042    1.5758   -0.5071 C.ar      1 <0>        -0.1442
     13 C10        -3.4755    2.3085   -0.5105 C.ar      1 <0>        -0.0111
     14 C11        -3.4957    3.6021   -0.0093 C.ar      1 <0>        -0.1497
     15 C12        -2.3488    4.1678    0.5014 C.ar      1 <0>        -0.0431
     16 C13        -1.1573    3.4366    0.5164 C.ar      1 <0>        -0.1466
     17 C14         0.0728    4.0359    1.0618 C.2       1 <0>         0.5001
     18 O2          1.1253    3.4326    0.9917 O.co2     1 <0>        -0.6351
     19 Cl1        -4.9292    1.6089   -1.1516 Cl        1 <0>        -0.0839
     20 I1          0.8750   -6.9145   -0.5120 I         1 <0>        -0.0539
     21 H1         -0.6117   -2.2465    1.1331 H         1 <0>         0.1515
     22 H2         -0.7140   -4.6990    0.9548 H         1 <0>         0.1306
     23 H3          2.6455   -4.6565   -1.6746 H         1 <0>         0.1309
     24 H4          2.7492   -2.2031   -1.5102 H         1 <0>         0.1345
     25 H5          1.9875   -0.2203   -0.0982 H         1 <0>         0.4139
     26 H6          0.8969    1.8443    0.0174 H         1 <0>         0.4287
     27 H7         -2.2953    0.5710   -0.9030 H         1 <0>         0.1541
     28 H8         -4.4153    4.1683   -0.0201 H         1 <0>         0.1292
     29 H9         -2.3696    5.1754    0.8897 H         1 <0>         0.1446
     30 O3          0.0310    5.2532    1.6385 O.co2     1 <0>        -0.7378
@<TRIPOS>BOND
     1    1    6 ar
     2    1    2 ar
     3    1   21 1
     4    2    3 ar
     5    2   22 1
     6    3    4 ar
     7    3   20 1
     8    4    5 ar
     9    4   23 1
    10    5    6 ar
    11    5   24 1
    12    6    7 1
    13    7    8 am
    14    7   25 1
    15    8    9 2
    16    8   10 am
    17   10   11 1
    18   10   26 1
    19   11   16 ar
    20   11   12 ar
    21   12   13 ar
    22   12   27 1
    23   13   14 ar
    24   13   19 1
    25   14   15 ar
    26   14   28 1
    27   15   16 ar
    28   15   29 1
    29   16   17 1
    30   17   18 2
    31   17   30 1
@<TRIPOS>MOLECULE
ZINC13531836
   30    31     0     0     0
SMALL
USER_CHARGES
2-[(2-bromophenyl)carbamoylamino]-4-chloro-benzoic acid
@<TRIPOS>ATOM
      1 C1          1.8172    9.4725    0.4391 C.ar      1 <0>        -0.0849
      2 C2          2.6336   10.2255   -0.3849 C.ar      1 <0>        -0.1410
      3 C3          3.6007    9.6081   -1.1563 C.ar      1 <0>        -0.0719
      4 C4          3.7542    8.2355   -1.1060 C.ar      1 <0>        -0.1301
      5 C5          2.9355    7.4766   -0.2791 C.ar      1 <0>         0.2052
      6 C6          1.9618    8.0999    0.4901 C.ar      1 <0>        -0.1249
      7 N1          3.0878    6.0862   -0.2259 N.am      1 <0>        -0.6787
      8 C7          2.0237    5.3012    0.0351 C.2       1 <0>         0.7088
      9 O1          0.9523    5.8030    0.3152 O.2       1 <0>        -0.5670
     10 N2          2.1474    3.9601   -0.0143 N.am      1 <0>        -0.6497
     11 C8          1.0241    3.1513    0.1362 C.ar      1 <0>         0.1982
     12 C9          0.0621    3.4638    1.0865 C.ar      1 <0>        -0.1234
     13 C10        -1.0520    2.6601    1.2338 C.ar      1 <0>        -0.0185
     14 C11        -1.2207    1.5404    0.4320 C.ar      1 <0>        -0.1399
     15 C12        -0.2737    1.2124   -0.5123 C.ar      1 <0>        -0.0499
     16 C13         0.8588    2.0162   -0.6729 C.ar      1 <0>        -0.1326
     17 C14         1.8725    1.6741   -1.6854 C.2       1 <0>         0.4950
     18 O2          2.8319    2.4006   -1.8543 O.co2     1 <0>        -0.6294
     19 Cl1        -2.2514    3.0575    2.4242 Cl        1 <0>        -0.0841
     20 Br1         5.0767    7.3915   -2.1618 Br        1 <0>        -0.0436
     21 H1          1.0625    9.9579    1.0401 H         1 <0>         0.1304
     22 H2          2.5152   11.2982   -0.4261 H         1 <0>         0.1290
     23 H3          4.2365   10.1989   -1.7991 H         1 <0>         0.1334
     24 H4          1.3208    7.5122    1.1306 H         1 <0>         0.1594
     25 H5          3.9591    5.6876   -0.3770 H         1 <0>         0.4136
     26 H6          3.0191    3.5582   -0.1547 H         1 <0>         0.4233
     27 H7          0.1843    4.3362    1.7113 H         1 <0>         0.1416
     28 H8         -2.0972    0.9209    0.5517 H         1 <0>         0.1299
     29 H9         -0.4079    0.3377   -1.1314 H         1 <0>         0.1450
     30 O3          1.7360    0.5555   -2.4245 O.co2     1 <0>        -0.7431
@<TRIPOS>BOND
     1    1    6 ar
     2    1    2 ar
     3    1   21 1
     4    2    3 ar
     5    2   22 1
     6    3    4 ar
     7    3   23 1
     8    4    5 ar
     9    4   20 1
    10    5    6 ar
    11    5    7 1
    12    6   24 1
    13    7    8 am
    14    7   25 1
    15    8    9 2
    16    8   10 am
    17   10   11 1
    18   10   26 1
    19   11   16 ar
    20   11   12 ar
    21   12   13 ar
    22   12   27 1
    23   13   14 ar
    24   13   19 1
    25   14   15 ar
    26   14   28 1
    27   15   16 ar
    28   15   29 1
    29   16   17 1
    30   17   18 2
    31   17   30 1
@<TRIPOS>MOLECULE
ZINC13531825
   30    31     0     0     0
SMALL
USER_CHARGES
4-chloro-2-(phenylcarbamoylamino)benzoic acid
@<TRIPOS>ATOM
      1 C1          0.9588   -4.8257   -0.3693 C.ar      1 <0>        -0.1430
      2 C2          1.9308   -4.1263   -1.0607 C.ar      1 <0>        -0.1032
      3 C3          1.9898   -2.7494   -0.9691 C.ar      1 <0>        -0.1499
      4 C4          1.0720   -2.0675   -0.1810 C.ar      1 <0>         0.1707
      5 C5          0.1006   -2.7733    0.5167 C.ar      1 <0>        -0.1205
      6 C6          0.0436   -4.1496    0.4166 C.ar      1 <0>        -0.1023
      7 N1          1.1294   -0.6726   -0.0856 N.am      1 <0>        -0.6838
      8 C7         -0.0076    0.0428    0.0234 C.2       1 <0>         0.7002
      9 O1         -1.0768   -0.5269    0.1261 O.2       1 <0>        -0.5669
     10 N2          0.0405    1.3897    0.0185 N.am      1 <0>        -0.6532
     11 C8         -1.1396    2.1284    0.0091 C.ar      1 <0>         0.2093
     12 C9         -2.3038    1.5765   -0.5071 C.ar      1 <0>        -0.1448
     13 C10        -3.4747    2.3099   -0.5114 C.ar      1 <0>        -0.0109
     14 C11        -3.4945    3.6035   -0.0104 C.ar      1 <0>        -0.1509
     15 C12        -2.3476    4.1688    0.5007 C.ar      1 <0>        -0.0431
     16 C13        -1.1565    3.4372    0.5163 C.ar      1 <0>        -0.1479
     17 C14         0.0737    4.0361    1.0621 C.2       1 <0>         0.5001
     18 O2          1.1260    3.4323    0.9925 O.co2     1 <0>        -0.6349
     19 Cl1        -4.9284    1.6107   -1.1531 Cl        1 <0>        -0.0849
     20 H1          0.9145   -5.9022   -0.4429 H         1 <0>         0.1193
     21 H2          2.6444   -4.6572   -1.6734 H         1 <0>         0.1230
     22 H3          2.7492   -2.2037   -1.5094 H         1 <0>         0.1244
     23 H4         -0.6121   -2.2461    1.1336 H         1 <0>         0.1424
     24 H5         -0.7141   -4.6987    0.9558 H         1 <0>         0.1229
     25 H6          1.9875   -0.2205   -0.0980 H         1 <0>         0.4112
     26 H7          0.8973    1.8443    0.0175 H         1 <0>         0.4281
     27 H8         -2.2953    0.5714   -0.9022 H         1 <0>         0.1541
     28 H9         -4.4139    4.1701   -0.0216 H         1 <0>         0.1288
     29 H10        -2.3682    5.1764    0.8889 H         1 <0>         0.1443
     30 O3          0.0321    5.2535    1.6386 O.co2     1 <0>        -0.7387
@<TRIPOS>BOND
     1    1    6 ar
     2    1    2 ar
     3    1   20 1
     4    2    3 ar
     5    2   21 1
     6    3    4 ar
     7    3   22 1
     8    4    5 ar
     9    4    7 1
    10    5    6 ar
    11    5   23 1
    12    6   24 1
    13    7    8 am
    14    7   25 1
    15    8    9 2
    16    8   10 am
    17   10   11 1
    18   10   26 1
    19   11   16 ar
    20   11   12 ar
    21   12   13 ar
    22   12   27 1
    23   13   14 ar
    24   13   19 1
    25   14   15 ar
    26   14   28 1
    27   15   16 ar
    28   15   29 1
    29   16   17 1
    30   17   18 2
    31   17   30 1
@<TRIPOS>MOLECULE
ZINC13531918
   36    38     0     0     0
SMALL
USER_CHARGES
4-chloro-2-(1-naphthylcarbamoylamino)benzoic acid
@<TRIPOS>ATOM
      1 C1          0.6801    1.7640    1.8521 C.ar      1 <0>        -0.1158
      2 C2          0.6717    3.1572    1.8840 C.ar      1 <0>        -0.1218
      3 C3         -0.3386    3.8650    1.3078 C.ar      1 <0>        -0.1027
      4 C4         -1.3888    3.1847    0.6715 C.ar      1 <0>        -0.0697
      5 C5         -1.3780    1.7685    0.6330 C.ar      1 <0>        -0.0310
      6 C6         -0.3211    1.0713    1.2438 C.ar      1 <0>        -0.1083
      7 C7         -2.4316    1.0857    0.0019 C.ar      1 <0>        -0.1402
      8 C8         -3.4459    1.7863   -0.5763 C.ar      1 <0>        -0.0831
      9 C9         -3.4640    3.1776   -0.5505 C.ar      1 <0>        -0.1395
     10 C10        -2.4527    3.8843    0.0636 C.ar      1 <0>         0.1843
     11 N1         -2.4804    5.2801    0.0838 N.am      1 <0>        -0.6748
     12 C11        -3.6551    5.9323   -0.0218 C.2       1 <0>         0.7012
     13 O1         -4.6984    5.3081   -0.0308 O.2       1 <0>        -0.5613
     14 N2         -3.6733    7.2766   -0.1172 N.am      1 <0>        -0.6500
     15 C12        -4.8870    7.9588   -0.1075 C.ar      1 <0>         0.2071
     16 C13        -5.9995    7.3941    0.5005 C.ar      1 <0>        -0.1439
     17 C14        -7.2014    8.0755    0.5140 C.ar      1 <0>        -0.0115
     18 C15        -7.3091    9.3208   -0.0881 C.ar      1 <0>        -0.1496
     19 C16        -6.2170    9.8936   -0.7009 C.ar      1 <0>        -0.0434
     20 C17        -4.9928    9.2186   -0.7175 C.ar      1 <0>        -0.1459
     21 C18        -3.8208    9.8261   -1.3710 C.2       1 <0>         0.4984
     22 O2         -2.7853    9.1975   -1.4679 O.co2     1 <0>        -0.6340
     23 Cl1        -8.5867    7.3663    1.2832 Cl        1 <0>        -0.0842
     24 H1          1.4932    1.2261    2.3167 H         1 <0>         0.1211
     25 H2          1.4786    3.6831    2.3726 H         1 <0>         0.1223
     26 H3         -0.3319    4.9445    1.3398 H         1 <0>         0.1222
     27 H4         -0.3014   -0.0084    1.2265 H         1 <0>         0.1265
     28 H5         -2.4345    0.0061   -0.0284 H         1 <0>         0.1246
     29 H6         -4.2494    1.2536   -1.0631 H         1 <0>         0.1251
     30 H7         -4.2800    3.7095   -1.0169 H         1 <0>         0.1520
     31 H8         -1.6543    5.7804    0.1737 H         1 <0>         0.4103
     32 H9         -2.8409    7.7688   -0.1928 H         1 <0>         0.4271
     33 H10        -5.9247    6.4230    0.9671 H         1 <0>         0.1544
     34 H11        -8.2541    9.8434   -0.0765 H         1 <0>         0.1290
     35 H12        -6.3062   10.8630   -1.1685 H         1 <0>         0.1445
     36 O3         -3.8967   11.0791   -1.8613 O.co2     1 <0>        -0.7393
@<TRIPOS>BOND
     1    1    6 ar
     2    1    2 ar
     3    1   24 1
     4    2    3 ar
     5    2   25 1
     6    3    4 ar
     7    3   26 1
     8    4   10 ar
     9    4    5 ar
    10    5    6 ar
    11    5    7 ar
    12    6   27 1
    13    7    8 ar
    14    7   28 1
    15    8    9 ar
    16    8   29 1
    17    9   10 ar
    18    9   30 1
    19   10   11 1
    20   11   12 am
    21   11   31 1
    22   12   13 2
    23   12   14 am
    24   14   15 1
    25   14   32 1
    26   15   20 ar
    27   15   16 ar
    28   16   17 ar
    29   16   33 1
    30   17   18 ar
    31   17   23 1
    32   18   19 ar
    33   18   34 1
    34   19   20 ar
    35   19   35 1
    36   20   21 1
    37   21   22 2
    38   21   36 1
@<TRIPOS>MOLECULE
ZINC00754759
   44    46     0     0     0
SMALL
USER_CHARGES

@<TRIPOS>ATOM
      1 C1          0.1557    1.8791   -0.3579 C.ar      1 <0>        -0.1069
      2 C2          1.2698    2.3425   -1.0350 C.ar      1 <0>        -0.1374
      3 C3          2.4189    1.5806   -1.0816 C.ar      1 <0>        -0.0648
      4 C4          2.4560    0.3395   -0.4436 C.ar      1 <0>        -0.1164
      5 C5          1.3284   -0.1221    0.2378 C.ar      1 <0>        -0.0759
      6 C6          0.1858    0.6498    0.2766 C.ar      1 <0>        -0.1299
      7 C7          3.6835   -0.4824   -0.4898 C.2       1 <0>         0.5421
      8 O1          4.6636   -0.0781   -1.0841 O.2       1 <0>        -0.5378
      9 N1          3.7161   -1.6802    0.1272 N.am      1 <0>        -0.6228
     10 C8          4.8327   -2.4931    0.0046 C.ar      1 <0>         0.1777
     11 C9          6.0964   -1.9277   -0.0625 C.ar      1 <0>        -0.1539
     12 C10         7.2157   -2.7359   -0.1856 C.ar      1 <0>         0.1796
     13 C11         7.0728   -4.1375   -0.2425 C.ar      1 <0>        -0.1950
     14 C12         5.8040   -4.7100   -0.1749 C.ar      1 <0>        -0.0132
     15 C13         4.6816   -3.8942   -0.0458 C.ar      1 <0>        -0.1949
     16 C14         3.3419   -4.4929    0.0319 C.2       1 <0>         0.5337
     17 O2          3.2174   -5.7091    0.0855 O.co2     1 <0>        -0.6832
     18 O3          2.3507   -3.7753    0.0431 O.co2     1 <0>        -0.7033
     19 C15         8.2601   -4.9934   -0.3734 C.2       1 <0>         0.5349
     20 O4          8.1442   -6.2109   -0.3320 O.co2     1 <0>        -0.6822
     21 O5          9.3647   -4.4886   -0.5239 O.co2     1 <0>        -0.7039
     22 N2          8.4777   -2.1652   -0.2532 N.am      1 <0>        -0.6262
     23 C16         8.7517   -1.0499    0.4521 C.2       1 <0>         0.5412
     24 O6          7.9265   -0.6003    1.2229 O.2       1 <0>        -0.5371
     25 C17        10.0556   -0.3737    0.2884 C.ar      1 <0>        -0.1154
     26 C18        11.0035   -0.8842   -0.6002 C.ar      1 <0>        -0.0781
     27 C19        12.2186   -0.2482   -0.7482 C.ar      1 <0>        -0.1296
     28 C20        12.4991    0.8931   -0.0180 C.ar      1 <0>        -0.1072
     29 C21        11.5642    1.4042    0.8649 C.ar      1 <0>        -0.1364
     30 C22        10.3426    0.7817    1.0175 C.ar      1 <0>        -0.0645
     31 H1         -0.7399    2.4815   -0.3208 H         1 <0>         0.1197
     32 H2          1.2396    3.3027   -1.5285 H         1 <0>         0.1226
     33 H3          3.2877    1.9434   -1.6108 H         1 <0>         0.1334
     34 H4          1.3504   -1.0816    0.7331 H         1 <0>         0.1392
     35 H5         -0.6873    0.2939    0.8033 H         1 <0>         0.1256
     36 H6          2.9584   -1.9736    0.6570 H         1 <0>         0.4208
     37 H7          6.2092   -0.8545   -0.0192 H         1 <0>         0.1448
     38 H8          5.6912   -5.7832   -0.2186 H         1 <0>         0.1387
     39 H9          9.1634   -2.5687   -0.8082 H         1 <0>         0.4228
     40 H10        10.7861   -1.7754   -1.1703 H         1 <0>         0.1368
     41 H11        12.9528   -0.6421   -1.4354 H         1 <0>         0.1257
     42 H12        13.4520    1.3871   -0.1373 H         1 <0>         0.1199
     43 H13        11.7896    2.2952    1.4321 H         1 <0>         0.1230
     44 H14         9.6118    1.1846    1.7031 H         1 <0>         0.1338
@<TRIPOS>BOND
     1    1    6 ar
     2    1    2 ar
     3    1   31 1
     4    2    3 ar
     5    2   32 1
     6    3    4 ar
     7    3   33 1
     8    4    5 ar
     9    4    7 1
    10    5    6 ar
    11    5   34 1
    12    6   35 1
    13    7    8 2
    14    7    9 am
    15    9   10 1
    16    9   36 1
    17   10   15 ar
    18   10   11 ar
    19   11   12 ar
    20   11   37 1
    21   12   13 ar
    22   12   22 1
    23   13   14 ar
    24   13   19 1
    25   14   15 ar
    26   14   38 1
    27   15   16 1
    28   16   17 2
    29   16   18 1
    30   19   20 2
    31   19   21 1
    32   22   23 am
    33   22   39 1
    34   23   24 2
    35   23   25 1
    36   25   30 ar
    37   25   26 ar
    38   26   27 ar
    39   26   40 1
    40   27   28 ar
    41   27   41 1
    42   28   29 ar
    43   28   42 1
    44   29   30 ar
    45   29   43 1
    46   30   44 1
@<TRIPOS>MOLECULE
ZINC13531858
   30    31     0     0     0
SMALL
USER_CHARGES
4-chloro-2-[(3-fluorophenyl)carbamoylamino]benzoic acid
@<TRIPOS>ATOM
      1 C1         -3.8296   -0.9405   -0.2209 C.ar      1 <0>        -0.0720
      2 C2         -2.6189   -0.2790   -0.2933 C.ar      1 <0>        -0.1294
      3 C3         -2.5071    1.0182    0.1893 C.ar      1 <0>         0.2023
      4 C4         -3.6162    1.6518    0.7338 C.ar      1 <0>        -0.1860
      5 C5         -4.8273    0.9870    0.7991 C.ar      1 <0>         0.1149
      6 C6         -4.9330   -0.3091    0.3217 C.ar      1 <0>        -0.1748
      7 F1         -5.9076    1.6020    1.3281 F         1 <0>        -0.1403
      8 N1         -1.2803    1.6878    0.1217 N.am      1 <0>        -0.6827
      9 C7         -0.1306    1.0076    0.3004 C.2       1 <0>         0.7031
     10 O1         -0.1538   -0.2004    0.4362 O.2       1 <0>        -0.5648
     11 N2          1.0453    1.6658    0.3230 N.am      1 <0>        -0.6497
     12 C8          2.2216    0.9799    0.6137 C.ar      1 <0>         0.2065
     13 C9          2.1861   -0.1631    1.4002 C.ar      1 <0>        -0.1409
     14 C10         3.3541   -0.8446    1.6838 C.ar      1 <0>        -0.0120
     15 C11         4.5695   -0.3882    1.1945 C.ar      1 <0>        -0.1485
     16 C12         4.6239    0.7471    0.4171 C.ar      1 <0>        -0.0440
     17 C13         3.4499    1.4444    0.1177 C.ar      1 <0>        -0.1446
     18 C14         3.5013    2.6592   -0.7138 C.2       1 <0>         0.4981
     19 O2          2.4709    3.2023   -1.0605 O.co2     1 <0>        -0.6341
     20 Cl1         3.3013   -2.2770    2.6631 Cl        1 <0>        -0.0840
     21 H1         -3.9152   -1.9508   -0.5930 H         1 <0>         0.1355
     22 H2         -1.7587   -0.7722   -0.7213 H         1 <0>         0.1493
     23 H3         -3.5331    2.6622    1.1062 H         1 <0>         0.1381
     24 H4         -5.8793   -0.8271    0.3733 H         1 <0>         0.1334
     25 H5         -1.2573    2.6415   -0.0537 H         1 <0>         0.4137
     26 H6          1.0721    2.6174    0.1367 H         1 <0>         0.4270
     27 H7          1.2442   -0.5224    1.7877 H         1 <0>         0.1515
     28 H8          5.4775   -0.9257    1.4249 H         1 <0>         0.1292
     29 H9          5.5727    1.0986    0.0393 H         1 <0>         0.1446
     30 O3          4.6910    3.1683   -1.0902 O.co2     1 <0>        -0.7395
@<TRIPOS>BOND
     1    1    6 ar
     2    1    2 ar
     3    1   21 1
     4    2    3 ar
     5    2   22 1
     6    3    4 ar
     7    3    8 1
     8    4    5 ar
     9    4   23 1
    10    5    6 ar
    11    5    7 1
    12    6   24 1
    13    8    9 am
    14    8   25 1
    15    9   10 2
    16    9   11 am
    17   11   12 1
    18   11   26 1
    19   12   17 ar
    20   12   13 ar
    21   13   14 ar
    22   13   27 1
    23   14   15 ar
    24   14   20 1
    25   15   16 ar
    26   15   28 1
    27   16   17 ar
    28   16   29 1
    29   17   18 1
    30   18   19 2
    31   18   30 1
@<TRIPOS>MOLECULE
ZINC08585017
   31    33     0     0     0
SMALL
USER_CHARGES

@<TRIPOS>ATOM
      1 C1          0.2332    1.3841    0.6570 C.ar      1 <0>        -0.1163
      2 C2          1.3450    2.1030    0.3352 C.ar      1 <0>        -0.0461
      3 C3          2.5286    1.4337   -0.0104 C.ar      1 <0>        -0.0508
      4 C4          2.5507    0.0178   -0.0197 C.ar      1 <0>         0.0703
      5 C5          1.3858   -0.6903    0.3181 C.ar      1 <0>        -0.6623
      6 C6          0.2539   -0.0082    0.6481 C.ar      1 <0>         0.0100
      7 S1          1.3881   -2.4523    0.3133 S.o2      1 <0>         2.6604
      8 O1          1.2671   -2.8548   -1.0441 O.2       1 <0>        -0.9037
      9 O2          2.4738   -2.8593    1.1348 O.2       1 <0>        -0.9426
     10 N1          0.0047   -2.9457    1.0783 N.pl3     1 <0>        -1.2465
     11 C7          3.7370   -0.6553   -0.3670 C.ar      1 <0>        -0.0313
     12 C8          4.8514    0.0498   -0.6900 C.ar      1 <0>        -0.0208
     13 C9          4.8498    1.4521   -0.6862 C.ar      1 <0>         0.1138
     14 C10         3.6989    2.1491   -0.3497 C.ar      1 <0>         0.1787
     15 N2          3.6832    3.5358   -0.3424 N.am      1 <0>        -0.6274
     16 H1          2.8706    4.0090   -0.1045 H         1 <0>         0.4261
     17 C11         4.7946    4.2283   -0.6646 C.2       1 <0>         0.5118
     18 O3          4.7862    5.4433   -0.6593 O.2       1 <0>        -0.4441
     19 C12         6.0334    3.4831   -1.0268 C.2       1 <0>         0.5112
     20 O4          7.0481    4.0831   -1.3210 O.2       1 <0>        -0.4495
     21 N3          6.0144    2.1351   -1.0235 N.am      1 <0>        -0.6258
     22 H2          6.8149    1.6397   -1.2576 H         1 <0>         0.4304
     23 N4          3.7698   -2.1354   -0.3796 N.pl3     1 <0>        -0.0336
     24 O5          4.3500   -2.7346    0.4957 O.2       1 <0>        -0.0101
     25 O6          3.2166   -2.7448   -1.2651 O.3       1 <0>        -0.1547
     26 H3         -0.6756    1.9014    0.9270 H         1 <0>         0.1537
     27 H4          1.3152    3.1825    0.3457 H         1 <0>         0.1466
     28 H5         -0.6405   -0.5552    0.9075 H         1 <0>         0.1465
     29 H6         -0.6187   -2.2884    1.4249 H         1 <0>         0.4109
     30 H7         -0.1821   -3.8921    1.1798 H         1 <0>         0.4276
     31 H8          5.7553   -0.4788   -0.9543 H         1 <0>         0.1677
@<TRIPOS>BOND
     1    1    6 ar
     2    1    2 ar
     3    1   26 1
     4    2    3 ar
     5    2   27 1
     6    3   14 ar
     7    3    4 ar
     8    4    5 ar
     9    4   11 ar
    10    5    6 ar
    11    5    7 1
    12    6   28 1
    13    7    8 2
    14    7    9 2
    15    7   10 1
    16   10   29 1
    17   10   30 1
    18   11   12 ar
    19   11   23 1
    20   12   13 ar
    21   12   31 1
    22   13   21 1
    23   13   14 ar
    24   14   15 1
    25   15   16 1
    26   15   17 am
    27   17   18 2
    28   17   19 1
    29   19   20 2
    30   19   21 am
    31   21   22 1
    32   23   24 2
    33   23   25 1
@<TRIPOS>MOLECULE
ZINC08585017
   30    32     0     0     0
SMALL
USER_CHARGES

@<TRIPOS>ATOM
      1 C1         -0.6276    0.4370   -1.7736 C.ar      1 <0>        -0.1731
      2 C2          0.3567    1.2003   -2.3318 C.ar      1 <0>         0.0069
      3 C3          1.6968    0.8795   -2.0978 C.ar      1 <0>        -0.0630
      4 C4          2.0190   -0.2327   -1.2850 C.ar      1 <0>         0.0918
      5 C5          0.9824   -0.9962   -0.7260 C.ar      1 <0>        -0.6997
      6 C6         -0.3146   -0.6572   -0.9739 C.ar      1 <0>         0.0068
      7 S1          1.3554   -2.3868    0.2896 S.o2      1 <0>         2.6622
      8 O1          1.7041   -3.4487   -0.5879 O.2       1 <0>        -0.9158
      9 O2          2.2299   -1.9224    1.3088 O.2       1 <0>        -0.9452
     10 N1         -0.0506   -2.8358    1.0407 N.pl3     1 <0>        -1.2459
     11 C7          3.3708   -0.5559   -1.0503 C.ar      1 <0>        -0.1204
     12 C8          4.3691    0.1831   -1.5919 C.ar      1 <0>         0.0054
     13 C9          4.1065    1.2943   -2.4040 C.ar      1 <0>        -0.0110
     14 C10         2.7853    1.6709   -2.6771 C.ar      1 <0>         0.2503
     15 N2          2.5158    2.7321   -3.4521 N.2       1 <0>        -0.5968
     16 C11         3.4796    3.4477   -3.9760 C.2       1 <0>         0.4326
     17 O3          3.1851    4.5165   -4.7560 O.3       1 <0>        -0.5869
     18 C12         4.8815    3.0897   -3.7160 C.2       1 <0>         0.4736
     19 O4          5.7864    3.7475   -4.1978 O.2       1 <0>        -0.5174
     20 N3          5.1522    2.0207   -2.9364 N.am      1 <0>        -0.6182
     21 H1          6.0702    1.7673   -2.7519 H         1 <0>         0.4056
     22 N4          3.7049   -1.7200   -0.1990 N.pl3     1 <0>        -0.0190
     23 O5          4.1212   -1.5487    0.9230 O.2       1 <0>        -0.0412
     24 O6          3.5614   -2.8420   -0.6258 O.3       1 <0>        -0.1772
     25 H2         -1.6628    0.6885   -1.9514 H         1 <0>         0.1355
     26 H3          0.1015    2.0474   -2.9513 H         1 <0>         0.1531
     27 H4         -1.1104   -1.2463   -0.5426 H         1 <0>         0.1338
     28 H5         -0.4520   -3.6967    0.8440 H         1 <0>         0.4197
     29 H6         -0.4727   -2.2379    1.6772 H         1 <0>         0.4165
     30 H7          5.3943   -0.0914   -1.3921 H         1 <0>         0.1369
@<TRIPOS>BOND
     1    1    6 ar
     2    1    2 ar
     3    1   25 1
     4    2    3 ar
     5    2   26 1
     6    3   14 ar
     7    3    4 ar
     8    4    5 ar
     9    4   11 ar
    10    5    6 ar
    11    5    7 1
    12    6   27 1
    13    7    8 2
    14    7    9 2
    15    7   10 1
    16   10   28 1
    17   10   29 1
    18   11   12 ar
    19   11   22 1
    20   12   13 ar
    21   12   30 1
    22   13   20 1
    23   13   14 ar
    24   14   15 1
    25   15   16 2
    26   16   17 1
    27   16   18 1
    28   18   19 2
    29   18   20 am
    30   20   21 1
    31   22   23 2
    32   22   24 1
@<TRIPOS>MOLECULE
ZINC08585017
   30    32     0     0     0
SMALL
USER_CHARGES

@<TRIPOS>ATOM
      1 C1          0.2456    1.3834    0.6714 C.ar      1 <0>        -0.1313
      2 C2          1.3577    2.1012    0.3447 C.ar      1 <0>        -0.0563
      3 C3          2.5384    1.4313   -0.0062 C.ar      1 <0>        -0.0329
      4 C4          2.5597    0.0160   -0.0166 C.ar      1 <0>         0.0376
      5 C5          1.3970   -0.6903    0.3261 C.ar      1 <0>        -0.6495
      6 C6          0.2655   -0.0079    0.6614 C.ar      1 <0>        -0.0272
      7 S1          1.3984   -2.4523    0.3206 S.o2      1 <0>         2.6599
      8 O1          1.2733   -2.8543   -1.0366 O.2       1 <0>        -0.9123
      9 O2          2.4863   -2.8602    1.1387 O.2       1 <0>        -0.9464
     10 N1          0.0171   -2.9454    1.0895 N.pl3     1 <0>        -1.2511
     11 C7          3.7448   -0.6631   -0.3704 C.ar      1 <0>        -0.0537
     12 C8          4.8595    0.0289   -0.6994 C.ar      1 <0>         0.0031
     13 C9          4.8669    1.4424   -0.6970 C.ar      1 <0>         0.1698
     14 C10         3.7083    2.1457   -0.3510 C.ar      1 <0>         0.0654
     15 N2          3.7054    3.5214   -0.3466 N.am      1 <0>        -0.6172
     16 H1          2.9024    4.0100   -0.1071 H         1 <0>         0.4012
     17 C11         4.8349    4.1831   -0.6796 C.2       1 <0>         0.4746
     18 O3          4.8602    5.4008   -0.6836 O.2       1 <0>        -0.5142
     19 C12         6.0339    3.4096   -1.0369 C.2       1 <0>         0.4197
     20 O4          7.1791    4.0511   -1.3748 O.3       1 <0>        -0.6118
     21 N3          5.9939    2.1025   -1.0293 N.2       1 <0>        -0.5931
     22 N4          3.7686   -2.1433   -0.3812 N.pl3     1 <0>        -0.0254
     23 O5          4.3466   -2.7449    0.4938 O.2       1 <0>        -0.0281
     24 O6          3.2101   -2.7504   -1.2650 O.3       1 <0>        -0.1734
     25 H2         -0.6615    1.9014    0.9458 H         1 <0>         0.1381
     26 H3          1.3293    3.1807    0.3559 H         1 <0>         0.1345
     27 H4         -0.6278   -0.5549    0.9243 H         1 <0>         0.1324
     28 H5         -0.6050   -2.2879    1.4382 H         1 <0>         0.4093
     29 H6         -0.1699   -3.8918    1.1912 H         1 <0>         0.4219
     30 H7          5.7581   -0.5068   -0.9677 H         1 <0>         0.1561
@<TRIPOS>BOND
     1    1    6 ar
     2    1    2 ar
     3    1   25 1
     4    2    3 ar
     5    2   26 1
     6    3   14 ar
     7    3    4 ar
     8    4    5 ar
     9    4   11 ar
    10    5    6 ar
    11    5    7 1
    12    6   27 1
    13    7    8 2
    14    7    9 2
    15    7   10 1
    16   10   28 1
    17   10   29 1
    18   11   12 ar
    19   11   22 1
    20   12   13 ar
    21   12   30 1
    22   13   21 1
    23   13   14 ar
    24   14   15 1
    25   15   16 1
    26   15   17 am
    27   17   18 2
    28   17   19 1
    29   19   20 1
    30   19   21 2
    31   22   23 2
    32   22   24 1
@<TRIPOS>MOLECULE
ZINC03995575
   29    29     0     0     0
SMALL
USER_CHARGES

@<TRIPOS>ATOM
      1 C1          1.0799   -0.3943   -0.7951 C.3       1 <0>        -0.1264
      2 C2         -0.0539    0.0466    0.0944 C.2       1 <0>        -0.0851
      3 C3          0.1239    1.0269    0.9449 C.2       1 <0>        -0.2152
      4 C4         -1.3923   -0.6404    0.0054 C.3       1 <0>        -0.0829
      5 H1         -1.2738   -1.7222    0.0665 H         1 <0>         0.1010
      6 C5         -2.3455   -0.1298    1.1150 C.3       1 <0>        -0.0057
      7 N1         -3.6945   -0.3983    0.5543 N.4       1 <0>        -0.4952
      8 C6         -3.6039   -0.0757   -0.8862 C.3       1 <0>        -0.0344
      9 H2         -3.9248    0.9517   -1.0576 H         1 <0>         0.1243
     10 C7         -2.1258   -0.2430   -1.2962 C.3       1 <0>        -0.0443
     11 H3         -2.0240   -1.0302   -2.0432 H         1 <0>         0.1083
     12 C8         -1.5723    1.0774   -1.8356 C.3       1 <0>        -0.1808
     13 C9         -2.1700    1.3564   -3.1906 C.2       1 <0>         0.4629
     14 O1         -2.9649    0.5718   -3.6795 O.co2     1 <0>        -0.6259
     15 O2         -1.8586    2.3667   -3.7980 O.co2     1 <0>        -0.7225
     16 C10        -4.4676   -1.0222   -1.6795 C.2       1 <0>         0.4844
     17 O3         -5.1257   -1.8732   -1.1058 O.co2     1 <0>        -0.7147
     18 O4         -4.5083   -0.9368   -2.8951 O.co2     1 <0>        -0.5649
     19 H4          1.9427    0.2513   -0.6309 H         1 <0>         0.0649
     20 H5          1.3469   -1.4245   -0.5597 H         1 <0>         0.0674
     21 H6          0.7702   -0.3284   -1.8381 H         1 <0>         0.0792
     22 H7         -0.6562    1.2804    1.6475 H         1 <0>         0.0960
     23 H8          1.0505    1.5817    0.9435 H         1 <0>         0.1029
     24 H9         -2.1947   -0.6883    2.0388 H         1 <0>         0.1211
     25 H10        -2.2040    0.9380    1.2824 H         1 <0>         0.1276
     26 H11        -3.9359   -1.3700    0.6788 H         1 <0>         0.4255
     27 H12        -1.8299    1.8859   -1.1515 H         1 <0>         0.0481
     28 H13        -0.4881    1.0078   -1.9241 H         1 <0>         0.0711
     29 H14        -4.3805    0.1919    1.0005 H         1 <0>         0.4136
@<TRIPOS>BOND
     1    1    2 1
     2    1   19 1
     3    1   20 1
     4    1   21 1
     5    2    3 2
     6    2    4 1
     7    3   22 1
     8    3   23 1
     9    4    5 1
    10    4   10 1
    11    4    6 1
    12    6    7 1
    13    6   24 1
    14    6   25 1
    15    7    8 1
    16    7   26 1
    17    7   29 1
    18    8    9 1
    19    8   10 1
    20    8   16 1
    21   10   11 1
    22   10   12 1
    23   12   13 1
    24   12   27 1
    25   12   28 1
    26   13   14 2
    27   13   15 1
    28   16   17 2
    29   16   18 1
@<TRIPOS>MOLECULE
ZINC00896091
   21    20     0     0     0
SMALL
USER_CHARGES

@<TRIPOS>ATOM
      1 C1          0.0713   -0.2098    1.8253 C.3       1 <0>        -0.1188
      2 C2         -0.2638   -0.0520    0.3408 C.3       1 <0>        -0.1744
      3 H1         -0.2683    1.0063    0.0798 H         1 <0>         0.0495
      4 C3         -1.6437   -0.6517    0.0629 C.3       1 <0>        -0.0949
      5 C4         -2.0504   -0.3483   -1.3805 C.3       1 <0>        -0.0589
      6 H2         -1.2916   -0.7351   -2.0608 H         1 <0>         0.1697
      7 C5         -3.3737   -1.0050   -1.6783 C.2       1 <0>         0.4940
      8 O1         -4.3725   -0.3225   -1.8296 O.co2     1 <0>        -0.6948
      9 O2         -3.4454   -2.2188   -1.7677 O.co2     1 <0>        -0.6442
     10 N1         -2.1735    1.1046   -1.5594 N.4       1 <0>        -0.6052
     11 C6          0.7715   -0.7691   -0.4869 C.2       1 <0>         0.4948
     12 O3          1.6921   -1.3522    0.0599 O.co2     1 <0>        -0.6810
     13 O4          0.6886   -0.7660   -1.7033 O.co2     1 <0>        -0.6985
     14 H3          1.0541    0.2178    2.0233 H         1 <0>         0.0544
     15 H4         -0.6778    0.3084    2.4239 H         1 <0>         0.0343
     16 H5          0.0763   -1.2682    2.0861 H         1 <0>         0.0577
     17 H6         -1.6073   -1.7310    0.2108 H         1 <0>         0.0978
     18 H7         -2.3734   -0.2159    0.7452 H         1 <0>         0.0619
     19 H8         -1.2667    1.5344   -1.4546 H         1 <0>         0.4159
     20 H9         -2.5341    1.3006   -2.4812 H         1 <0>         0.4242
     21 H10        -2.8043    1.4767   -0.8654 H         1 <0>         0.4165
@<TRIPOS>BOND
     1    1    2 1
     2    1   14 1
     3    1   15 1
     4    1   16 1
     5    2    3 1
     6    2    4 1
     7    2   11 1
     8    4    5 1
     9    4   17 1
    10    4   18 1
    11    5    6 1
    12    5    7 1
    13    5   10 1
    14    7    8 2
    15    7    9 1
    16   10   19 1
    17   10   20 1
    18   10   21 1
    19   11   12 2
    20   11   13 1
@<TRIPOS>MOLECULE
ZINC01482113
   18    17     0     0     0
SMALL
USER_CHARGES

@<TRIPOS>ATOM
      1 C1         -0.0187    1.5258    0.0104 C.3       1 <0>        -0.1000
      2 C2          0.0021   -0.0041    0.0020 C.3       1 <0>        -0.1962
      3 C3         -1.4117   -0.5257    0.0127 C.2       1 <0>         0.4893
      4 O1         -2.3491    0.2539    0.0259 O.co2     1 <0>        -0.6870
      5 O2         -1.6182   -1.7273    0.0082 O.co2     1 <0>        -0.7019
      6 C4          1.4167    2.0553   -0.0004 C.3       1 <0>        -0.0520
      7 H1          1.9535    1.6326   -0.8497 H         1 <0>         0.1269
      8 C5          1.3970    3.5578   -0.1160 C.2       1 <0>         0.4945
      9 O3          1.7295    4.2467    0.8334 O.co2     1 <0>        -0.6861
     10 O4          1.0484    4.0844   -1.1589 O.co2     1 <0>        -0.6413
     11 N1          2.0906    1.6690    1.2464 N.4       1 <0>        -0.6105
     12 H2         -0.5459    1.8868   -0.8726 H         1 <0>         0.1064
     13 H3         -0.5289    1.8773    0.9072 H         1 <0>         0.0773
     14 H4          0.5123   -0.3556   -0.8948 H         1 <0>         0.0672
     15 H5          0.5293   -0.3651    0.8851 H         1 <0>         0.0471
     16 H6          2.1039    0.6630    1.3237 H         1 <0>         0.4141
     17 H7          3.0372    2.0182    1.2392 H         1 <0>         0.4227
     18 H8          1.5937    2.0603    2.0325 H         1 <0>         0.4293
@<TRIPOS>BOND
     1    1    2 1
     2    1    6 1
     3    1   12 1
     4    1   13 1
     5    2    3 1
     6    2   14 1
     7    2   15 1
     8    3    4 2
     9    3    5 1
    10    6    7 1
    11    6    8 1
    12    6   11 1
    13    8    9 2
    14    8   10 1
    15   11   16 1
    16   11   17 1
    17   11   18 1
@<TRIPOS>MOLECULE
ZINC26378419
   19    19     0     0     0
SMALL
USER_CHARGES

@<TRIPOS>ATOM
      1 C1         -0.0187    1.5258    0.0104 C.3       1 <0>        -0.0861
      2 C2         -0.7475    2.0250   -1.2105 C.2       1 <0>         0.1567
      3 C3         -2.0514    2.3583   -1.2609 C.2       1 <0>        -0.2778
      4 C4         -2.3511    2.7771   -2.5748 C.2       1 <0>         0.5485
      5 N1         -1.2116    2.6860   -3.2928 N.am      1 <0>        -0.5743
      6 O1         -0.2019    2.2140   -2.4182 O.3       1 <0>        -0.0326
      7 O2         -3.4377    3.1518   -2.9854 O.2       1 <0>        -0.5085
      8 Cl1        -3.1717    2.2846    0.0632 Cl        1 <0>        -0.0005
      9 C5          0.0021   -0.0041    0.0020 C.3       1 <0>         0.0315
     10 H1          0.4324   -0.3564   -0.9354 H         1 <0>         0.0809
     11 C6          0.8348   -0.5015    1.1553 C.2       1 <0>         0.5052
     12 O3          0.2991   -1.0577    2.0988 O.co2     1 <0>        -0.6715
     13 O4          2.0443   -0.3478    1.1449 O.co2     1 <0>        -0.6957
     14 N2         -1.3697   -0.5131    0.1331 N.3       1 <0>        -0.8184
     15 H2          1.0039    1.9031    0.0027 H         1 <0>         0.1102
     16 H3         -0.5289    1.8773    0.9072 H         1 <0>         0.1086
     17 H4         -1.7907   -0.2000    0.9949 H         1 <0>         0.3462
     18 H5         -1.9316   -0.2469   -0.6615 H         1 <0>         0.3173
     19 H6         -1.1036    2.9056   -4.2314 H         1 <0>         0.4601
@<TRIPOS>BOND
     1    1    9 1
     2    1   15 1
     3    1   16 1
     4    1    2 1
     5    2    3 2
     6    2    6 1
     7    3    4 1
     8    3    8 1
     9    4    5 am
    10    4    7 2
    11    5    6 1
    12    5   19 1
    13    9   10 1
    14    9   11 1
    15    9   14 1
    16   11   12 2
    17   11   13 1
    18   14   17 1
    19   14   18 1
@<TRIPOS>MOLECULE
ZINC26378419
   20    20     0     0     0
SMALL
USER_CHARGES

@<TRIPOS>ATOM
      1 C1         -0.0187    1.5258    0.0104 C.3       1 <0>        -0.0668
      2 C2         -0.7475    2.0250   -1.2105 C.2       1 <0>         0.0912
      3 C3         -2.0675    2.2708   -1.2966 C.2       1 <0>        -0.2432
      4 C4         -2.3446    2.7230   -2.6060 C.2       1 <0>         0.3157
      5 N1         -1.2194    2.7426   -3.2713 N.2       1 <0>        -0.2941
      6 O1         -0.1915    2.3073   -2.3998 O.3       1 <0>        -0.0280
      7 O2         -3.5636    3.0742   -3.0882 O.3       1 <0>        -0.4408
      8 Cl1        -3.2277    2.0677   -0.0212 Cl        1 <0>        -0.0056
      9 C5          0.0021   -0.0041    0.0020 C.3       1 <0>        -0.0454
     10 H1          0.4324   -0.3564   -0.9354 H         1 <0>         0.1448
     11 C6          0.8348   -0.5015    1.1553 C.2       1 <0>         0.4928
     12 O3          0.3127   -0.7178    2.2356 O.co2     1 <0>        -0.6571
     13 O4          2.0307   -0.6877    1.0081 O.co2     1 <0>        -0.6237
     14 N2         -1.3697   -0.5131    0.1331 N.4       1 <0>        -0.6187
     15 H2          1.0039    1.9031    0.0027 H         1 <0>         0.1474
     16 H3         -0.5289    1.8773    0.9072 H         1 <0>         0.1294
     17 H4         -1.3560   -1.5220    0.1276 H         1 <0>         0.4372
     18 H5         -1.7680   -0.1869    1.0009 H         1 <0>         0.4339
     19 H6         -3.7791    4.0093   -2.9693 H         1 <0>         0.4221
     20 H7         -1.9272   -0.1801   -0.6391 H         1 <0>         0.4088
@<TRIPOS>BOND
     1    1    9 1
     2    1   15 1
     3    1   16 1
     4    1    2 1
     5    2    3 2
     6    2    6 1
     7    3    4 1
     8    3    8 1
     9    4    5 2
    10    4    7 1
    11    5    6 1
    12    7   19 1
    13    9   10 1
    14    9   11 1
    15    9   14 1
    16   11   12 2
    17   11   13 1
    18   14   17 1
    19   14   18 1
    20   14   20 1
@<TRIPOS>MOLECULE
ZINC26378419
   18    18     0     0     0
SMALL
USER_CHARGES

@<TRIPOS>ATOM
      1 C1         -0.0187    1.5258    0.0104 C.3       1 <0>        -0.0700
      2 C2         -0.7475    2.0250   -1.2105 C.2       1 <0>         0.0738
      3 C3         -2.0675    2.2708   -1.2966 C.2       1 <0>        -0.2475
      4 C4         -2.3446    2.7230   -2.6060 C.2       1 <0>         0.3766
      5 N1         -1.2194    2.7426   -3.2713 N.2       1 <0>        -0.4541
      6 O1         -0.1915    2.3073   -2.3998 O.3       1 <0>        -0.1195
      7 O2         -3.5636    3.0742   -3.0882 O.3       1 <0>        -0.7140
      8 Cl1        -3.2277    2.0677   -0.0212 Cl        1 <0>        -0.0763
      9 C5          0.0021   -0.0041    0.0020 C.3       1 <0>         0.0338
     10 H1          0.4324   -0.3564   -0.9354 H         1 <0>         0.0741
     11 C6          0.8348   -0.5015    1.1553 C.2       1 <0>         0.5076
     12 O3          0.2991   -1.0577    2.0988 O.co2     1 <0>        -0.6861
     13 O4          2.0443   -0.3478    1.1449 O.co2     1 <0>        -0.7066
     14 N2         -1.3697   -0.5131    0.1331 N.3       1 <0>        -0.8217
     15 H2          1.0039    1.9031    0.0027 H         1 <0>         0.0868
     16 H3         -0.5289    1.8773    0.9072 H         1 <0>         0.0813
     17 H4         -1.7907   -0.2000    0.9949 H         1 <0>         0.3380
     18 H5         -1.9316   -0.2469   -0.6615 H         1 <0>         0.3240
@<TRIPOS>BOND
     1    1    9 1
     2    1   15 1
     3    1   16 1
     4    1    2 1
     5    2    3 2
     6    2    6 1
     7    3    4 1
     8    3    8 1
     9    4    5 2
    10    4    7 1
    11    5    6 1
    12    9   10 1
    13    9   11 1
    14    9   14 1
    15   11   12 2
    16   11   13 1
    17   14   17 1
    18   14   18 1
@<TRIPOS>MOLECULE
ZINC26378421
   19    19     0     0     0
SMALL
USER_CHARGES

@<TRIPOS>ATOM
      1 C1         -0.0187    1.5258    0.0104 C.3       1 <0>        -0.0399
      2 C2         -0.7475    2.0250   -1.2105 C.2       1 <0>         0.1795
      3 C3         -2.0514    2.3583   -1.2609 C.2       1 <0>        -0.2832
      4 C4         -2.3511    2.7771   -2.5748 C.2       1 <0>         0.5484
      5 N1         -1.2116    2.6860   -3.2928 N.am      1 <0>        -0.5772
      6 O1         -0.2019    2.2140   -2.4182 O.3       1 <0>        -0.0218
      7 O2         -3.4377    3.1518   -2.9854 O.2       1 <0>        -0.5158
      8 Cl1        -3.1717    2.2846    0.0632 Cl        1 <0>        -0.0043
      9 C5          0.0021   -0.0041    0.0020 C.3       1 <0>         0.0235
     10 H1         -1.0175   -0.3808   -0.0798 H         1 <0>         0.0825
     11 C6          0.6216   -0.5051    1.2812 C.2       1 <0>         0.4700
     12 O3         -0.0804   -0.7232    2.2539 O.co2     1 <0>        -0.6871
     13 O4          1.8247   -0.6923    1.3434 O.co2     1 <0>        -0.6909
     14 N2          0.7922   -0.4768   -1.1426 N.3       1 <0>        -0.8326
     15 H2          1.0039    1.9031    0.0027 H         1 <0>         0.0969
     16 H3         -0.5289    1.8773    0.9072 H         1 <0>         0.1152
     17 H4          1.7421   -0.1406   -1.0899 H         1 <0>         0.3413
     18 H5          0.7679   -1.4834   -1.2077 H         1 <0>         0.3374
     19 H6         -1.1036    2.9056   -4.2314 H         1 <0>         0.4579
@<TRIPOS>BOND
     1    1    9 1
     2    1   15 1
     3    1   16 1
     4    1    2 1
     5    2    3 2
     6    2    6 1
     7    3    4 1
     8    3    8 1
     9    4    5 am
    10    4    7 2
    11    5    6 1
    12    5   19 1
    13    9   10 1
    14    9   11 1
    15    9   14 1
    16   11   12 2
    17   11   13 1
    18   14   17 1
    19   14   18 1
@<TRIPOS>MOLECULE
ZINC26378421
   20    20     0     0     0
SMALL
USER_CHARGES

@<TRIPOS>ATOM
      1 C1         -0.0187    1.5258    0.0104 C.3       1 <0>        -0.0580
      2 C2         -0.7475    2.0250   -1.2105 C.2       1 <0>         0.0579
      3 C3         -2.0675    2.2708   -1.2966 C.2       1 <0>        -0.2011
      4 C4         -2.3446    2.7230   -2.6060 C.2       1 <0>         0.3155
      5 N1         -1.2194    2.7426   -3.2713 N.2       1 <0>        -0.2977
      6 O1         -0.1915    2.3073   -2.3998 O.3       1 <0>        -0.0559
      7 O2         -3.5636    3.0742   -3.0882 O.3       1 <0>        -0.4406
      8 Cl1        -3.2277    2.0677   -0.0212 Cl        1 <0>         0.0124
      9 C5          0.0021   -0.0041    0.0020 C.3       1 <0>        -0.0468
     10 H1         -1.0175   -0.3808   -0.0798 H         1 <0>         0.1408
     11 C6          0.6216   -0.5051    1.2812 C.2       1 <0>         0.4950
     12 O3          0.0243   -0.3817    2.3369 O.co2     1 <0>        -0.6241
     13 O4          1.7200   -1.0338    1.2603 O.co2     1 <0>        -0.6621
     14 N2          0.7922   -0.4768   -1.1426 N.4       1 <0>        -0.6144
     15 H2          1.0039    1.9031    0.0027 H         1 <0>         0.1205
     16 H3         -0.5289    1.8773    0.9072 H         1 <0>         0.1505
     17 H4          0.3774   -0.1413   -1.9991 H         1 <0>         0.4128
     18 H5          1.7359   -0.1280   -1.0669 H         1 <0>         0.4355
     19 H6         -3.7791    4.0093   -2.9693 H         1 <0>         0.4220
     20 H7          0.8059   -1.4857   -1.1482 H         1 <0>         0.4378
@<TRIPOS>BOND
     1    1    9 1
     2    1   15 1
     3    1   16 1
     4    1    2 1
     5    2    3 2
     6    2    6 1
     7    3    4 1
     8    3    8 1
     9    4    5 2
    10    4    7 1
    11    5    6 1
    12    7   19 1
    13    9   10 1
    14    9   11 1
    15    9   14 1
    16   11   12 2
    17   11   13 1
    18   14   17 1
    19   14   18 1
    20   14   20 1
@<TRIPOS>MOLECULE
ZINC19943127
   19    19     0     0     0
SMALL
USER_CHARGES

@<TRIPOS>ATOM
      1 C1         -0.0187    1.5258    0.0104 C.3       1 <0>        -0.0910
      2 C2         -0.7475    2.0250   -1.2105 C.2       1 <0>         0.1840
      3 C3         -2.0514    2.3583   -1.2608 C.2       1 <0>        -0.3358
      4 C4         -2.3510    2.7774   -2.5745 C.2       1 <0>         0.5543
      5 N1         -1.2115    2.6865   -3.2925 N.am      1 <0>        -0.5749
      6 O1         -0.2020    2.2140   -2.4180 O.3       1 <0>        -0.0328
      7 O2         -3.4377    3.1516   -2.9851 O.2       1 <0>        -0.5073
      8 Br1        -3.2717    2.2776    0.1814 Br        1 <0>         0.0223
      9 C5          0.0021   -0.0041    0.0020 C.3       1 <0>         0.0322
     10 H1          0.4324   -0.3564   -0.9354 H         1 <0>         0.0809
     11 C6          0.8348   -0.5015    1.1553 C.2       1 <0>         0.5057
     12 O3          0.2991   -1.0577    2.0988 O.co2     1 <0>        -0.6704
     13 O4          2.0443   -0.3478    1.1449 O.co2     1 <0>        -0.6954
     14 N2         -1.3697   -0.5131    0.1331 N.3       1 <0>        -0.8184
     15 H2          1.0039    1.9031    0.0027 H         1 <0>         0.1118
     16 H3         -0.5289    1.8773    0.9072 H         1 <0>         0.1111
     17 H4         -1.7907   -0.2000    0.9949 H         1 <0>         0.3475
     18 H5         -1.9316   -0.2469   -0.6615 H         1 <0>         0.3169
     19 H6         -1.1035    2.9063   -4.2311 H         1 <0>         0.4590
@<TRIPOS>BOND
     1    1    9 1
     2    1   15 1
     3    1   16 1
     4    1    2 1
     5    2    3 2
     6    2    6 1
     7    3    4 1
     8    3    8 1
     9    4    5 am
    10    4    7 2
    11    5    6 1
    12    5   19 1
    13    9   10 1
    14    9   11 1
    15    9   14 1
    16   11   12 2
    17   11   13 1
    18   14   17 1
    19   14   18 1
@<TRIPOS>MOLECULE
ZINC19943127
   18    18     0     0     0
SMALL
USER_CHARGES

@<TRIPOS>ATOM
      1 C1         -0.0187    1.5258    0.0104 C.3       1 <0>        -0.0273
      2 C2         -0.7475    2.0250   -1.2105 C.2       1 <0>         0.1070
      3 C3         -2.0675    2.2708   -1.2965 C.2       1 <0>        -0.2743
      4 C4         -2.3447    2.7224   -2.6059 C.2       1 <0>         0.3827
      5 N1         -1.2195    2.7417   -3.2713 N.2       1 <0>        -0.4622
      6 O1         -0.1915    2.3073   -2.3996 O.3       1 <0>        -0.1279
      7 O2         -3.5637    3.0737   -3.0880 O.3       1 <0>        -0.7181
      8 Br1        -3.3312    2.0492    0.0926 Br        1 <0>        -0.0608
      9 C5          0.0021   -0.0041    0.0020 C.3       1 <0>         0.0307
     10 H1          0.4324   -0.3564   -0.9354 H         1 <0>         0.0736
     11 C6          0.8348   -0.5015    1.1553 C.2       1 <0>         0.4708
     12 O3          0.2991   -1.0577    2.0988 O.co2     1 <0>        -0.7017
     13 O4          2.0443   -0.3478    1.1449 O.co2     1 <0>        -0.7026
     14 N2         -1.3697   -0.5131    0.1331 N.3       1 <0>        -0.8168
     15 H2          1.0039    1.9031    0.0027 H         1 <0>         0.0832
     16 H3         -0.5289    1.8773    0.9072 H         1 <0>         0.0818
     17 H4         -1.3898   -1.5196    0.0656 H         1 <0>         0.3248
     18 H5         -1.7907   -0.2000    0.9949 H         1 <0>         0.3370
@<TRIPOS>BOND
     1    1    9 1
     2    1   15 1
     3    1   16 1
     4    1    2 1
     5    2    3 2
     6    2    6 1
     7    3    4 1
     8    3    8 1
     9    4    5 2
    10    4    7 1
    11    5    6 1
    12    9   10 1
    13    9   11 1
    14    9   14 1
    15   11   12 2
    16   11   13 1
    17   14   17 1
    18   14   18 1
@<TRIPOS>MOLECULE
ZINC00895124
   18    17     0     0     0
SMALL
USER_CHARGES

@<TRIPOS>ATOM
      1 C1         -0.0187    1.5258    0.0104 C.3       1 <0>        -0.1010
      2 C2          0.0021   -0.0041    0.0020 C.3       1 <0>        -0.1959
      3 C3         -1.4117   -0.5257    0.0127 C.2       1 <0>         0.4893
      4 O1         -2.3491    0.2539    0.0259 O.co2     1 <0>        -0.6871
      5 O2         -1.6182   -1.7273    0.0082 O.co2     1 <0>        -0.7016
      6 C4          1.4167    2.0553   -0.0004 C.3       1 <0>        -0.0510
      7 H1          1.9696    1.6236    0.8338 H         1 <0>         0.1263
      8 C5          1.3993    3.5565    0.1316 C.2       1 <0>         0.4931
      9 O3          1.4342    4.0717    1.2361 O.co2     1 <0>        -0.6465
     10 O4          1.3504    4.2557   -0.8660 O.co2     1 <0>        -0.6784
     11 N1          2.0667    1.6824   -1.2639 N.4       1 <0>        -0.6121
     12 H2         -0.5459    1.8868   -0.8726 H         1 <0>         0.0805
     13 H3         -0.5289    1.8773    0.9072 H         1 <0>         0.1026
     14 H4          0.5123   -0.3556   -0.8948 H         1 <0>         0.0475
     15 H5          0.5293   -0.3651    0.8851 H         1 <0>         0.0673
     16 H6          3.0133    2.0317   -1.2711 H         1 <0>         0.4211
     17 H7          2.0783    0.6774   -1.3524 H         1 <0>         0.4148
     18 H8          1.5549    2.0821   -2.0362 H         1 <0>         0.4310
@<TRIPOS>BOND
     1    1    2 1
     2    1    6 1
     3    1   12 1
     4    1   13 1
     5    2    3 1
     6    2   14 1
     7    2   15 1
     8    3    4 2
     9    3    5 1
    10    6    7 1
    11    6    8 1
    12    6   11 1
    13    8    9 2
    14    8   10 1
    15   11   16 1
    16   11   17 1
    17   11   18 1
