@<TRIPOS>MOLECULE
ZINC07992853
   47    50     0     0     0
SMALL
USER_CHARGES

@<TRIPOS>ATOM
      1 C1         -0.0173    1.4248    0.0099 C.3       1 <0>         0.0297
      2 O1          0.0021   -0.0041    0.0020 O.3       1 <0>        -0.3789
      3 C2          0.6518   -0.5703   -1.1379 C.3       1 <0>         0.0851
      4 C3         -0.3723   -0.7855   -2.2540 C.3       1 <0>        -0.1407
      5 C4         -1.4665   -1.7369   -1.7658 C.3       1 <0>        -0.1014
      6 C5         -0.8410   -3.0794   -1.3818 C.3       1 <0>        -0.1291
      7 C6          0.1831   -2.8641   -0.2656 C.3       1 <0>        -0.1035
      8 C7          1.2773   -1.9127   -0.7538 C.3       1 <0>        -0.1134
      9 C8         -1.9187   -4.0165   -0.9008 C.2       1 <0>         0.4036
     10 O2         -2.9475   -3.5710   -0.4382 O.2       1 <0>        -0.4480
     11 C9         -1.7231   -5.4702   -0.9924 C.ar      1 <0>        -0.1814
     12 C10        -0.5244   -5.9842   -1.5251 C.ar      1 <0>        -0.0559
     13 C11        -0.3221   -7.3218   -1.6193 C.ar      1 <0>        -0.1103
     14 C12        -1.3149   -8.2205   -1.1834 C.ar      1 <0>         0.1938
     15 C13        -2.5252   -7.7142   -0.6451 C.ar      1 <0>        -0.1468
     16 C14        -2.7191   -6.3317   -0.5479 C.ar      1 <0>        -0.0102
     17 C15        -3.5108   -8.6239   -0.2117 C.ar      1 <0>        -0.0164
     18 C16        -3.2619   -9.9615   -0.3297 C.ar      1 <0>        -0.1940
     19 C17        -2.0502  -10.4012   -0.8716 C.ar      1 <0>         0.3770
     20 N1         -1.1305   -9.5386   -1.2712 N.ar      1 <0>        -0.5043
     21 O3         -1.7795  -11.7237   -1.0115 O.3       1 <0>        -0.2993
     22 C18        -2.5637  -12.6497   -0.2597 C.3       1 <0>         0.0633
     23 C19        -4.0457  -12.3139   -0.4685 C.3       1 <0>        -0.1634
     24 C20        -4.3148  -10.9340    0.1373 C.3       1 <0>        -0.0788
     25 H1          1.0053    1.8021    0.0021 H         1 <0>         0.0404
     26 H2         -0.5445    1.7859   -0.8732 H         1 <0>         0.0403
     27 H3         -0.5275    1.7763    0.9067 H         1 <0>         0.0851
     28 H4          1.4313    0.1075   -1.4857 H         1 <0>         0.0620
     29 H5         -0.8179    0.1709   -2.5276 H         1 <0>         0.0669
     30 H6          0.1233   -1.2174   -3.1235 H         1 <0>         0.0729
     31 H7         -1.9621   -1.3050   -0.8963 H         1 <0>         0.0812
     32 H8         -2.1960   -1.8902   -2.5610 H         1 <0>         0.0625
     33 H9         -0.3454   -3.5112   -2.2512 H         1 <0>         0.0965
     34 H10        -0.3125   -2.4323    0.6039 H         1 <0>         0.0782
     35 H11         0.6287   -3.8205    0.0080 H         1 <0>         0.0692
     36 H12         1.7729   -2.3446   -1.6233 H         1 <0>         0.0783
     37 H13         2.0069   -1.7594    0.0414 H         1 <0>         0.0743
     38 H14         0.2433   -5.3040   -1.8631 H         1 <0>         0.1405
     39 H15         0.6028   -7.6989   -2.0301 H         1 <0>         0.1431
     40 H16        -3.6362   -5.9377   -0.1353 H         1 <0>         0.1423
     41 H17        -4.4425   -8.2708    0.2049 H         1 <0>         0.1473
     42 H18        -2.3655  -13.6638   -0.6067 H         1 <0>         0.1195
     43 H19        -2.3147  -12.5663    0.7982 H         1 <0>         0.0717
     44 H20        -4.2723  -12.2978   -1.5345 H         1 <0>         0.0820
     45 H21        -4.6652  -13.0605    0.0283 H         1 <0>         0.0941
     46 H22        -4.2877  -11.0035    1.2248 H         1 <0>         0.0857
     47 H23        -5.2976  -10.5843   -0.1790 H         1 <0>         0.0890
@<TRIPOS>BOND
     1    1    2 1
     2    1   25 1
     3    1   26 1
     4    1   27 1
     5    2    3 1
     6    3    8 1
     7    3    4 1
     8    3   28 1
     9    4    5 1
    10    4   29 1
    11    4   30 1
    12    5    6 1
    13    5   31 1
    14    5   32 1
    15    6    7 1
    16    6    9 1
    17    6   33 1
    18    7    8 1
    19    7   34 1
    20    7   35 1
    21    8   36 1
    22    8   37 1
    23    9   10 2
    24    9   11 1
    25   11   16 ar
    26   11   12 ar
    27   12   13 ar
    28   12   38 1
    29   13   14 ar
    30   13   39 1
    31   14   20 ar
    32   14   15 ar
    33   15   16 ar
    34   15   17 ar
    35   16   40 1
    36   17   18 ar
    37   17   41 1
    38   18   24 1
    39   18   19 ar
    40   19   20 ar
    41   19   21 1
    42   21   22 1
    43   22   23 1
    44   22   42 1
    45   22   43 1
    46   23   24 1
    47   23   44 1
    48   23   45 1
    49   24   46 1
    50   24   47 1
@<TRIPOS>MOLECULE
ZINC13613025
   49    51     0     0     0
SMALL
USER_CHARGES
(3-ethyl-2-methoxy-6-quinolyl)-(4-methoxycyclohexyl)methanone
@<TRIPOS>ATOM
      1 C1          2.9997    6.1288    0.3872 C.3       1 <0>        -0.1473
      2 C2          2.3753    5.6351   -0.9195 C.3       1 <0>        -0.0751
      3 C3          2.3061    4.1297   -0.9059 C.ar      1 <0>        -0.1415
      4 C4          1.1347    3.5026   -0.6023 C.ar      1 <0>        -0.0200
      5 C5          1.1129    2.0918   -0.6013 C.ar      1 <0>        -0.1457
      6 C6         -0.0577    1.3869   -0.2982 C.ar      1 <0>        -0.0077
      7 C7         -0.0390   -0.0028   -0.3067 C.ar      1 <0>        -0.1842
      8 C8          1.1473   -0.6959   -0.6181 C.ar      1 <0>        -0.0571
      9 C9          2.2881   -0.0248   -0.9135 C.ar      1 <0>        -0.1143
     10 C10         2.3010    1.3833   -0.9131 C.ar      1 <0>         0.1913
     11 N1          3.4189    2.0559   -1.2025 N.ar      1 <0>        -0.5435
     12 C11         3.4451    3.3722   -1.2054 C.ar      1 <0>         0.3693
     13 O1          4.6026    4.0095   -1.5052 O.3       1 <0>        -0.2993
     14 C12         5.7355    3.1911   -1.8029 C.3       1 <0>         0.0369
     15 C13        -1.2626   -0.7527    0.0101 C.2       1 <0>         0.4038
     16 O2         -2.2855   -0.1589    0.2782 O.2       1 <0>        -0.4386
     17 C14        -1.2462   -2.2596    0.0019 C.3       1 <0>        -0.1260
     18 C15        -1.2544   -2.7618   -1.4434 C.3       1 <0>        -0.1077
     19 C16        -2.5160   -2.2617   -2.1499 C.3       1 <0>        -0.1463
     20 C17        -3.7527   -2.7891   -1.4196 C.3       1 <0>         0.0919
     21 C18        -3.7444   -2.2869    0.0256 C.3       1 <0>        -0.1411
     22 C19        -2.4828   -2.7871    0.7321 C.3       1 <0>        -0.1022
     23 O3         -4.9309   -2.3220   -2.0795 O.3       1 <0>        -0.3837
     24 C20        -5.4058   -3.1937   -3.1074 C.3       1 <0>         0.0300
     25 H1          4.0051    5.7197    0.4867 H         1 <0>         0.0585
     26 H2          3.0497    7.2176    0.3773 H         1 <0>         0.0625
     27 H3          2.3890    5.8007    1.2283 H         1 <0>         0.0540
     28 H4          2.9860    5.9631   -1.7607 H         1 <0>         0.0814
     29 H5          1.3699    6.0441   -1.0191 H         1 <0>         0.0765
     30 H6          0.2464    4.0707   -0.3685 H         1 <0>         0.1512
     31 H7         -0.9684    1.9181   -0.0641 H         1 <0>         0.1432
     32 H8          1.1483   -1.7759   -0.6212 H         1 <0>         0.1384
     33 H9          3.1889   -0.5716   -1.1500 H         1 <0>         0.1401
     34 H10         5.9630    2.5592   -0.9443 H         1 <0>         0.0619
     35 H11         5.5141    2.5643   -2.6668 H         1 <0>         0.0619
     36 H12         6.5938    3.8254   -2.0247 H         1 <0>         0.0999
     37 H13        -0.4217   -2.5865    0.4637 H         1 <0>         0.0938
     38 H14        -0.3734   -2.3861   -1.9636 H         1 <0>         0.0758
     39 H15        -1.2426   -3.8518   -1.4493 H         1 <0>         0.0792
     40 H16        -2.5219   -2.6194   -3.1795 H         1 <0>         0.0673
     41 H17        -2.5278   -1.1717   -2.1439 H         1 <0>         0.0706
     42 H18        -3.7408   -3.8791   -1.4256 H         1 <0>         0.0573
     43 H19        -4.6254   -2.6627    0.5459 H         1 <0>         0.0655
     44 H20        -3.7562   -1.1970    0.0316 H         1 <0>         0.1102
     45 H21        -2.4710   -3.8770    0.7262 H         1 <0>         0.0706
     46 H22        -2.4770   -2.4293    1.7617 H         1 <0>         0.0727
     47 H23        -4.6353   -3.3105   -3.8694 H         1 <0>         0.0396
     48 H24        -5.6423   -4.1671   -2.6777 H         1 <0>         0.0407
     49 H25        -6.3020   -2.7685   -3.5591 H         1 <0>         0.0853
@<TRIPOS>BOND
     1    1    2 1
     2    1   25 1
     3    1   26 1
     4    1   27 1
     5    2    3 1
     6    2   28 1
     7    2   29 1
     8    3   12 ar
     9    3    4 ar
    10    4    5 ar
    11    4   30 1
    12    5   10 ar
    13    5    6 ar
    14    6    7 ar
    15    6   31 1
    16    7    8 ar
    17    7   15 1
    18    8    9 ar
    19    8   32 1
    20    9   10 ar
    21    9   33 1
    22   10   11 ar
    23   11   12 ar
    24   12   13 1
    25   13   14 1
    26   14   34 1
    27   14   35 1
    28   14   36 1
    29   15   16 2
    30   15   17 1
    31   17   22 1
    32   17   18 1
    33   17   37 1
    34   18   19 1
    35   18   38 1
    36   18   39 1
    37   19   20 1
    38   19   40 1
    39   19   41 1
    40   20   21 1
    41   20   23 1
    42   20   42 1
    43   21   22 1
    44   21   43 1
    45   21   44 1
    46   22   45 1
    47   22   46 1
    48   23   24 1
    49   24   47 1
    50   24   48 1
    51   24   49 1
@<TRIPOS>MOLECULE
ZINC13613027
   45    47     0     0     0
SMALL
USER_CHARGES
(2-chloro-3-ethyl-6-quinolyl)-(4-methoxycyclohexyl)methanone
@<TRIPOS>ATOM
      1 C1          3.0105    6.1243    0.3810 C.3       1 <0>        -0.1509
      2 C2          2.3860    5.6300   -0.9254 C.3       1 <0>        -0.0857
      3 C3          2.3132    4.1248   -0.9094 C.ar      1 <0>        -0.1241
      4 C4          1.1377    3.5003   -0.6053 C.ar      1 <0>        -0.0325
      5 C5          1.1142    2.0911   -0.6019 C.ar      1 <0>        -0.1141
      6 C6         -0.0576    1.3860   -0.2984 C.ar      1 <0>        -0.0208
      7 C7         -0.0389   -0.0028   -0.3070 C.ar      1 <0>        -0.1639
      8 C8          1.1473   -0.6963   -0.6180 C.ar      1 <0>        -0.0654
      9 C9          2.2886   -0.0260   -0.9131 C.ar      1 <0>        -0.0965
     10 C10         2.3022    1.3822   -0.9134 C.ar      1 <0>         0.1611
     11 N1          3.4197    2.0550   -1.2022 N.ar      1 <0>        -0.4690
     12 C11         3.4461    3.3676   -1.2056 C.ar      1 <0>         0.2228
     13 Cl1         4.9304    4.1820   -1.5895 Cl        1 <0>        -0.0161
     14 C12        -1.2633   -0.7529    0.0096 C.2       1 <0>         0.4022
     15 O1         -2.2861   -0.1589    0.2774 O.2       1 <0>        -0.4334
     16 C13        -1.2471   -2.2598    0.0014 C.3       1 <0>        -0.1258
     17 C14        -1.2548   -2.7620   -1.4439 C.3       1 <0>        -0.1083
     18 C15        -2.5160   -2.2616   -2.1509 C.3       1 <0>        -0.1466
     19 C16        -3.7531   -2.7889   -1.4211 C.3       1 <0>         0.0917
     20 C17        -3.7453   -2.2867    0.0241 C.3       1 <0>        -0.1412
     21 C18        -2.4841   -2.7871    0.7312 C.3       1 <0>        -0.1025
     22 O2         -4.9310   -2.3216   -2.0814 O.3       1 <0>        -0.3837
     23 C19        -5.4056   -3.1933   -3.1095 C.3       1 <0>         0.0298
     24 H1          2.3983    5.7991    1.2222 H         1 <0>         0.0569
     25 H2          4.0148    5.7130    0.4821 H         1 <0>         0.0597
     26 H3          3.0632    7.2130    0.3694 H         1 <0>         0.0665
     27 H4          2.9982    5.9552   -1.7666 H         1 <0>         0.0846
     28 H5          1.3817    6.0413   -1.0265 H         1 <0>         0.0823
     29 H6          0.2505    4.0706   -0.3730 H         1 <0>         0.1539
     30 H7         -0.9683    1.9174   -0.0643 H         1 <0>         0.1469
     31 H8          1.1478   -1.7763   -0.6210 H         1 <0>         0.1425
     32 H9          3.1892   -0.5734   -1.1490 H         1 <0>         0.1454
     33 H10        -0.4228   -2.5868    0.4635 H         1 <0>         0.0948
     34 H11        -0.3736   -2.3863   -1.9638 H         1 <0>         0.0760
     35 H12        -1.2431   -3.8519   -1.4498 H         1 <0>         0.0805
     36 H13        -2.5216   -2.6194   -3.1805 H         1 <0>         0.0681
     37 H14        -2.5277   -1.1717   -2.1449 H         1 <0>         0.0701
     38 H15        -3.7414   -3.8789   -1.4270 H         1 <0>         0.0579
     39 H16        -4.6266   -2.6624    0.5441 H         1 <0>         0.0663
     40 H17        -3.7570   -1.1968    0.0301 H         1 <0>         0.1095
     41 H18        -2.4724   -3.8770    0.7252 H         1 <0>         0.0717
     42 H19        -2.4786   -2.4293    1.7607 H         1 <0>         0.0732
     43 H20        -4.6348   -3.3102   -3.8713 H         1 <0>         0.0398
     44 H21        -5.6425   -4.1667   -2.6799 H         1 <0>         0.0410
     45 H22        -6.3016   -2.7679   -3.5616 H         1 <0>         0.0855
@<TRIPOS>BOND
     1    1    2 1
     2    1   24 1
     3    1   25 1
     4    1   26 1
     5    2    3 1
     6    2   27 1
     7    2   28 1
     8    3   12 ar
     9    3    4 ar
    10    4    5 ar
    11    4   29 1
    12    5   10 ar
    13    5    6 ar
    14    6    7 ar
    15    6   30 1
    16    7    8 ar
    17    7   14 1
    18    8    9 ar
    19    8   31 1
    20    9   10 ar
    21    9   32 1
    22   10   11 ar
    23   11   12 ar
    24   12   13 1
    25   14   15 2
    26   14   16 1
    27   16   21 1
    28   16   17 1
    29   16   33 1
    30   17   18 1
    31   17   34 1
    32   17   35 1
    33   18   19 1
    34   18   36 1
    35   18   37 1
    36   19   20 1
    37   19   22 1
    38   19   38 1
    39   20   21 1
    40   20   39 1
    41   20   40 1
    42   21   41 1
    43   21   42 1
    44   22   23 1
    45   23   43 1
    46   23   44 1
    47   23   45 1
@<TRIPOS>MOLECULE
ZINC00184798
   41    44     0     0     0
SMALL
USER_CHARGES

@<TRIPOS>ATOM
      1 C1         -0.0159    1.5028    0.0085 C.3       1 <0>        -0.1261
      2 C2          0.0039   -0.0040    0.0007 C.ar      1 <0>        -0.0527
      3 C3          1.1571   -0.6807    0.3535 C.ar      1 <0>        -0.1071
      4 C4          1.1784   -2.0617    0.3473 C.ar      1 <0>        -0.0781
      5 C5          0.0401   -2.7706   -0.0132 C.ar      1 <0>         0.0687
      6 C6         -1.1165   -2.0881   -0.3665 C.ar      1 <0>        -0.0931
      7 C7         -1.1329   -0.7071   -0.3537 C.ar      1 <0>        -0.1076
      8 N1          0.0586   -4.1710   -0.0209 N.am      1 <0>        -0.4684
      9 C8         -0.0351   -4.8534   -1.1931 C.2       1 <0>         0.4158
     10 N2         -0.0231   -6.1477   -1.2580 N.2       1 <0>        -0.5033
     11 C9          0.0856   -6.9275   -0.1437 C.2       1 <0>         0.2151
     12 C10         0.1127   -8.3968   -0.0775 C.ar      1 <0>        -0.1201
     13 C11         0.0310   -9.3170   -1.1596 C.ar      1 <0>         0.3909
     14 C12         0.0752  -10.6752   -0.8855 C.ar      1 <0>        -0.1768
     15 C13         0.1965  -11.1182    0.4179 C.ar      1 <0>         0.2029
     16 N3          0.2715  -10.2557    1.4151 N.ar      1 <0>        -0.4289
     17 C14         0.2340   -8.9551    1.2069 C.ar      1 <0>         0.0641
     18 S1          0.3089   -7.5465    2.2865 S.3       1 <0>         0.3254
     19 C15         0.1836   -6.2588    1.0754 C.2       1 <0>        -0.3038
     20 C16         0.1756   -4.8607    1.1386 C.2       1 <0>         0.5722
     21 O1          0.2668   -4.2802    2.2076 O.2       1 <0>        -0.4820
     22 N4         -0.0911   -8.8633   -2.4652 N.pl3     1 <0>        -0.6861
     23 C17        -1.4193   -8.6428   -3.0429 C.3       1 <0>         0.1153
     24 C18         1.1081   -8.6048   -3.2660 C.3       1 <0>         0.1176
     25 H1         -0.3214    1.8571    0.9930 H         1 <0>         0.0811
     26 H2          0.9806    1.8805   -0.2204 H         1 <0>         0.0749
     27 H3         -0.7213    1.8608   -0.7414 H         1 <0>         0.0751
     28 H4          2.0420   -0.1288    0.6338 H         1 <0>         0.1387
     29 H5          2.0795   -2.5896    0.6222 H         1 <0>         0.1287
     30 H6         -2.0035   -2.6367   -0.6474 H         1 <0>         0.1325
     31 H7         -2.0333   -0.1758   -0.6248 H         1 <0>         0.1396
     32 H8         -0.1239   -4.2917   -2.1113 H         1 <0>         0.2218
     33 H9          0.0143  -11.3895   -1.6932 H         1 <0>         0.1932
     34 H10         0.2298  -12.1781    0.6226 H         1 <0>         0.2259
     35 H11        -1.9524   -7.8965   -2.4538 H         1 <0>         0.0510
     36 H12        -1.3152   -8.2894   -4.0687 H         1 <0>         0.0880
     37 H13        -1.9784   -9.5785   -3.0359 H         1 <0>         0.0518
     38 H14         1.3904   -9.5117   -3.8007 H         1 <0>         0.0523
     39 H15         0.9020   -7.8098   -3.9827 H         1 <0>         0.0809
     40 H16         1.9241   -8.3004   -2.6105 H         1 <0>         0.0556
     41 H17         0.3563  -10.5876    2.3226 H         1 <0>         0.4552
@<TRIPOS>BOND
     1    1    2 1
     2    1   25 1
     3    1   26 1
     4    1   27 1
     5    2    7 ar
     6    2    3 ar
     7    3    4 ar
     8    3   28 1
     9    4    5 ar
    10    4   29 1
    11    5    6 ar
    12    5    8 1
    13    6    7 ar
    14    6   30 1
    15    7   31 1
    16    8   20 am
    17    8    9 1
    18    9   10 2
    19    9   32 1
    20   10   11 1
    21   11   19 2
    22   11   12 1
    23   12   17 ar
    24   12   13 ar
    25   13   14 ar
    26   13   22 1
    27   14   15 ar
    28   14   33 1
    29   15   16 ar
    30   15   34 1
    31   16   17 ar
    32   16   41 1
    33   17   18 1
    34   18   19 1
    35   19   20 1
    36   20   21 2
    37   22   23 1
    38   22   24 1
    39   23   35 1
    40   23   36 1
    41   23   37 1
    42   24   38 1
    43   24   39 1
    44   24   40 1
@<TRIPOS>MOLECULE
ZINC00184798
   40    43     0     0     0
SMALL
USER_CHARGES

@<TRIPOS>ATOM
      1 C1         -0.0159    1.5028    0.0085 C.3       1 <0>        -0.1206
      2 C2          0.0039   -0.0040    0.0007 C.ar      1 <0>        -0.0663
      3 C3          1.1571   -0.6807    0.3535 C.ar      1 <0>        -0.1084
      4 C4          1.1784   -2.0617    0.3473 C.ar      1 <0>        -0.0825
      5 C5          0.0401   -2.7706   -0.0132 C.ar      1 <0>         0.0915
      6 C6         -1.1165   -2.0881   -0.3665 C.ar      1 <0>        -0.0984
      7 C7         -1.1329   -0.7071   -0.3537 C.ar      1 <0>        -0.1093
      8 N1          0.0586   -4.1710   -0.0209 N.am      1 <0>        -0.4819
      9 C8         -0.0351   -4.8534   -1.1931 C.2       1 <0>         0.3805
     10 N2         -0.0231   -6.1477   -1.2580 N.2       1 <0>        -0.4935
     11 C9          0.0856   -6.9275   -0.1437 C.2       1 <0>         0.2025
     12 C10         0.1127   -8.3968   -0.0775 C.ar      1 <0>        -0.1588
     13 C11         0.0310   -9.3170   -1.1596 C.ar      1 <0>         0.2951
     14 C12         0.0752  -10.6752   -0.8855 C.ar      1 <0>        -0.1973
     15 C13         0.1965  -11.1182    0.4179 C.ar      1 <0>         0.1626
     16 N3          0.2715  -10.2557    1.4151 N.ar      1 <0>        -0.4547
     17 C14         0.2340   -8.9551    1.2069 C.ar      1 <0>         0.1127
     18 S1          0.3089   -7.5465    2.2865 S.3       1 <0>         0.2030
     19 C15         0.1836   -6.2588    1.0754 C.2       1 <0>        -0.3042
     20 C16         0.1756   -4.8607    1.1386 C.2       1 <0>         0.5752
     21 O1          0.2668   -4.2802    2.2076 O.2       1 <0>        -0.5040
     22 N4         -0.0911   -8.8633   -2.4652 N.pl3     1 <0>        -0.6784
     23 C17        -1.4193   -8.6428   -3.0429 C.3       1 <0>         0.1217
     24 C18         1.1081   -8.6048   -3.2660 C.3       1 <0>         0.1271
     25 H1         -0.3214    1.8571    0.9930 H         1 <0>         0.0767
     26 H2          0.9806    1.8805   -0.2204 H         1 <0>         0.0712
     27 H3         -0.7213    1.8608   -0.7414 H         1 <0>         0.0712
     28 H4          2.0420   -0.1288    0.6338 H         1 <0>         0.1341
     29 H5          2.0795   -2.5896    0.6222 H         1 <0>         0.1278
     30 H6         -2.0035   -2.6367   -0.6474 H         1 <0>         0.1309
     31 H7         -2.0333   -0.1758   -0.6248 H         1 <0>         0.1347
     32 H8         -0.1239   -4.2917   -2.1113 H         1 <0>         0.2081
     33 H9          0.0143  -11.3895   -1.6932 H         1 <0>         0.1479
     34 H10         0.2298  -12.1781    0.6226 H         1 <0>         0.1769
     35 H11        -1.7336   -7.6171   -2.8501 H         1 <0>         0.0430
     36 H12        -1.3808   -8.8150   -4.1185 H         1 <0>         0.0625
     37 H13        -2.1316   -9.3324   -2.5898 H         1 <0>         0.0508
     38 H14         1.3904   -9.5117   -3.8007 H         1 <0>         0.0364
     39 H15         0.9020   -7.8098   -3.9827 H         1 <0>         0.0644
     40 H16         1.9241   -8.3004   -2.6105 H         1 <0>         0.0496
@<TRIPOS>BOND
     1    1    2 1
     2    1   25 1
     3    1   26 1
     4    1   27 1
     5    2    7 ar
     6    2    3 ar
     7    3    4 ar
     8    3   28 1
     9    4    5 ar
    10    4   29 1
    11    5    6 ar
    12    5    8 1
    13    6    7 ar
    14    6   30 1
    15    7   31 1
    16    8   20 am
    17    8    9 1
    18    9   10 2
    19    9   32 1
    20   10   11 1
    21   11   19 2
    22   11   12 1
    23   12   17 ar
    24   12   13 ar
    25   13   14 ar
    26   13   22 1
    27   14   15 ar
    28   14   33 1
    29   15   16 ar
    30   15   34 1
    31   16   17 ar
    32   17   18 1
    33   18   19 1
    34   19   20 1
    35   20   21 2
    36   22   23 1
    37   22   24 1
    38   23   35 1
    39   23   36 1
    40   23   37 1
    41   24   38 1
    42   24   39 1
    43   24   40 1
@<TRIPOS>MOLECULE
ZINC00077553
   38    41     0     0     0
SMALL
USER_CHARGES

@<TRIPOS>ATOM
      1 C1          0.0582    0.9465    0.5216 C.3       1 <0>         0.1175
      2 N1         -0.0080   -0.4844    0.2147 N.pl3     1 <0>        -0.6861
      3 C2         -0.0780   -1.4642    1.3015 C.3       1 <0>         0.1152
      4 C3         -0.0045   -0.9117   -1.1055 C.ar      1 <0>         0.3911
      5 C4          1.1886   -1.1946   -1.7530 C.ar      1 <0>        -0.1766
      6 C5          1.1827   -1.6195   -3.0675 C.ar      1 <0>         0.2027
      7 N2          0.0440   -1.7605   -3.7219 N.ar      1 <0>        -0.4290
      8 C6         -1.1157   -1.5046   -3.1516 C.ar      1 <0>         0.0647
      9 C7         -1.2251   -1.0732   -1.8178 C.ar      1 <0>        -0.1205
     10 C8         -2.5908   -0.8362   -1.3251 C.2       1 <0>         0.2152
     11 C9         -3.6189   -1.0725   -2.2362 C.2       1 <0>        -0.3038
     12 S1         -2.7966   -1.5840   -3.7205 S.3       1 <0>         0.3260
     13 C10        -4.9594   -0.8815   -1.8825 C.2       1 <0>         0.5725
     14 O1         -5.8556   -1.0900   -2.6834 O.2       1 <0>        -0.4818
     15 N3         -5.2330   -0.4589   -0.6254 N.am      1 <0>        -0.4700
     16 C11        -4.2072   -0.2376    0.2390 C.2       1 <0>         0.4158
     17 N4         -2.9641   -0.4136   -0.0827 N.2       1 <0>        -0.5028
     18 C12        -6.5576   -0.2517   -0.2204 C.ar      1 <0>         0.0771
     19 C13        -7.4223   -1.3304   -0.0907 C.ar      1 <0>        -0.0844
     20 C14        -8.7278   -1.1229    0.3093 C.ar      1 <0>        -0.1036
     21 C15        -9.1743    0.1576    0.5802 C.ar      1 <0>        -0.0904
     22 C16        -8.3157    1.2340    0.4515 C.ar      1 <0>        -0.1041
     23 C17        -7.0073    1.0323    0.0578 C.ar      1 <0>        -0.0995
     24 H1          1.1008    1.2498    0.6172 H         1 <0>         0.0523
     25 H2         -0.4127    1.5127   -0.2821 H         1 <0>         0.0555
     26 H3         -0.4643    1.1418    1.4581 H         1 <0>         0.0809
     27 H4         -0.0700   -0.9450    2.2599 H         1 <0>         0.0880
     28 H5         -0.9967   -2.0436    1.2098 H         1 <0>         0.0511
     29 H6          0.7807   -2.1331    1.2435 H         1 <0>         0.0519
     30 H7          2.1257   -1.0821   -1.2280 H         1 <0>         0.1933
     31 H8          2.1165   -1.8376   -3.5642 H         1 <0>         0.2259
     32 H9         -4.4386    0.0993    1.2387 H         1 <0>         0.2221
     33 H10        -7.0745   -2.3306   -0.3028 H         1 <0>         0.1286
     34 H11        -9.4009   -1.9614    0.4104 H         1 <0>         0.1393
     35 H12       -10.1957    0.3174    0.8925 H         1 <0>         0.1379
     36 H13        -8.6674    2.2329    0.6634 H         1 <0>         0.1401
     37 H14        -6.3359    1.8728   -0.0378 H         1 <0>         0.1323
     38 H15         0.0621   -2.0594   -4.6445 H         1 <0>         0.4553
@<TRIPOS>BOND
     1    1    2 1
     2    1   24 1
     3    1   25 1
     4    1   26 1
     5    2    3 1
     6    2    4 1
     7    3   27 1
     8    3   28 1
     9    3   29 1
    10    4    9 ar
    11    4    5 ar
    12    5    6 ar
    13    5   30 1
    14    6    7 ar
    15    6   31 1
    16    7    8 ar
    17    7   38 1
    18    8   12 1
    19    8    9 ar
    20    9   10 1
    21   10   17 1
    22   10   11 2
    23   11   12 1
    24   11   13 1
    25   13   14 2
    26   13   15 am
    27   15   16 1
    28   15   18 1
    29   16   17 2
    30   16   32 1
    31   18   23 ar
    32   18   19 ar
    33   19   20 ar
    34   19   33 1
    35   20   21 ar
    36   20   34 1
    37   21   22 ar
    38   21   35 1
    39   22   23 ar
    40   22   36 1
    41   23   37 1
@<TRIPOS>MOLECULE
ZINC00756260
   38    41     0     0     0
SMALL
USER_CHARGES
(4-chlorophenyl)-dimethylamino-BLAHone
@<TRIPOS>ATOM
      1 C1          0.0368    0.9537   -0.0102 C.3       1 <0>         0.0218
      2 N1         -0.6686    1.4747    1.1683 N.pl3     1 <0>        -0.5131
      3 C2         -0.7903    2.9373    1.1052 C.3       1 <0>         0.0245
      4 C3         -0.0396    1.0781    2.3399 C.ar      1 <0>         0.3212
      5 C4          1.2783    1.4309    2.5879 C.ar      1 <0>        -0.2080
      6 C5          1.8953    1.0368    3.7595 C.ar      1 <0>         0.2178
      7 C6         -0.0088   -0.0534    4.4588 C.ar      1 <0>         0.0729
      8 C7         -0.7331    0.2974    3.3058 C.ar      1 <0>        -0.0917
      9 C8         -2.1206   -0.1872    3.2420 C.2       1 <0>         0.2262
     10 C9         -2.5565   -0.9382    4.3325 C.2       1 <0>        -0.3091
     11 S1         -1.1601   -1.0032    5.4218 S.3       1 <0>         0.3226
     12 C10        -3.8567   -1.4533    4.3858 C.2       1 <0>         0.5737
     13 O1         -4.2327   -2.1102    5.3425 O.2       1 <0>        -0.4827
     14 N2         -4.6851   -1.2017    3.3446 N.am      1 <0>        -0.4735
     15 C11        -4.2293   -0.4659    2.2962 C.2       1 <0>         0.4135
     16 N3         -3.0265    0.0139    2.2417 N.2       1 <0>        -0.4849
     17 C12        -5.9968   -1.6935    3.3479 C.ar      1 <0>         0.0839
     18 C13        -6.2275   -3.0597    3.2556 C.ar      1 <0>        -0.0709
     19 C14        -7.5214   -3.5424    3.2634 C.ar      1 <0>        -0.0953
     20 C15        -8.5879   -2.6650    3.3535 C.ar      1 <0>        -0.0132
     21 C16        -8.3608   -1.3027    3.4403 C.ar      1 <0>        -0.0959
     22 C17        -7.0686   -0.8153    3.4377 C.ar      1 <0>        -0.0854
     23 Cl1       -10.2134   -3.2745    3.3569 Cl        1 <0>        -0.0423
     24 H1          0.0514   -0.1355    0.0272 H         1 <0>         0.0796
     25 H2          1.0594    1.3308   -0.0177 H         1 <0>         0.0460
     26 H3         -0.4772    1.2793   -0.9146 H         1 <0>         0.1008
     27 H4         -1.2867    3.2208    0.1771 H         1 <0>         0.1008
     28 H5         -1.3768    3.2900    1.9535 H         1 <0>         0.0794
     29 H6          0.2025    3.3862    1.1381 H         1 <0>         0.0459
     30 H7          1.8232    2.0193    1.8645 H         1 <0>         0.1925
     31 H8          2.9206    1.3197    3.9467 H         1 <0>         0.2146
     32 H9         -4.8996   -0.2722    1.4719 H         1 <0>         0.2237
     33 H10        -5.3957   -3.7445    3.1814 H         1 <0>         0.1392
     34 H11        -7.7013   -4.6051    3.1953 H         1 <0>         0.1501
     35 H12        -9.1948   -0.6200    3.5098 H         1 <0>         0.1511
     36 H13        -6.8919    0.2480    3.5052 H         1 <0>         0.1433
     37 N4          1.2791    0.2900    4.7161 N.ar      1 <0>        -0.4619
     38 H14         1.7583    0.0044    5.5781 H         1 <0>         0.4831
@<TRIPOS>BOND
     1    1    2 1
     2    1   24 1
     3    1   25 1
     4    1   26 1
     5    2    3 1
     6    2    4 1
     7    3   27 1
     8    3   28 1
     9    3   29 1
    10    4    8 ar
    11    4    5 ar
    12    5    6 ar
    13    5   30 1
    14    6   31 1
    15    6   37 ar
    16    7   11 1
    17    7    8 ar
    18    7   37 ar
    19    8    9 1
    20    9   16 1
    21    9   10 2
    22   10   11 1
    23   10   12 1
    24   12   13 2
    25   12   14 am
    26   14   15 1
    27   14   17 1
    28   15   16 2
    29   15   32 1
    30   17   22 ar
    31   17   18 ar
    32   18   19 ar
    33   18   33 1
    34   19   20 ar
    35   19   34 1
    36   20   21 ar
    37   20   23 1
    38   21   22 ar
    39   21   35 1
    40   22   36 1
    41   37   38 1
@<TRIPOS>MOLECULE
ZINC13779018
   19    19     0     0     0
SMALL
USER_CHARGES

@<TRIPOS>ATOM
      1 C1         -0.0187    1.5258    0.0104 C.3       1 <0>         0.1559
      2 C2          0.0021   -0.0041    0.0020 C.3       1 <0>        -0.0639
      3 H1          0.4501   -0.3665    0.9272 H         1 <0>         0.1320
      4 C3         -1.4075   -0.5249   -0.1112 C.2       1 <0>         0.4991
      5 O1         -1.7761   -1.0680   -1.1386 O.co2     1 <0>        -0.6678
      6 O2         -2.1794   -0.4033    0.8248 O.co2     1 <0>        -0.6405
      7 N1          0.7922   -0.4768   -1.1426 N.4       1 <0>        -0.6027
      8 N2          1.3557    2.0329    0.0000 N.pl3     1 <0>        -0.5059
      9 C4          2.1974    2.0610   -1.0502 C.2       1 <0>         0.5942
     10 O3          1.9169    1.6204   -2.2941 O.3       1 <0>        -0.6607
     11 N3          3.3403    2.5907   -0.6628 N.2       1 <0>        -0.6559
     12 C5          3.2823    2.9189    0.6279 C.2       1 <0>         0.5845
     13 O4          4.1815    3.4284    1.2748 O.2       1 <0>        -0.5268
     14 O5          2.0627    2.5981    1.0944 O.3       1 <0>        -0.1559
     15 H2         -0.5459    1.8868   -0.8726 H         1 <0>         0.1126
     16 H3         -0.5289    1.8773    0.9072 H         1 <0>         0.1283
     17 H4          0.3774   -0.1413   -1.9991 H         1 <0>         0.4369
     18 H5          1.7359   -0.1280   -1.0669 H         1 <0>         0.4173
     19 H6          0.8059   -1.4857   -1.1482 H         1 <0>         0.4191
@<TRIPOS>BOND
     1    1    2 1
     2    1    8 1
     3    1   15 1
     4    1   16 1
     5    2    3 1
     6    2    4 1
     7    2    7 1
     8    4    5 2
     9    4    6 1
    10    7   17 1
    11    7   18 1
    12    7   19 1
    13    8   14 1
    14    8    9 1
    15    9   10 1
    16    9   11 2
    17   11   12 1
    18   12   13 2
    19   12   14 1
@<TRIPOS>MOLECULE
ZINC13779018
   20    20     0     0     0
SMALL
USER_CHARGES

@<TRIPOS>ATOM
      1 C1         -0.0187    1.5258    0.0104 C.3       1 <0>         0.1622
      2 C2          0.0021   -0.0041    0.0020 C.3       1 <0>         0.0738
      3 H1          0.4501   -0.3665    0.9272 H         1 <0>         0.1320
      4 C3         -1.4075   -0.5249   -0.1112 C.2       1 <0>         0.4457
      5 O1         -1.8299   -0.8975   -1.1801 O.2       1 <0>        -0.5041
      6 O2         -2.1938   -0.5750    0.9756 O.3       1 <0>        -0.5011
      7 N1          0.7922   -0.4768   -1.1426 N.3       1 <0>        -0.8119
      8 N2          1.3557    2.0329    0.0000 N.pl3     1 <0>        -0.4321
      9 C4          2.1974    2.0610   -1.0502 C.2       1 <0>         0.6249
     10 N3          3.3406    2.5899   -0.6626 N.2       1 <0>        -0.6311
     11 C5          3.2828    2.9177    0.6282 C.2       1 <0>         0.5998
     12 O3          4.1822    3.4265    1.2753 O.2       1 <0>        -0.4634
     13 O4          2.0627    2.5981    1.0944 O.3       1 <0>        -0.1103
     14 O5          1.9169    1.6204   -2.2941 O.3       1 <0>        -0.4110
     15 H2         -0.5459    1.8868   -0.8726 H         1 <0>         0.1177
     16 H3         -0.5289    1.8773    0.9072 H         1 <0>         0.1297
     17 H4         -3.0795   -0.9232    0.8045 H         1 <0>         0.4131
     18 H5          0.8750   -1.4823   -1.1342 H         1 <0>         0.3592
     19 H6          0.3968   -0.1538   -2.0130 H         1 <0>         0.3617
     20 H7          2.6463    1.7214   -2.9209 H         1 <0>         0.4452
@<TRIPOS>BOND
     1    1    2 1
     2    1    8 1
     3    1   15 1
     4    1   16 1
     5    2    3 1
     6    2    4 1
     7    2    7 1
     8    4    5 2
     9    4    6 1
    10    6   17 1
    11    7   18 1
    12    7   19 1
    13    8   13 1
    14    8    9 1
    15    9   10 2
    16    9   14 1
    17   10   11 1
    18   11   12 2
    19   11   13 1
    20   14   20 1
@<TRIPOS>MOLECULE
ZINC25720507
   16    16     0     0     0
SMALL
USER_CHARGES

@<TRIPOS>ATOM
      1 C1         -0.0171    1.4063    0.0098 C.2       1 <0>        -0.3479
      2 C2         -1.3010    1.8118    0.0183 C.2       1 <0>         0.1234
      3 O1         -2.0979    0.7371    0.0165 O.3       1 <0>        -0.0447
      4 N1         -1.2818   -0.4209    0.0061 N.am      1 <0>        -0.5850
      5 C3          0.0021   -0.0041    0.0020 C.2       1 <0>         0.5367
      6 O2          0.9941   -0.7148   -0.0119 O.2       1 <0>        -0.5394
      7 C4         -1.7655    3.2454    0.0289 C.3       1 <0>         0.0826
      8 H1         -0.9032    3.9061    0.1181 H         1 <0>         0.1200
      9 C5         -2.4978    3.5456   -1.2536 C.2       1 <0>         0.5051
     10 O3         -3.7035    3.7263   -1.2391 O.co2     1 <0>        -0.6618
     11 O4         -1.8846    3.6077   -2.3055 O.co2     1 <0>        -0.6809
     12 N2         -2.6667    3.4597    1.1690 N.3       1 <0>        -0.8080
     13 H2          0.8497    2.0506    0.0050 H         1 <0>         0.1700
     14 H3         -3.4746    2.8582    1.1094 H         1 <0>         0.3518
     15 H4         -2.1811    3.3274    2.0436 H         1 <0>         0.3283
     16 H5         -1.5883   -1.3412    0.0026 H         1 <0>         0.4499
@<TRIPOS>BOND
     1    1    5 1
     2    1   13 1
     3    1    2 2
     4    2    3 1
     5    2    7 1
     6    3    4 1
     7    4    5 am
     8    4   16 1
     9    5    6 2
    10    7    8 1
    11    7    9 1
    12    7   12 1
    13    9   10 2
    14    9   11 1
    15   12   14 1
    16   12   15 1
@<TRIPOS>MOLECULE
ZINC13676104
   44    47     0     0     0
SMALL
USER_CHARGES
dimethylamino-(4-ethylphenyl)BLAHone
@<TRIPOS>ATOM
      1 C1        -10.5166   -3.2722    1.9196 C.3       1 <0>        -0.1488
      2 C2         -9.9994   -3.1917    3.3573 C.3       1 <0>        -0.0944
      3 C3         -8.5882   -2.6631    3.3546 C.ar      1 <0>        -0.0500
      4 C4         -8.3611   -1.3018    3.4415 C.ar      1 <0>        -0.1045
      5 C5         -7.0690   -0.8141    3.4383 C.ar      1 <0>        -0.0941
      6 C6         -5.9972   -1.6924    3.3483 C.ar      1 <0>         0.0715
      7 C7         -6.2286   -3.0585    3.2559 C.ar      1 <0>        -0.0792
      8 C8         -7.5230   -3.5403    3.2648 C.ar      1 <0>        -0.1040
      9 N1         -4.6856   -1.2011    3.3449 N.am      1 <0>        -0.4695
     10 C9         -4.2296   -0.4653    2.2965 C.2       1 <0>         0.4138
     11 N2         -3.0267    0.0142    2.2419 N.2       1 <0>        -0.4876
     12 C10        -2.1208   -0.1873    3.2421 C.2       1 <0>         0.2258
     13 C11        -0.7333    0.2972    3.3060 C.ar      1 <0>        -0.0909
     14 C12        -0.0396    1.0781    2.3399 C.ar      1 <0>         0.3207
     15 C13         1.2779    1.4308    2.5878 C.ar      1 <0>        -0.2083
     16 C14         1.8953    1.0359    3.7594 C.ar      1 <0>         0.2173
     17 C15        -0.0091   -0.0535    4.4588 C.ar      1 <0>         0.0722
     18 S1         -1.1604   -1.0034    5.4218 S.3       1 <0>         0.3201
     19 C16        -2.5568   -0.9383    4.3325 C.2       1 <0>        -0.3097
     20 C17        -3.8571   -1.4531    4.3860 C.2       1 <0>         0.5725
     21 O1         -4.2332   -2.1100    5.3426 O.2       1 <0>        -0.4844
     22 N3         -0.6686    1.4747    1.1683 N.pl3     1 <0>        -0.5129
     23 C18         0.0367    0.9537   -0.0103 C.3       1 <0>         0.0220
     24 C19        -0.7903    2.9373    1.1052 C.3       1 <0>         0.0247
     25 H1         -9.8792   -3.9409    1.3411 H         1 <0>         0.0575
     26 H2        -11.5374   -3.6545    1.9216 H         1 <0>         0.0648
     27 H3        -10.5017   -2.2784    1.4720 H         1 <0>         0.0578
     28 H4        -10.0143   -4.1854    3.8050 H         1 <0>         0.0793
     29 H5        -10.6368   -2.5230    3.9358 H         1 <0>         0.0795
     30 H6         -9.1951   -0.6192    3.5115 H         1 <0>         0.1387
     31 H7         -6.8923    0.2492    3.5055 H         1 <0>         0.1327
     32 H8         -5.3972   -3.7438    3.1808 H         1 <0>         0.1286
     33 H9         -7.7035   -4.6029    3.1971 H         1 <0>         0.1376
     34 H10        -4.9000   -0.2712    1.4723 H         1 <0>         0.2224
     35 H11         1.8226    2.0195    1.8645 H         1 <0>         0.1922
     36 H12         2.9207    1.3186    3.9464 H         1 <0>         0.2143
     37 H13         0.0514   -0.1355    0.0271 H         1 <0>         0.0795
     38 H14         1.0594    1.3308   -0.0178 H         1 <0>         0.0458
     39 H15        -0.4772    1.2793   -0.9146 H         1 <0>         0.1005
     40 H16        -1.2867    3.2208    0.1771 H         1 <0>         0.1006
     41 H17        -1.3769    3.2900    1.9534 H         1 <0>         0.0793
     42 H18         0.2024    3.3862    1.1381 H         1 <0>         0.0457
     43 N4          1.2791    0.2896    4.7159 N.ar      1 <0>        -0.4618
     44 H19         1.7582    0.0040    5.5780 H         1 <0>         0.4828
@<TRIPOS>BOND
     1    1    2 1
     2    1   25 1
     3    1   26 1
     4    1   27 1
     5    2    3 1
     6    2   28 1
     7    2   29 1
     8    3    8 ar
     9    3    4 ar
    10    4    5 ar
    11    4   30 1
    12    5    6 ar
    13    5   31 1
    14    6    7 ar
    15    6    9 1
    16    7    8 ar
    17    7   32 1
    18    8   33 1
    19    9   20 am
    20    9   10 1
    21   10   11 2
    22   10   34 1
    23   11   12 1
    24   12   19 2
    25   12   13 1
    26   13   17 ar
    27   13   14 ar
    28   14   15 ar
    29   14   22 1
    30   15   16 ar
    31   15   35 1
    32   16   36 1
    33   16   43 ar
    34   17   18 1
    35   17   43 ar
    36   18   19 1
    37   19   20 1
    38   20   21 2
    39   22   23 1
    40   22   24 1
    41   23   37 1
    42   23   38 1
    43   23   39 1
    44   24   40 1
    45   24   41 1
    46   24   42 1
    47   43   44 1
@<TRIPOS>MOLECULE
ZINC13676140
   46    49     0     0     0
SMALL
USER_CHARGES
azepan-1-yl-dimethylamino-BLAHone
@<TRIPOS>ATOM
      1 C1          0.0220    0.9933   -0.0053 C.3       1 <0>         0.0218
      2 N1         -0.6781    1.5002    1.1825 N.pl3     1 <0>        -0.5131
      3 C2         -0.7999    2.9635    1.1372 C.3       1 <0>         0.0246
      4 C3         -0.0440    1.0898    2.3464 C.ar      1 <0>         0.3198
      5 C4          1.2751    1.4395    2.5927 C.ar      1 <0>        -0.2083
      6 C5          1.8975    1.0307    3.7563 C.ar      1 <0>         0.2167
      7 C6         -0.0036   -0.0672    4.4513 C.ar      1 <0>         0.0710
      8 C7         -0.7332    0.2977    3.3060 C.ar      1 <0>        -0.0898
      9 C8         -2.1212   -0.1856    3.2429 C.2       1 <0>         0.2210
     10 C9         -2.5522   -0.9495    4.3261 C.2       1 <0>        -0.3034
     11 S1         -1.1509   -1.0282    5.4080 S.3       1 <0>         0.3255
     12 C10        -3.8529   -1.4647    4.3788 C.2       1 <0>         0.5883
     13 O1         -4.2252   -2.1331    5.3289 O.2       1 <0>        -0.4701
     14 N2         -4.6855   -1.1999    3.3442 N.am      1 <0>        -0.3641
     15 C11        -4.2345   -0.4527    2.3043 C.2       1 <0>         0.3661
     16 N3         -3.0320    0.0275    2.2496 N.2       1 <0>        -0.4818
     17 N4         -5.9645   -1.6796    3.3466 N.3       1 <0>        -0.3103
     18 C12        -6.1884   -2.5988    2.2085 C.3       1 <0>         0.0430
     19 C13        -7.6405   -2.9380    2.0092 C.3       1 <0>        -0.1217
     20 C14        -8.2344   -1.9593    0.9745 C.3       1 <0>        -0.1276
     21 C15        -8.5361   -0.6569    1.5582 C.3       1 <0>        -0.1226
     22 C16        -7.2762    0.0374    2.1165 C.3       1 <0>        -0.1563
     23 C17        -6.9448   -0.5756    3.4499 C.3       1 <0>         0.0336
     24 H1          0.0367   -0.0963    0.0191 H         1 <0>         0.0794
     25 H2          1.0446    1.3704   -0.0129 H         1 <0>         0.0461
     26 H3         -0.4960    1.3296   -0.9035 H         1 <0>         0.0999
     27 H4         -1.3005    3.2580    0.2148 H         1 <0>         0.0999
     28 H5         -1.3827    3.3062    1.9922 H         1 <0>         0.0792
     29 H6          0.1929    3.4120    1.1710 H         1 <0>         0.0461
     30 H7          1.8166    2.0367    1.8740 H         1 <0>         0.1918
     31 H8          2.9237    1.3114    3.9422 H         1 <0>         0.2142
     32 H9         -4.9087   -0.2488    1.4856 H         1 <0>         0.2145
     33 H10        -5.8085   -2.1320    1.2997 H         1 <0>         0.0537
     34 H11        -5.6334   -3.5199    2.3862 H         1 <0>         0.0904
     35 H12        -8.1730   -2.8386    2.9551 H         1 <0>         0.0853
     36 H13        -7.7306   -3.9598    1.6405 H         1 <0>         0.0895
     37 H14        -9.1517   -2.3865    0.5694 H         1 <0>         0.0749
     38 H15        -7.5183   -1.8263    0.1636 H         1 <0>         0.0623
     39 H16        -9.2547   -0.7896    2.3670 H         1 <0>         0.0716
     40 H17        -8.9799   -0.0214    0.7918 H         1 <0>         0.0712
     41 H18        -7.4700    1.1028    2.2413 H         1 <0>         0.0869
     42 H19        -6.4414   -0.1051    1.4303 H         1 <0>         0.0611
     43 H20        -7.8613   -0.9600    3.8975 H         1 <0>         0.1145
     44 H21        -6.5361    0.1977    4.1004 H         1 <0>         0.0835
     45 N5          1.2855    0.2727    4.7066 N.ar      1 <0>        -0.4614
     46 H22         1.7686   -0.0234    5.5629 H         1 <0>         0.4829
@<TRIPOS>BOND
     1    1    2 1
     2    1   24 1
     3    1   25 1
     4    1   26 1
     5    2    3 1
     6    2    4 1
     7    3   27 1
     8    3   28 1
     9    3   29 1
    10    4    8 ar
    11    4    5 ar
    12    5    6 ar
    13    5   30 1
    14    6   31 1
    15    6   45 ar
    16    7   11 1
    17    7    8 ar
    18    7   45 ar
    19    8    9 1
    20    9   16 1
    21    9   10 2
    22   10   11 1
    23   10   12 1
    24   12   13 2
    25   12   14 am
    26   14   15 1
    27   14   17 1
    28   15   16 2
    29   15   32 1
    30   17   23 1
    31   17   18 1
    32   18   19 1
    33   18   33 1
    34   18   34 1
    35   19   20 1
    36   19   35 1
    37   19   36 1
    38   20   21 1
    39   20   37 1
    40   20   38 1
    41   21   22 1
    42   21   39 1
    43   21   40 1
    44   22   23 1
    45   22   41 1
    46   22   42 1
    47   23   43 1
    48   23   44 1
    49   45   46 1
@<TRIPOS>MOLECULE
ZINC04339374
   41    44     0     0     0
SMALL
USER_CHARGES

@<TRIPOS>ATOM
      1 C1         -0.0178    1.4608    0.0101 C.3       1 <0>         0.1180
      2 N1          0.0021   -0.0041    0.0020 N.pl3     1 <0>        -0.6860
      3 C2          0.0241   -0.7433    1.2666 C.3       1 <0>         0.1131
      4 C3          0.0000   -0.6913   -1.2034 C.ar      1 <0>         0.3902
      5 C4          1.1923   -1.0299   -1.8253 C.ar      1 <0>        -0.1773
      6 C5          1.1808   -1.7146   -3.0251 C.ar      1 <0>         0.2014
      7 N2          0.0375   -2.0542   -3.5929 N.ar      1 <0>        -0.4292
      8 C6         -1.1216   -1.7558   -3.0423 C.ar      1 <0>         0.0641
      9 C7         -1.2251   -1.0668   -1.8210 C.ar      1 <0>        -0.1202
     10 C8         -2.5904   -0.8149   -1.3348 C.2       1 <0>         0.2157
     11 C9         -3.6235   -1.2931   -2.1387 C.2       1 <0>        -0.3049
     12 S1         -2.8076   -2.0501   -3.5178 S.3       1 <0>         0.3213
     13 C10        -4.9645   -1.1131   -1.7792 C.2       1 <0>         0.5746
     14 O1         -5.8656   -1.5336   -2.4857 O.2       1 <0>        -0.4932
     15 N3         -5.2323   -0.4591   -0.6241 N.am      1 <0>        -0.5137
     16 C11        -4.2028   -0.0060    0.1361 C.2       1 <0>         0.4113
     17 N4         -2.9594   -0.1695   -0.1906 N.2       1 <0>        -0.5067
     18 C12        -6.6176   -0.2424   -0.1996 C.3       1 <0>         0.1356
     19 C13        -7.0699   -1.4020    0.6498 C.ar      1 <0>        -0.1337
     20 C14        -7.6612   -2.5028    0.0585 C.ar      1 <0>        -0.0904
     21 C15        -8.0762   -3.5665    0.8377 C.ar      1 <0>        -0.1201
     22 C16        -7.8994   -3.5297    2.2082 C.ar      1 <0>        -0.1004
     23 C17        -7.3073   -2.4294    2.7995 C.ar      1 <0>        -0.1202
     24 C18        -6.8885   -1.3675    2.0198 C.ar      1 <0>        -0.1014
     25 H1          1.0048    1.8381    0.0023 H         1 <0>         0.0521
     26 H2         -0.5450    1.8219   -0.8730 H         1 <0>         0.0557
     27 H3         -0.5280    1.8123    0.9069 H         1 <0>         0.0804
     28 H4         -0.9979   -0.9406    1.5900 H         1 <0>         0.0557
     29 H5          0.5496   -1.6879    1.1262 H         1 <0>         0.0580
     30 H6          0.5371   -0.1514    2.0246 H         1 <0>         0.0797
     31 H7          2.1330   -0.7571   -1.3703 H         1 <0>         0.1929
     32 H8          2.1140   -1.9741   -3.5028 H         1 <0>         0.2255
     33 H9         -4.4303    0.5143    1.0548 H         1 <0>         0.2191
     34 H10        -6.6802    0.6787    0.3799 H         1 <0>         0.1177
     35 H11        -7.2585   -0.1635   -1.0778 H         1 <0>         0.1190
     36 H12        -7.7993   -2.5315   -1.0123 H         1 <0>         0.1297
     37 H13        -8.5388   -4.4262    0.3758 H         1 <0>         0.1283
     38 H14        -8.2242   -4.3605    2.8171 H         1 <0>         0.1285
     39 H15        -7.1695   -2.4005    3.8702 H         1 <0>         0.1293
     40 H16        -6.4225   -0.5095    2.4813 H         1 <0>         0.1254
     41 H17         0.0517   -2.5344   -4.4355 H         1 <0>         0.4550
@<TRIPOS>BOND
     1    1    2 1
     2    1   25 1
     3    1   26 1
     4    1   27 1
     5    2    3 1
     6    2    4 1
     7    3   28 1
     8    3   29 1
     9    3   30 1
    10    4    9 ar
    11    4    5 ar
    12    5    6 ar
    13    5   31 1
    14    6    7 ar
    15    6   32 1
    16    7    8 ar
    17    7   41 1
    18    8   12 1
    19    8    9 ar
    20    9   10 1
    21   10   17 1
    22   10   11 2
    23   11   12 1
    24   11   13 1
    25   13   14 2
    26   13   15 am
    27   15   16 1
    28   15   18 1
    29   16   17 2
    30   16   33 1
    31   18   19 1
    32   18   34 1
    33   18   35 1
    34   19   24 ar
    35   19   20 ar
    36   20   21 ar
    37   20   36 1
    38   21   22 ar
    39   21   37 1
    40   22   23 ar
    41   22   38 1
    42   23   24 ar
    43   23   39 1
    44   24   40 1
@<TRIPOS>MOLECULE
ZINC00978708
   42    45     0     0     0
SMALL
USER_CHARGES

@<TRIPOS>ATOM
      1 C1          0.5036    0.9557   -0.0615 C.3       1 <0>         0.1154
      2 N1          0.2239   -0.4802    0.0161 N.pl3     1 <0>        -0.6861
      3 C2          1.3292   -1.4386    0.0941 C.3       1 <0>         0.1127
      4 C3         -1.0879   -0.9326    0.0159 C.ar      1 <0>         0.3911
      5 C4         -1.7296   -1.2374   -1.1750 C.ar      1 <0>        -0.1773
      6 C5         -3.0356   -1.6876   -1.1657 C.ar      1 <0>         0.2022
      7 N2         -3.6871   -1.8327   -0.0258 N.ar      1 <0>        -0.4291
      8 C6         -3.1223   -1.5563    1.1318 C.ar      1 <0>         0.0645
      9 C7         -1.7973   -1.0978    1.2377 C.ar      1 <0>        -0.1201
     10 C8         -1.3096   -0.8400    2.6015 C.2       1 <0>         0.2156
     11 C9         -2.2163   -1.0855    3.6314 C.2       1 <0>        -0.3040
     12 S1         -3.6897   -1.6338    2.8132 S.3       1 <0>         0.3248
     13 C10        -1.8668   -0.8767    4.9703 C.2       1 <0>         0.5715
     14 O1         -2.6637   -1.0933    5.8681 O.2       1 <0>        -0.4820
     15 N3         -0.6182   -0.4275    5.2405 N.am      1 <0>        -0.4641
     16 C11         0.2419   -0.1980    4.2133 C.2       1 <0>         0.4152
     17 N4         -0.0759   -0.3904    2.9715 N.2       1 <0>        -0.5040
     18 C12        -0.2173   -0.2015    6.5644 C.ar      1 <0>         0.0344
     19 C13        -0.0674   -1.2712    7.4370 C.ar      1 <0>        -0.0415
     20 C14         0.3274   -1.0479    8.7410 C.ar      1 <0>        -0.1383
     21 C15         0.5743    0.2450    9.1796 C.ar      1 <0>         0.1606
     22 C16         0.4242    1.3143    8.3084 C.ar      1 <0>        -0.1975
     23 C17         0.0355    1.0918    7.0024 C.ar      1 <0>        -0.0541
     24 O2          0.9630    0.4643   10.4637 O.3       1 <0>        -0.3074
     25 C18         1.2000    1.8203   10.8473 C.3       1 <0>         0.0214
     26 H1          1.5815    1.1172   -0.0492 H         1 <0>         0.0878
     27 H2          0.0866    1.3577   -0.9849 H         1 <0>         0.0515
     28 H3          0.0508    1.4608    0.7917 H         1 <0>         0.0510
     29 H4          1.5827   -1.6167    1.1391 H         1 <0>         0.0558
     30 H5          1.0298   -2.3772   -0.3723 H         1 <0>         0.0581
     31 H6          2.1975   -1.0349   -0.4267 H         1 <0>         0.0800
     32 H7         -1.2067   -1.1221   -2.1129 H         1 <0>         0.1931
     33 H8         -3.5279   -1.9224   -2.0978 H         1 <0>         0.2257
     34 H9          1.2348    0.1601    4.4421 H         1 <0>         0.2216
     35 H10        -0.2599   -2.2777    7.0958 H         1 <0>         0.1361
     36 H11         0.4437   -1.8798    9.4199 H         1 <0>         0.1477
     37 H12         0.6162    2.3206    8.6505 H         1 <0>         0.1448
     38 H13        -0.0767    1.9237    6.3230 H         1 <0>         0.1354
     39 H14         1.5032    1.8542   11.8937 H         1 <0>         0.1092
     40 H15         1.9909    2.2406   10.2260 H         1 <0>         0.0618
     41 H16         0.2868    2.4003   10.7146 H         1 <0>         0.0613
     42 H17        -4.6036   -2.1502   -0.0415 H         1 <0>         0.4551
@<TRIPOS>BOND
     1    1    2 1
     2    1   26 1
     3    1   27 1
     4    1   28 1
     5    2    3 1
     6    2    4 1
     7    3   29 1
     8    3   30 1
     9    3   31 1
    10    4    9 ar
    11    4    5 ar
    12    5    6 ar
    13    5   32 1
    14    6    7 ar
    15    6   33 1
    16    7    8 ar
    17    7   42 1
    18    8   12 1
    19    8    9 ar
    20    9   10 1
    21   10   17 1
    22   10   11 2
    23   11   12 1
    24   11   13 1
    25   13   14 2
    26   13   15 am
    27   15   16 1
    28   15   18 1
    29   16   17 2
    30   16   34 1
    31   18   23 ar
    32   18   19 ar
    33   19   20 ar
    34   19   35 1
    35   20   21 ar
    36   20   36 1
    37   21   22 ar
    38   21   24 1
    39   22   23 ar
    40   22   37 1
    41   23   38 1
    42   24   25 1
    43   25   39 1
    44   25   40 1
    45   25   41 1
@<TRIPOS>MOLECULE
ZINC00978708
   48    51     0     0     0
SMALL
USER_CHARGES

@<TRIPOS>ATOM
      1 C1         -0.9277    2.0954    0.5667 C.3       1 <0>        -0.1165
      2 C2         -0.0741    0.8682    0.3760 C.ar      1 <0>        -0.1093
      3 C3          0.1811    0.3943   -0.8962 C.ar      1 <0>        -0.1031
      4 C4          0.9641   -0.7315   -1.0719 C.ar      1 <0>        -0.1262
      5 C5          1.4947   -1.3865    0.0246 C.ar      1 <0>        -0.1066
      6 C6          1.2437   -0.9176    1.2989 C.ar      1 <0>        -0.1180
      7 C7          0.4614    0.2160    1.4786 C.ar      1 <0>         0.1381
      8 N1          0.2095    0.6968    2.7683 N.am      1 <0>        -0.6655
      9 C8          0.1201   -0.1629    3.8025 C.2       1 <0>         0.4932
     10 O1          0.3321   -1.3444    3.6290 O.2       1 <0>        -0.4889
     11 C9         -0.2432    0.3440    5.1744 C.3       1 <0>         0.1028
     12 N2         -0.2745   -0.7772    6.1168 N.pl3     1 <0>        -0.3618
     13 C10        -1.3519   -1.5247    6.4517 C.2       1 <0>         0.3387
     14 N3         -0.9640   -2.4289    7.3257 N.2       1 <0>        -0.5153
     15 C11         0.3436   -2.2888    7.5695 C.2       1 <0>         0.2749
     16 N4          0.8087   -1.2928    6.8466 N.2       1 <0>        -0.2911
     17 C12         1.1417   -3.1251    8.5003 C.ar      1 <0>        -0.0170
     18 C13         2.5013   -2.8752    8.6738 C.ar      1 <0>        -0.0834
     19 C14         3.2388   -3.6560    9.5407 C.ar      1 <0>        -0.1243
     20 C15         2.6305   -4.6853   10.2362 C.ar      1 <0>        -0.1033
     21 C16         1.2811   -4.9381   10.0674 C.ar      1 <0>        -0.1245
     22 C17         0.5327   -4.1593    9.2081 C.ar      1 <0>        -0.0752
     23 C18        -2.7254   -1.3548    5.9274 C.ar      1 <0>        -0.0337
     24 C19        -3.8116   -1.8832    6.6249 C.ar      1 <0>        -0.0637
     25 C20        -5.0898   -1.7214    6.1309 C.ar      1 <0>        -0.1166
     26 C21        -5.2951   -1.0373    4.9461 C.ar      1 <0>        -0.0967
     27 C22        -4.2219   -0.5109    4.2496 C.ar      1 <0>        -0.1153
     28 C23        -2.9395   -0.6606    4.7365 C.ar      1 <0>        -0.1082
     29 H1         -0.2954    2.9832    0.5557 H         1 <0>         0.0730
     30 H2         -1.6577    2.1593   -0.2403 H         1 <0>         0.0738
     31 H3         -1.4476    2.0315    1.5226 H         1 <0>         0.0624
     32 H4         -0.2318    0.9036   -1.7544 H         1 <0>         0.1276
     33 H5          1.1616   -1.1004   -2.0675 H         1 <0>         0.1249
     34 H6          2.1057   -2.2659   -0.1160 H         1 <0>         0.1261
     35 H7          1.6580   -1.4297    2.1548 H         1 <0>         0.1405
     36 H8          0.0992    1.6488    2.9180 H         1 <0>         0.4132
     37 H9          0.4989    1.0725    5.5009 H         1 <0>         0.1357
     38 H10        -1.2249    0.8164    5.1390 H         1 <0>         0.1372
     39 H11         2.9774   -2.0722    8.1308 H         1 <0>         0.1295
     40 H12         4.2928   -3.4631    9.6759 H         1 <0>         0.1283
     41 H13         3.2114   -5.2941   10.9132 H         1 <0>         0.1262
     42 H14         0.8113   -5.7435   10.6123 H         1 <0>         0.1291
     43 H15        -0.5218   -4.3544    9.0807 H         1 <0>         0.1351
     44 H16        -3.6526   -2.4181    7.5496 H         1 <0>         0.1398
     45 H17        -5.9316   -2.1301    6.6700 H         1 <0>         0.1345
     46 H18        -6.2973   -0.9139    4.5631 H         1 <0>         0.1310
     47 H19        -4.3886    0.0222    3.3253 H         1 <0>         0.1311
     48 H20        -2.1029   -0.2451    4.1944 H         1 <0>         0.1178
@<TRIPOS>BOND
     1    1    2 1
     2    1   29 1
     3    1   30 1
     4    1   31 1
     5    2    7 ar
     6    2    3 ar
     7    3    4 ar
     8    3   32 1
     9    4    5 ar
    10    4   33 1
    11    5    6 ar
    12    5   34 1
    13    6    7 ar
    14    6   35 1
    15    7    8 1
    16    8    9 am
    17    8   36 1
    18    9   10 2
    19    9   11 1
    20   11   12 1
    21   11   37 1
    22   11   38 1
    23   12   16 1
    24   12   13 1
    25   13   14 2
    26   13   23 1
    27   14   15 1
    28   15   16 2
    29   15   17 1
    30   17   22 ar
    31   17   18 ar
    32   18   19 ar
    33   18   39 1
    34   19   20 ar
    35   19   40 1
    36   20   21 ar
    37   20   41 1
    38   21   22 ar
    39   21   42 1
    40   22   43 1
    41   23   28 ar
    42   23   24 ar
    43   24   25 ar
    44   24   44 1
    45   25   26 ar
    46   25   45 1
    47   26   27 ar
    48   26   46 1
    49   27   28 ar
    50   27   47 1
    51   28   48 1
@<TRIPOS>MOLECULE
ZINC03826602
   44    47     0     0     0
SMALL
USER_CHARGES

@<TRIPOS>ATOM
      1 C1         -2.0652   -0.8598    0.6816 C.ar      1 <0>        -0.1307
      2 C2         -1.4521   -0.1116   -0.3067 C.ar      1 <0>        -0.0780
      3 C3         -0.2478   -0.5258   -0.8385 C.ar      1 <0>        -0.1082
      4 C4          0.3518   -1.6944   -0.3817 C.ar      1 <0>         0.1485
      5 C5         -0.2642   -2.4413    0.6088 C.ar      1 <0>        -0.1566
      6 C6         -1.4726   -2.0216    1.1374 C.ar      1 <0>        -0.0298
      7 C7          0.3651   -3.7076    1.1223 C.3       1 <0>        -0.0043
      8 C8          1.4114   -4.2062    0.1633 C.ar      1 <0>        -0.1792
      9 C9          1.8465   -5.5168    0.2561 C.ar      1 <0>        -0.0847
     10 C10         2.8075   -5.9936   -0.6143 C.ar      1 <0>        -0.1422
     11 C11         3.3387   -5.1614   -1.5827 C.ar      1 <0>        -0.0829
     12 C12         2.9082   -3.8538   -1.6802 C.ar      1 <0>        -0.1445
     13 C13         1.9410   -3.3703   -0.8057 C.ar      1 <0>         0.0839
     14 O1          1.5344   -2.0829   -0.9159 O.3       1 <0>        -0.2343
     15 C14         1.0151   -3.4331    2.4799 C.3       1 <0>        -0.1014
     16 C15         2.0274   -2.2945    2.3397 C.3       1 <0>         0.0088
     17 C16         2.6935   -2.0348    3.6924 C.3       1 <0>        -0.1343
     18 H1          2.0566   -2.1784    4.5653 H         1 <0>         0.1359
     19 C17         4.1741   -2.3945    3.8314 C.3       1 <0>        -0.1905
     20 C18         3.7460   -0.9265    3.7605 C.3       1 <0>        -0.1789
     21 H2          3.9640   -0.3823    2.8415 H         1 <0>         0.1011
     22 C19         3.8233   -0.1172    5.0294 C.2       1 <0>         0.5190
     23 O2          4.8881    0.3579    5.3855 O.co2     1 <0>        -0.6942
     24 O3          2.8209    0.0625    5.6998 O.co2     1 <0>        -0.6777
     25 C20         1.3189   -1.0461    1.8808 C.2       1 <0>         0.5149
     26 O4          0.2686   -0.7142    2.4034 O.co2     1 <0>        -0.6129
     27 O5          1.7961   -0.3680    0.9869 O.co2     1 <0>        -0.6652
     28 N1          3.0505   -2.6674    1.3537 N.4       1 <0>        -0.6246
     29 H3         -3.0057   -0.5334    1.1005 H         1 <0>         0.1165
     30 H4         -1.9159    0.7965   -0.6627 H         1 <0>         0.1212
     31 H5          0.2297    0.0586   -1.6110 H         1 <0>         0.1216
     32 H6         -1.9536   -2.6040    1.9093 H         1 <0>         0.1161
     33 H7         -0.4056   -4.4692    1.2411 H         1 <0>         0.1043
     34 H8          1.4338   -6.1688    1.0117 H         1 <0>         0.1387
     35 H9          3.1445   -7.0168   -0.5382 H         1 <0>         0.1347
     36 H10         4.0905   -5.5346   -2.2623 H         1 <0>         0.1391
     37 H11         3.3234   -3.2047   -2.4369 H         1 <0>         0.1440
     38 H12         0.2472   -3.1500    3.1998 H         1 <0>         0.1175
     39 H13         1.5249   -4.3318    2.8270 H         1 <0>         0.0757
     40 H14         4.5114   -2.7742    4.7958 H         1 <0>         0.1075
     41 H15         4.6737   -2.8160    2.9592 H         1 <0>         0.0689
     42 H16         2.8070   -2.2812    0.4539 H         1 <0>         0.4233
     43 H17         3.9459   -2.3044    1.6444 H         1 <0>         0.4120
     44 H18         3.1012   -3.6729    1.2856 H         1 <0>         0.4021
@<TRIPOS>BOND
     1    1    6 ar
     2    1    2 ar
     3    1   29 1
     4    2    3 ar
     5    2   30 1
     6    3    4 ar
     7    3   31 1
     8    4   14 1
     9    4    5 ar
    10    5    6 ar
    11    5    7 1
    12    6   32 1
    13    7    8 1
    14    7   15 1
    15    7   33 1
    16    8   13 ar
    17    8    9 ar
    18    9   10 ar
    19    9   34 1
    20   10   11 ar
    21   10   35 1
    22   11   12 ar
    23   11   36 1
    24   12   13 ar
    25   12   37 1
    26   13   14 1
    27   15   16 1
    28   15   38 1
    29   15   39 1
    30   16   17 1
    31   16   25 1
    32   16   28 1
    33   17   18 1
    34   17   20 1
    35   17   19 1
    36   19   20 1
    37   19   40 1
    38   19   41 1
    39   20   21 1
    40   20   22 1
    41   22   23 2
    42   22   24 1
    43   25   26 2
    44   25   27 1
    45   28   42 1
    46   28   43 1
    47   28   44 1
@<TRIPOS>MOLECULE
ZINC04176781
   36    38     0     0     0
SMALL
USER_CHARGES
3-(2-chloro-6-methyl-3-quinolyl)-1-phenyl-prop-2-en-1-one
@<TRIPOS>ATOM
      1 C1          2.4670    1.0356   -0.0159 C.3       1 <0>        -0.1201
      2 C2          1.1548    1.7764    0.0006 C.ar      1 <0>        -0.0748
      3 C3          1.1514    3.1697    0.0076 C.ar      1 <0>        -0.0869
      4 C4         -0.0162    3.8701    0.0221 C.ar      1 <0>        -0.0887
      5 C5         -1.2425    3.1844    0.0301 C.ar      1 <0>         0.1456
      6 C6         -1.2372    1.7662    0.0175 C.ar      1 <0>        -0.0986
      7 C7         -0.0126    1.0758    0.0080 C.ar      1 <0>        -0.0961
      8 C8         -2.4604    1.0763    0.0194 C.ar      1 <0>        -0.0219
      9 C9         -3.6343    1.8273    0.0286 C.ar      1 <0>        -0.1166
     10 C10        -3.5547    3.2355    0.0354 C.ar      1 <0>         0.2228
     11 N1         -2.4012    3.8542    0.0443 N.ar      1 <0>        -0.4625
     12 Cl1        -5.0185    4.1685    0.0473 Cl        1 <0>        -0.0128
     13 C11        -4.9428    1.1584    0.0315 C.2       1 <0>        -0.0151
     14 C12        -5.0117   -0.1918    0.0253 C.2       1 <0>        -0.2226
     15 C13        -6.3128   -0.8570    0.0283 C.2       1 <0>         0.4239
     16 O1         -7.3347   -0.1953    0.0362 O.2       1 <0>        -0.4511
     17 C14        -6.3882   -2.3342    0.0216 C.ar      1 <0>        -0.1612
     18 C15        -5.2183   -3.0959    0.0066 C.ar      1 <0>        -0.0750
     19 C16        -5.2957   -4.4732    0.0052 C.ar      1 <0>        -0.1326
     20 C17        -6.5294   -5.0999    0.0080 C.ar      1 <0>        -0.0884
     21 C18        -7.6929   -4.3508    0.0175 C.ar      1 <0>        -0.1308
     22 C19        -7.6297   -2.9729    0.0243 C.ar      1 <0>        -0.0621
     23 H1          2.7736    0.8625   -1.0475 H         1 <0>         0.0769
     24 H2          3.2258    1.6292    0.4939 H         1 <0>         0.0722
     25 H3          2.3508    0.0792    0.4939 H         1 <0>         0.0711
     26 H4          2.0905    3.7030    0.0012 H         1 <0>         0.1366
     27 H5          0.0002    4.9499    0.0270 H         1 <0>         0.1425
     28 H6          0.0021   -0.0041    0.0020 H         1 <0>         0.1362
     29 H7         -2.4904   -0.0032    0.0144 H         1 <0>         0.1550
     30 H8         -5.8493    1.7453    0.0386 H         1 <0>         0.1467
     31 H9         -4.1052   -0.7788    0.0183 H         1 <0>         0.1350
     32 H10        -4.2549   -2.6080   -0.0001 H         1 <0>         0.1301
     33 H11        -4.3914   -5.0636   -0.0026 H         1 <0>         0.1300
     34 H12        -6.5845   -6.1785    0.0024 H         1 <0>         0.1284
     35 H13        -8.6526   -4.8461    0.0193 H         1 <0>         0.1304
     36 H14        -8.5385   -2.3894    0.0314 H         1 <0>         0.1346
@<TRIPOS>BOND
     1    1    2 1
     2    1   23 1
     3    1   24 1
     4    1   25 1
     5    2    7 ar
     6    2    3 ar
     7    3    4 ar
     8    3   26 1
     9    4    5 ar
    10    4   27 1
    11    5   11 ar
    12    5    6 ar
    13    6    7 ar
    14    6    8 ar
    15    7   28 1
    16    8    9 ar
    17    8   29 1
    18    9   10 ar
    19    9   13 1
    20   10   11 ar
    21   10   12 1
    22   13   14 2
    23   13   30 1
    24   14   15 1
    25   14   31 1
    26   15   16 2
    27   15   17 1
    28   17   22 ar
    29   17   18 ar
    30   18   19 ar
    31   18   32 1
    32   19   20 ar
    33   19   33 1
    34   20   21 ar
    35   20   34 1
    36   21   22 ar
    37   21   35 1
    38   22   36 1
@<TRIPOS>MOLECULE
ZINC04996888
   33    35     0     0     0
SMALL
USER_CHARGES
3-(2-chloro-6-methyl-3-quinolyl)-1-(2-thienyl)prop-2-en-1-one
@<TRIPOS>ATOM
      1 C1          2.4670    1.0355   -0.0160 C.3       1 <0>        -0.1201
      2 C2          1.1548    1.7764    0.0006 C.ar      1 <0>        -0.0751
      3 C3          1.1514    3.1697    0.0077 C.ar      1 <0>        -0.0863
      4 C4         -0.0161    3.8700    0.0222 C.ar      1 <0>        -0.0891
      5 C5         -1.2424    3.1843    0.0307 C.ar      1 <0>         0.1463
      6 C6         -1.2372    1.7661    0.0175 C.ar      1 <0>        -0.0989
      7 C7         -0.0126    1.0758    0.0080 C.ar      1 <0>        -0.0954
      8 C8         -2.4605    1.0763    0.0190 C.ar      1 <0>        -0.0201
      9 C9         -3.6339    1.8270    0.0282 C.ar      1 <0>        -0.1184
     10 C10        -3.5545    3.2348    0.0356 C.ar      1 <0>         0.2237
     11 N1         -2.4012    3.8538    0.0445 N.ar      1 <0>        -0.4625
     12 Cl1        -5.0186    4.1676    0.0471 Cl        1 <0>        -0.0127
     13 C11        -4.9430    1.1576    0.0307 C.2       1 <0>        -0.0096
     14 C12        -5.0118   -0.1906    0.0240 C.2       1 <0>        -0.2208
     15 C13        -6.3154   -0.8572    0.0265 C.2       1 <0>         0.4673
     16 O1         -7.3387   -0.1948    0.0345 O.2       1 <0>        -0.4441
     17 C14        -6.3900   -2.3219    0.0192 C.2       1 <0>        -0.2599
     18 C15        -7.5103   -3.1405    0.0201 C.2       1 <0>        -0.0716
     19 C16        -7.2936   -4.4955    0.0121 C.2       1 <0>        -0.1810
     20 C17        -6.0172   -4.9636    0.0039 C.2       1 <0>        -0.1805
     21 S1         -5.0641   -3.5155   -0.0008 S.3       1 <0>         0.1542
     22 H1          2.7735    0.8625   -1.0476 H         1 <0>         0.0769
     23 H2          3.2258    1.6292    0.4938 H         1 <0>         0.0721
     24 H3          2.3508    0.0791    0.4938 H         1 <0>         0.0712
     25 H4          2.0905    3.7030    0.0012 H         1 <0>         0.1366
     26 H5          0.0003    4.9499    0.0268 H         1 <0>         0.1426
     27 H6          0.0021   -0.0041    0.0020 H         1 <0>         0.1367
     28 H7         -2.4906   -0.0033    0.0135 H         1 <0>         0.1557
     29 H8         -5.8496    1.7445    0.0378 H         1 <0>         0.1484
     30 H9         -4.1052   -0.7775    0.0169 H         1 <0>         0.1335
     31 H10        -8.5090   -2.7294    0.0271 H         1 <0>         0.1474
     32 H11        -8.1273   -5.1821    0.0120 H         1 <0>         0.1413
     33 H12        -5.6789   -5.9892   -0.0034 H         1 <0>         0.1920
@<TRIPOS>BOND
     1    1    2 1
     2    1   22 1
     3    1   23 1
     4    1   24 1
     5    2    7 ar
     6    2    3 ar
     7    3    4 ar
     8    3   25 1
     9    4    5 ar
    10    4   26 1
    11    5   11 ar
    12    5    6 ar
    13    6    7 ar
    14    6    8 ar
    15    7   27 1
    16    8    9 ar
    17    8   28 1
    18    9   10 ar
    19    9   13 1
    20   10   11 ar
    21   10   12 1
    22   13   14 2
    23   13   29 1
    24   14   15 1
    25   14   30 1
    26   15   16 2
    27   15   17 1
    28   17   21 1
    29   17   18 2
    30   18   19 1
    31   18   31 1
    32   19   20 2
    33   19   32 1
    34   20   21 1
    35   20   33 1
@<TRIPOS>MOLECULE
ZINC01482113
   18    17     0     0     0
SMALL
USER_CHARGES

@<TRIPOS>ATOM
      1 C1         -0.0187    1.5258    0.0104 C.3       1 <0>        -0.1000
      2 C2          0.0021   -0.0041    0.0020 C.3       1 <0>        -0.1962
      3 C3         -1.4117   -0.5257    0.0127 C.2       1 <0>         0.4893
      4 O1         -2.3491    0.2539    0.0259 O.co2     1 <0>        -0.6870
      5 O2         -1.6182   -1.7273    0.0082 O.co2     1 <0>        -0.7019
      6 C4          1.4167    2.0553   -0.0004 C.3       1 <0>        -0.0520
      7 H1          1.9535    1.6326   -0.8497 H         1 <0>         0.1269
      8 C5          1.3970    3.5578   -0.1160 C.2       1 <0>         0.4945
      9 O3          1.7295    4.2467    0.8334 O.co2     1 <0>        -0.6861
     10 O4          1.0484    4.0844   -1.1589 O.co2     1 <0>        -0.6413
     11 N1          2.0906    1.6690    1.2464 N.4       1 <0>        -0.6105
     12 H2         -0.5459    1.8868   -0.8726 H         1 <0>         0.1064
     13 H3         -0.5289    1.8773    0.9072 H         1 <0>         0.0773
     14 H4          0.5123   -0.3556   -0.8948 H         1 <0>         0.0672
     15 H5          0.5293   -0.3651    0.8851 H         1 <0>         0.0471
     16 H6          2.1039    0.6630    1.3237 H         1 <0>         0.4141
     17 H7          3.0372    2.0182    1.2392 H         1 <0>         0.4227
     18 H8          1.5937    2.0603    2.0325 H         1 <0>         0.4293
@<TRIPOS>BOND
     1    1    2 1
     2    1    6 1
     3    1   12 1
     4    1   13 1
     5    2    3 1
     6    2   14 1
     7    2   15 1
     8    3    4 2
     9    3    5 1
    10    6    7 1
    11    6    8 1
    12    6   11 1
    13    8    9 2
    14    8   10 1
    15   11   16 1
    16   11   17 1
    17   11   18 1
@<TRIPOS>MOLECULE
ZINC00895124
   18    17     0     0     0
SMALL
USER_CHARGES

@<TRIPOS>ATOM
      1 C1         -0.0187    1.5258    0.0104 C.3       1 <0>        -0.1010
      2 C2          0.0021   -0.0041    0.0020 C.3       1 <0>        -0.1959
      3 C3         -1.4117   -0.5257    0.0127 C.2       1 <0>         0.4893
      4 O1         -2.3491    0.2539    0.0259 O.co2     1 <0>        -0.6871
      5 O2         -1.6182   -1.7273    0.0082 O.co2     1 <0>        -0.7016
      6 C4          1.4167    2.0553   -0.0004 C.3       1 <0>        -0.0510
      7 H1          1.9696    1.6236    0.8338 H         1 <0>         0.1263
      8 C5          1.3993    3.5565    0.1316 C.2       1 <0>         0.4931
      9 O3          1.4342    4.0717    1.2361 O.co2     1 <0>        -0.6465
     10 O4          1.3504    4.2557   -0.8660 O.co2     1 <0>        -0.6784
     11 N1          2.0667    1.6824   -1.2639 N.4       1 <0>        -0.6121
     12 H2         -0.5459    1.8868   -0.8726 H         1 <0>         0.0805
     13 H3         -0.5289    1.8773    0.9072 H         1 <0>         0.1026
     14 H4          0.5123   -0.3556   -0.8948 H         1 <0>         0.0475
     15 H5          0.5293   -0.3651    0.8851 H         1 <0>         0.0673
     16 H6          3.0133    2.0317   -1.2711 H         1 <0>         0.4211
     17 H7          2.0783    0.6774   -1.3524 H         1 <0>         0.4148
     18 H8          1.5549    2.0821   -2.0362 H         1 <0>         0.4310
@<TRIPOS>BOND
     1    1    2 1
     2    1    6 1
     3    1   12 1
     4    1   13 1
     5    2    3 1
     6    2   14 1
     7    2   15 1
     8    3    4 2
     9    3    5 1
    10    6    7 1
    11    6    8 1
    12    6   11 1
    13    8    9 2
    14    8   10 1
    15   11   16 1
    16   11   17 1
    17   11   18 1
