@<TRIPOS>MOLECULE
ZINC19632743
   20    19     0     0     0
SMALL
USER_CHARGES

@<TRIPOS>ATOM
      1 C1         -0.0187    1.5258    0.0104 C.3       1 <0>        -0.0985
      2 C2          0.0021   -0.0041    0.0020 C.3       1 <0>        -0.7423
      3 P1         -1.7082   -0.6351    0.0150 P.3       1 <0>         2.2529
      4 O1         -2.4691   -0.0359    1.2187 O.2       1 <0>        -1.0899
      5 O2         -2.4170   -0.2287   -1.2963 O.3       1 <0>        -1.0881
      6 O3         -1.6871   -2.2402    0.1384 O.3       1 <0>        -0.9064
      7 C3          1.4167    2.0553   -0.0004 C.3       1 <0>        -0.0481
      8 H1          1.9535    1.6326   -0.8497 H         1 <0>         0.1243
      9 C4          1.3970    3.5578   -0.1160 C.2       1 <0>         0.4947
     10 O4          1.7295    4.2467    0.8334 O.co2     1 <0>        -0.6823
     11 O5          1.0484    4.0844   -1.1589 O.co2     1 <0>        -0.6363
     12 N1          2.0906    1.6690    1.2464 N.4       1 <0>        -0.6104
     13 H2         -0.5459    1.8868   -0.8726 H         1 <0>         0.1162
     14 H3         -0.5289    1.8773    0.9072 H         1 <0>         0.0904
     15 H4          0.5123   -0.3556   -0.8948 H         1 <0>         0.0822
     16 H5          0.5293   -0.3651    0.8851 H         1 <0>         0.0600
     17 H6         -2.5651   -2.6452    0.1513 H         1 <0>         0.4152
     18 H7          2.1039    0.6630    1.3237 H         1 <0>         0.4110
     19 H8          3.0372    2.0182    1.2392 H         1 <0>         0.4240
     20 H9          1.5937    2.0603    2.0325 H         1 <0>         0.4313
@<TRIPOS>BOND
     1    1    2 1
     2    1    7 1
     3    1   13 1
     4    1   14 1
     5    2    3 1
     6    2   15 1
     7    2   16 1
     8    3    4 2
     9    3    5 1
    10    3    6 1
    11    6   17 1
    12    7    8 1
    13    7    9 1
    14    7   12 1
    15    9   10 2
    16    9   11 1
    17   12   18 1
    18   12   19 1
    19   12   20 1
@<TRIPOS>MOLECULE
ZINC19632748
   20    19     0     0     0
SMALL
USER_CHARGES

@<TRIPOS>ATOM
      1 C1         -0.0187    1.5258    0.0104 C.3       1 <0>        -0.0994
      2 C2          0.0021   -0.0041    0.0020 C.3       1 <0>        -0.7423
      3 P1         -1.7082   -0.6351    0.0150 P.3       1 <0>         2.2534
      4 O1         -2.4691   -0.0359    1.2187 O.2       1 <0>        -1.0876
      5 O2         -2.4170   -0.2287   -1.2963 O.3       1 <0>        -1.0909
      6 O3         -1.6871   -2.2402    0.1384 O.3       1 <0>        -0.9061
      7 C3          1.4167    2.0553   -0.0004 C.3       1 <0>        -0.0470
      8 H1          1.9696    1.6236    0.8338 H         1 <0>         0.1236
      9 C4          1.3993    3.5565    0.1316 C.2       1 <0>         0.4932
     10 O4          1.4342    4.0717    1.2361 O.co2     1 <0>        -0.6420
     11 O5          1.3504    4.2557   -0.8660 O.co2     1 <0>        -0.6741
     12 N1          2.0667    1.6824   -1.2639 N.4       1 <0>        -0.6120
     13 H2         -0.5459    1.8868   -0.8726 H         1 <0>         0.0908
     14 H3         -0.5289    1.8773    0.9072 H         1 <0>         0.1151
     15 H4          0.5123   -0.3556   -0.8948 H         1 <0>         0.0622
     16 H5          0.5293   -0.3651    0.8851 H         1 <0>         0.0808
     17 H6         -2.5651   -2.6452    0.1513 H         1 <0>         0.4152
     18 H7          3.0133    2.0317   -1.2711 H         1 <0>         0.4222
     19 H8          2.0783    0.6774   -1.3524 H         1 <0>         0.4119
     20 H9          1.5549    2.0821   -2.0362 H         1 <0>         0.4330
@<TRIPOS>BOND
     1    1    2 1
     2    1    7 1
     3    1   13 1
     4    1   14 1
     5    2    3 1
     6    2   15 1
     7    2   16 1
     8    3    4 2
     9    3    5 1
    10    3    6 1
    11    6   17 1
    12    7    8 1
    13    7    9 1
    14    7   12 1
    15    9   10 2
    16    9   11 1
    17   12   18 1
    18   12   19 1
    19   12   20 1
@<TRIPOS>MOLECULE
ZINC04391801
   23    24     0     0     0
SMALL
USER_CHARGES
3-aminobicyclo[2.1.1]hexane-3,5-dicarboxylic acid
@<TRIPOS>ATOM
      1 C1         -0.1932    1.8486    1.3557 C.3       1 <0>        -0.1075
      2 C2         -0.0127    1.0858    0.0080 C.3       1 <0>        -0.1190
      3 H1          0.0021   -0.0041    0.0020 H         1 <0>         0.1102
      4 C3         -0.8680    1.8164   -1.0830 C.3       1 <0>        -0.1018
      5 C4         -0.5567    3.3008   -0.6708 C.3       1 <0>         0.0043
      6 C5          0.4072    3.0300    0.5346 C.3       1 <0>        -0.1028
      7 H2          0.8428    3.8891    1.0448 H         1 <0>         0.1136
      8 C6          1.3119    1.8907   -0.0003 C.3       1 <0>        -0.1477
      9 H3          1.7207    2.0692   -0.9949 H         1 <0>         0.0572
     10 C7          2.3393    1.4013    0.9875 C.2       1 <0>         0.4810
     11 O1          2.4893    1.9777    2.0388 O.co2     1 <0>        -0.6253
     12 C8         -1.7980    4.0331   -0.2304 C.2       1 <0>         0.4745
     13 O2         -2.1775    3.9453    0.9133 O.co2     1 <0>        -0.5698
     14 H4         -1.2312    1.9915    1.6558 H         1 <0>         0.0810
     15 H5          0.4460    1.4918    2.1633 H         1 <0>         0.1155
     16 H6         -0.5164    1.5826   -2.0879 H         1 <0>         0.0842
     17 H7         -1.9293    1.5935   -0.9730 H         1 <0>         0.0957
     18 H8         -0.4992    4.1875   -2.5280 H         1 <0>         0.4340
     19 H9          0.5323    4.8784   -1.4215 H         1 <0>         0.4272
     20 O3          3.0880    0.3250    0.6995 O.co2     1 <0>        -0.7600
     21 O4         -2.4821    4.7830   -1.1088 O.co2     1 <0>        -0.7509
     22 N1          0.1452    3.9998   -1.7617 N.4       1 <0>        -0.6124
     23 H10         0.9103    3.4072   -2.1050 H         1 <0>         0.4190
@<TRIPOS>BOND
     1    1    6 1
     2    1    2 1
     3    1   14 1
     4    1   15 1
     5    2    3 1
     6    2    8 1
     7    2    4 1
     8    4    5 1
     9    4   16 1
    10    4   17 1
    11    5    6 1
    12    5   12 1
    13    5   22 1
    14    6    7 1
    15    6    8 1
    16    8    9 1
    17    8   10 1
    18   10   11 2
    19   10   20 1
    20   12   13 2
    21   12   21 1
    22   18   22 1
    23   19   22 1
    24   22   23 1
@<TRIPOS>MOLECULE
ZINC00895124
   18    17     0     0     0
SMALL
USER_CHARGES

@<TRIPOS>ATOM
      1 C1         -0.0187    1.5258    0.0104 C.3       1 <0>        -0.1010
      2 C2          0.0021   -0.0041    0.0020 C.3       1 <0>        -0.1959
      3 C3         -1.4117   -0.5257    0.0127 C.2       1 <0>         0.4893
      4 O1         -2.3491    0.2539    0.0259 O.co2     1 <0>        -0.6871
      5 O2         -1.6182   -1.7273    0.0082 O.co2     1 <0>        -0.7016
      6 C4          1.4167    2.0553   -0.0004 C.3       1 <0>        -0.0510
      7 H1          1.9696    1.6236    0.8338 H         1 <0>         0.1263
      8 C5          1.3993    3.5565    0.1316 C.2       1 <0>         0.4931
      9 O3          1.4342    4.0717    1.2361 O.co2     1 <0>        -0.6465
     10 O4          1.3504    4.2557   -0.8660 O.co2     1 <0>        -0.6784
     11 N1          2.0667    1.6824   -1.2639 N.4       1 <0>        -0.6121
     12 H2         -0.5459    1.8868   -0.8726 H         1 <0>         0.0805
     13 H3         -0.5289    1.8773    0.9072 H         1 <0>         0.1026
     14 H4          0.5123   -0.3556   -0.8948 H         1 <0>         0.0475
     15 H5          0.5293   -0.3651    0.8851 H         1 <0>         0.0673
     16 H6          3.0133    2.0317   -1.2711 H         1 <0>         0.4211
     17 H7          2.0783    0.6774   -1.3524 H         1 <0>         0.4148
     18 H8          1.5549    2.0821   -2.0362 H         1 <0>         0.4310
@<TRIPOS>BOND
     1    1    2 1
     2    1    6 1
     3    1   12 1
     4    1   13 1
     5    2    3 1
     6    2   14 1
     7    2   15 1
     8    3    4 2
     9    3    5 1
    10    6    7 1
    11    6    8 1
    12    6   11 1
    13    8    9 2
    14    8   10 1
    15   11   16 1
    16   11   17 1
    17   11   18 1
