@<TRIPOS>MOLECULE
ZINC43208321
   61    65     0     0     0
SMALL
USER_CHARGES

@<TRIPOS>ATOM
      1 C1         -0.0167    1.3794    0.0096 C.ar      1 <0>        -0.0984
      2 C2          1.1666    2.0885    0.0021 C.ar      1 <0>        -0.0733
      3 C3          2.3851    1.4068   -0.0132 C.ar      1 <0>        -0.0216
      4 C4          2.3967    0.0105   -0.0208 C.ar      1 <0>        -0.0724
      5 C5          1.2059   -0.6859   -0.0132 C.ar      1 <0>        -0.0950
      6 C6          0.0021   -0.0041    0.0020 C.ar      1 <0>        -0.0617
      7 C7         -1.2947   -0.7718    0.0108 C.3       1 <0>         0.0992
      8 O1         -1.7180   -1.0072   -1.3336 O.3       1 <0>        -0.3687
      9 C8         -2.9449   -1.7324   -1.4381 C.3       1 <0>         0.0682
     10 C9         -3.2990   -1.9254   -2.9140 C.3       1 <0>         0.0932
     11 H1         -3.3130   -0.9606   -3.4209 H         1 <0>         0.1015
     12 C10        -4.6778   -2.6024   -3.0378 C.3       1 <0>         0.0483
     13 H2         -5.0763   -2.8396   -2.0513 H         1 <0>         0.0891
     14 C11        -4.3936   -3.8995   -3.8336 C.3       1 <0>         0.0371
     15 H3         -4.2827   -4.7512   -3.1625 H         1 <0>         0.0929
     16 C12        -3.0497   -3.5654   -4.5299 C.3       1 <0>         0.3183
     17 H4         -3.2200   -2.9713   -5.4278 H         1 <0>         0.1130
     18 O2         -2.3367   -2.7916   -3.5383 O.3       1 <0>        -0.3287
     19 N1         -2.3186   -4.7923   -4.8559 N.pl3     1 <0>        -0.4856
     20 C13        -1.6436   -5.5984   -3.9683 C.ar      1 <0>         0.3087
     21 C14        -1.1031   -6.6489   -4.7278 C.ar      1 <0>        -0.0753
     22 C15        -0.3538   -7.6316   -4.0615 C.ar      1 <0>         0.4912
     23 N2         -0.1915   -7.5221   -2.7467 N.ar      1 <0>        -0.5842
     24 C16        -0.7192   -6.5157   -2.0746 C.ar      1 <0>         0.3445
     25 N3         -1.4285   -5.5717   -2.6578 N.ar      1 <0>        -0.5388
     26 N4          0.2035   -8.6918   -4.7585 N.pl3     1 <0>        -0.8232
     27 N5         -1.4652   -6.4407   -6.0188 N.2       1 <0>        -0.5096
     28 C17        -2.1864   -5.3502   -6.0976 C.2       1 <0>         0.5527
     29 N6         -2.7290   -4.8393   -7.2594 N.pl3     1 <0>        -0.7023
     30 C18        -2.5163   -5.5311   -8.5332 C.3       1 <0>         0.1897
     31 C19        -3.2074   -4.7737   -9.6377 C.ar      1 <0>        -0.0978
     32 C20        -4.5207   -5.0641   -9.9579 C.ar      1 <0>        -0.0777
     33 C21        -5.1554   -4.3706  -10.9709 C.ar      1 <0>        -0.1003
     34 C22        -4.4769   -3.3847  -11.6648 C.ar      1 <0>        -0.0218
     35 C23        -3.1620   -3.0936  -11.3439 C.ar      1 <0>        -0.0351
     36 C24        -2.5298   -3.7853  -10.3261 C.ar      1 <0>        -0.0768
     37 Cl1        -2.3089   -1.8572  -12.2142 Cl        1 <0>        -0.0416
     38 Cl2        -5.2735   -2.5136  -12.9377 Cl        1 <0>        -0.0420
     39 O3         -5.4211   -4.1425   -4.7966 O.3       1 <0>        -0.5398
     40 O4         -5.5852   -1.7620   -3.7536 O.3       1 <0>        -0.5397
     41 C25         3.6173    2.1363   -0.0215 C.1       1 <0>         0.2503
     42 N7          4.5948    2.7150   -0.0281 N.1       1 <0>        -0.4112
     43 H5         -0.9598    1.9053    0.0260 H         1 <0>         0.1351
     44 H6          1.1505    3.1683    0.0077 H         1 <0>         0.1354
     45 H7          3.3356   -0.5229   -0.0330 H         1 <0>         0.1356
     46 H8          1.2134   -1.7659   -0.0194 H         1 <0>         0.1365
     47 H9         -1.1489   -1.7255    0.5181 H         1 <0>         0.0661
     48 H10        -2.0555   -0.1938    0.5353 H         1 <0>         0.0632
     49 H11        -2.8333   -2.7060   -0.9609 H         1 <0>         0.0686
     50 H12        -3.7400   -1.1743   -0.9437 H         1 <0>         0.0697
     51 H13        -0.5632   -6.4646   -1.0071 H         1 <0>         0.2008
     52 H14         0.0779   -8.7610   -5.7178 H         1 <0>         0.4170
     53 H15         0.7192   -9.3646   -4.2870 H         1 <0>         0.4086
     54 H16        -3.2511   -4.0222   -7.2325 H         1 <0>         0.4116
     55 H17        -1.4481   -5.5856   -8.7431 H         1 <0>         0.0835
     56 H18        -2.9265   -6.5391   -8.4721 H         1 <0>         0.0851
     57 H19        -5.0507   -5.8336   -9.4163 H         1 <0>         0.1429
     58 H20        -6.1811   -4.5984  -11.2209 H         1 <0>         0.1467
     59 H21        -1.5053   -3.5559  -10.0726 H         1 <0>         0.1461
     60 H22        -6.2992   -4.2680   -4.4116 H         1 <0>         0.3865
     61 H23        -6.4692   -2.1391   -3.8610 H         1 <0>         0.3857
@<TRIPOS>BOND
     1    1    6 ar
     2    1    2 ar
     3    1   43 1
     4    2    3 ar
     5    2   44 1
     6    3    4 ar
     7    3   41 1
     8    4    5 ar
     9    4   45 1
    10    5    6 ar
    11    5   46 1
    12    6    7 1
    13    7    8 1
    14    7   47 1
    15    7   48 1
    16    8    9 1
    17    9   10 1
    18    9   49 1
    19    9   50 1
    20   10   11 1
    21   10   18 1
    22   10   12 1
    23   12   13 1
    24   12   14 1
    25   12   40 1
    26   14   15 1
    27   14   16 1
    28   14   39 1
    29   16   17 1
    30   16   18 1
    31   16   19 1
    32   19   28 1
    33   19   20 1
    34   20   25 ar
    35   20   21 ar
    36   21   22 ar
    37   21   27 1
    38   22   23 ar
    39   22   26 1
    40   23   24 ar
    41   24   25 ar
    42   24   51 1
    43   26   52 1
    44   26   53 1
    45   27   28 2
    46   28   29 1
    47   29   30 1
    48   29   54 1
    49   30   31 1
    50   30   55 1
    51   30   56 1
    52   31   36 ar
    53   31   32 ar
    54   32   33 ar
    55   32   57 1
    56   33   34 ar
    57   33   58 1
    58   34   35 ar
    59   34   38 1
    60   35   36 ar
    61   35   37 1
    62   36   59 1
    63   39   60 1
    64   40   61 1
    65   41   42 3
@<TRIPOS>MOLECULE
ZINC43208321
   62    66     0     0     0
SMALL
USER_CHARGES

@<TRIPOS>ATOM
      1 C1         -0.0167    1.3794    0.0096 C.ar      1 <0>        -0.0962
      2 C2          1.1666    2.0885    0.0021 C.ar      1 <0>        -0.0711
      3 C3          2.3851    1.4068   -0.0132 C.ar      1 <0>        -0.0147
      4 C4          2.3967    0.0105   -0.0208 C.ar      1 <0>        -0.0743
      5 C5          1.2059   -0.6859   -0.0132 C.ar      1 <0>        -0.0975
      6 C6          0.0021   -0.0041    0.0020 C.ar      1 <0>        -0.0673
      7 C7         -1.2947   -0.7718    0.0108 C.3       1 <0>         0.1010
      8 O1         -1.7180   -1.0072   -1.3336 O.3       1 <0>        -0.3702
      9 C8         -2.9449   -1.7324   -1.4381 C.3       1 <0>         0.0673
     10 C9         -3.2990   -1.9254   -2.9140 C.3       1 <0>         0.0921
     11 H1         -3.3130   -0.9606   -3.4209 H         1 <0>         0.1099
     12 C10        -4.6778   -2.6024   -3.0378 C.3       1 <0>         0.0494
     13 H2         -5.0763   -2.8396   -2.0513 H         1 <0>         0.0952
     14 C11        -4.3936   -3.8995   -3.8336 C.3       1 <0>         0.0369
     15 H3         -4.2827   -4.7512   -3.1625 H         1 <0>         0.0923
     16 C12        -3.0497   -3.5654   -4.5299 C.3       1 <0>         0.3038
     17 H4         -3.2200   -2.9713   -5.4278 H         1 <0>         0.1295
     18 O2         -2.3367   -2.7916   -3.5383 O.3       1 <0>        -0.3315
     19 N1         -2.3186   -4.7923   -4.8559 N.pl3     1 <0>        -0.4654
     20 C13        -1.6436   -5.5984   -3.9683 C.ar      1 <0>         0.3244
     21 C14        -1.1031   -6.6489   -4.7278 C.ar      1 <0>        -0.0256
     22 C15        -0.3538   -7.6316   -4.0615 C.ar      1 <0>         0.5254
     23 N2         -0.1915   -7.5221   -2.7467 N.ar      1 <0>        -0.5434
     24 C16        -0.7192   -6.5157   -2.0746 C.ar      1 <0>         0.3644
     25 N3         -1.4285   -5.5717   -2.6578 N.ar      1 <0>        -0.4501
     26 N4          0.2035   -8.6918   -4.7585 N.pl3     1 <0>        -0.7867
     27 N5         -1.4652   -6.4407   -6.0188 N.2       1 <0>        -0.4988
     28 C17        -2.1864   -5.3502   -6.0976 C.2       1 <0>         0.5920
     29 N6         -2.7290   -4.8393   -7.2594 N.pl3     1 <0>        -0.6815
     30 C18        -2.5163   -5.5311   -8.5332 C.3       1 <0>         0.1830
     31 C19        -3.2074   -4.7737   -9.6377 C.ar      1 <0>        -0.1124
     32 C20        -4.5207   -5.0641   -9.9579 C.ar      1 <0>        -0.0760
     33 C21        -5.1554   -4.3706  -10.9709 C.ar      1 <0>        -0.0989
     34 C22        -4.4769   -3.3847  -11.6648 C.ar      1 <0>        -0.0163
     35 C23        -3.1620   -3.0936  -11.3439 C.ar      1 <0>        -0.0361
     36 C24        -2.5298   -3.7853  -10.3261 C.ar      1 <0>        -0.0751
     37 Cl1        -2.3089   -1.8572  -12.2142 Cl        1 <0>        -0.0337
     38 Cl2        -5.2735   -2.5136  -12.9377 Cl        1 <0>        -0.0319
     39 O3         -5.4211   -4.1425   -4.7966 O.3       1 <0>        -0.5400
     40 O4         -5.5852   -1.7620   -3.7536 O.3       1 <0>        -0.5359
     41 C25         3.6173    2.1363   -0.0215 C.1       1 <0>         0.2436
     42 N7          4.5948    2.7150   -0.0281 N.1       1 <0>        -0.4018
     43 H5         -0.9598    1.9053    0.0260 H         1 <0>         0.1364
     44 H6          1.1505    3.1683    0.0077 H         1 <0>         0.1378
     45 H7          3.3356   -0.5229   -0.0330 H         1 <0>         0.1354
     46 H8          1.2134   -1.7659   -0.0194 H         1 <0>         0.1323
     47 H9         -1.1489   -1.7255    0.5181 H         1 <0>         0.0647
     48 H10        -2.0555   -0.1938    0.5353 H         1 <0>         0.0663
     49 H11        -2.8333   -2.7060   -0.9609 H         1 <0>         0.0659
     50 H12        -3.7400   -1.1743   -0.9437 H         1 <0>         0.0760
     51 H13        -0.5632   -6.4646   -1.0071 H         1 <0>         0.2493
     52 H14         0.0779   -8.7610   -5.7178 H         1 <0>         0.4476
     53 H15         0.7192   -9.3646   -4.2870 H         1 <0>         0.4266
     54 H16        -3.2511   -4.0222   -7.2325 H         1 <0>         0.4221
     55 H17        -1.4481   -5.5856   -8.7431 H         1 <0>         0.0922
     56 H18        -2.9265   -6.5391   -8.4721 H         1 <0>         0.0938
     57 H19        -5.0507   -5.8336   -9.4163 H         1 <0>         0.1429
     58 H20        -6.1811   -4.5984  -11.2209 H         1 <0>         0.1497
     59 H21        -1.5053   -3.5559  -10.0726 H         1 <0>         0.1461
     60 H22        -6.2992   -4.2680   -4.4116 H         1 <0>         0.3954
     61 H23        -6.4692   -2.1391   -3.8610 H         1 <0>         0.3905
     62 H24         0.3234   -8.1937   -2.2727 H         1 <0>         0.4509
@<TRIPOS>BOND
     1    1    6 ar
     2    1    2 ar
     3    1   43 1
     4    2    3 ar
     5    2   44 1
     6    3    4 ar
     7    3   41 1
     8    4    5 ar
     9    4   45 1
    10    5    6 ar
    11    5   46 1
    12    6    7 1
    13    7    8 1
    14    7   47 1
    15    7   48 1
    16    8    9 1
    17    9   10 1
    18    9   49 1
    19    9   50 1
    20   10   11 1
    21   10   18 1
    22   10   12 1
    23   12   13 1
    24   12   14 1
    25   12   40 1
    26   14   15 1
    27   14   16 1
    28   14   39 1
    29   16   17 1
    30   16   18 1
    31   16   19 1
    32   19   28 1
    33   19   20 1
    34   20   25 ar
    35   20   21 ar
    36   21   22 ar
    37   21   27 1
    38   22   23 ar
    39   22   26 1
    40   23   24 ar
    41   23   62 1
    42   24   25 ar
    43   24   51 1
    44   26   52 1
    45   26   53 1
    46   27   28 2
    47   28   29 1
    48   29   30 1
    49   29   54 1
    50   30   31 1
    51   30   55 1
    52   30   56 1
    53   31   36 ar
    54   31   32 ar
    55   32   33 ar
    56   32   57 1
    57   33   34 ar
    58   33   58 1
    59   34   35 ar
    60   34   38 1
    61   35   36 ar
    62   35   37 1
    63   36   59 1
    64   39   60 1
    65   40   61 1
    66   41   42 3
@<TRIPOS>MOLECULE
ZINC05163030
   34    36     0     0     0
SMALL
USER_CHARGES
(2R,3R,4S,5R)-2-(6,8-diaminopurin-9-yl)-5-(hydroxymethyl)tetrahydrofuran-3,4-diol
@<TRIPOS>ATOM
      1 C1          1.6241    2.1553    4.9594 C.ar      1 <0>         0.3292
      2 N1          1.5804    1.1495    5.8140 N.ar      1 <0>        -0.5645
      3 C2          0.8502    0.0671    5.5658 C.ar      1 <0>         0.4244
      4 C3          0.1309    0.0064    4.3611 C.ar      1 <0>        -0.0252
      5 C4          0.2127    1.0999    3.4840 C.ar      1 <0>         0.2989
      6 N2          0.9626    2.1436    3.8210 N.ar      1 <0>        -0.5235
      7 N3         -0.5779    0.7836    2.4032 N.pl3     1 <0>        -0.4867
      8 C5         -1.1021   -0.4592    2.6292 C.2       1 <0>         0.5557
      9 N4         -0.6822   -0.9137    3.7836 N.2       1 <0>        -0.5108
     10 N5         -1.9462   -1.1333    1.7700 N.pl3     1 <0>        -0.8185
     11 C6         -0.8104    1.6215    1.2242 C.3       1 <0>         0.3113
     12 H1         -0.5453    2.6584    1.4306 H         1 <0>         0.1314
     13 C7         -0.0127    1.0858    0.0080 C.3       1 <0>         0.0758
     14 H2          0.0021   -0.0041    0.0020 H         1 <0>         0.0890
     15 C8         -0.8325    1.6338   -1.1855 C.3       1 <0>         0.0441
     16 H3         -0.9034    0.8857   -1.9750 H         1 <0>         0.0897
     17 C9         -2.2226    1.9242   -0.5872 C.3       1 <0>         0.0492
     18 H4         -2.4416    2.9896   -0.6586 H         1 <0>         0.1019
     19 O1         -2.1859    1.5242    0.7930 O.3       1 <0>        -0.3532
     20 C10        -3.2887    1.1199   -1.3338 C.3       1 <0>         0.0770
     21 O2         -4.5839    1.4823   -0.8510 O.3       1 <0>        -0.5612
     22 O3         -0.2432    2.8349   -1.6876 O.3       1 <0>        -0.5350
     23 O4          1.3161    1.6115   -0.0019 O.3       1 <0>        -0.5236
     24 N6          0.8123   -0.9843    6.4675 N.pl3     1 <0>        -0.7440
     25 H5          2.2248    3.0191    5.2030 H         1 <0>         0.2057
     26 H6         -2.2105   -0.7254    0.9305 H         1 <0>         0.4111
     27 H7         -2.2751   -2.0149    2.0056 H         1 <0>         0.4259
     28 H8         -3.2253    1.3349   -2.4005 H         1 <0>         0.0686
     29 H9         -3.1236    0.0554   -1.1673 H         1 <0>         0.0559
     30 H10        -5.3102    1.0103   -1.2808 H         1 <0>         0.3867
     31 H11        -0.7165    3.2218   -2.4368 H         1 <0>         0.3875
     32 H12         1.8404    1.3409   -0.7679 H         1 <0>         0.3898
     33 H13        -0.1306   -1.1348    6.7645 H         1 <0>         0.3663
     34 H14         1.3134   -0.9307    7.2964 H         1 <0>         0.3714
@<TRIPOS>BOND
     1    1    6 ar
     2    1    2 ar
     3    1   25 1
     4    2    3 ar
     5    3    4 ar
     6    3   24 1
     7    4    9 1
     8    4    5 ar
     9    5    6 ar
    10    5    7 1
    11    7    8 1
    12    7   11 1
    13    8    9 2
    14    8   10 1
    15   10   26 1
    16   10   27 1
    17   11   12 1
    18   11   19 1
    19   11   13 1
    20   13   14 1
    21   13   15 1
    22   13   23 1
    23   15   16 1
    24   15   17 1
    25   15   22 1
    26   17   18 1
    27   17   19 1
    28   17   20 1
    29   20   21 1
    30   20   28 1
    31   20   29 1
    32   21   30 1
    33   22   31 1
    34   23   32 1
    35   24   33 1
    36   24   34 1
