@<TRIPOS>MOLECULE
ZINC03815700
   43    46     0     0     0
SMALL
USER_CHARGES

@<TRIPOS>ATOM
      1 C1         -0.4417    2.5108    0.1274 C.3       1 <0>        -0.4980
      2 S1         -0.2285    0.7138    0.0013 S.o       1 <0>         1.3317
      3 O1          0.3381    0.2184    1.2066 O.2       1 <0>        -0.8500
      4 C2         -1.8753    0.0872    0.0153 C.ar      1 <0>        -0.4539
      5 C3         -2.4807   -0.2316    1.2179 C.ar      1 <0>        -0.0505
      6 C4         -3.7698   -0.7226    1.2359 C.ar      1 <0>        -0.0905
      7 C5         -4.4635   -0.8973    0.0374 C.ar      1 <0>         0.0183
      8 C6         -3.8471   -0.5733   -1.1722 C.ar      1 <0>        -0.1282
      9 C7         -2.5593   -0.0786   -1.1759 C.ar      1 <0>        -0.0372
     10 C8         -5.8450   -1.4235    0.0492 C.2       1 <0>         0.2539
     11 N1         -6.6187   -1.6414   -1.0552 N.pl3     1 <0>        -0.5494
     12 H1         -6.3641   -1.4808   -1.9773 H         1 <0>         0.4258
     13 C9         -7.8254   -2.1307   -0.6157 C.2       1 <0>         0.0559
     14 C10        -7.7421   -2.1946    0.7659 C.2       1 <0>         0.0600
     15 N2         -6.5217   -1.7612    1.1224 N.2       1 <0>        -0.4460
     16 C11        -8.8052   -2.6624    1.6841 C.ar      1 <0>         0.0397
     17 C12        -9.5683   -3.7960    1.3824 C.ar      1 <0>        -0.1547
     18 C13       -10.5481   -4.1969    2.2660 C.ar      1 <0>         0.1020
     19 N3        -10.7699   -3.5273    3.3814 N.ar      1 <0>        -0.4829
     20 C14       -10.0734   -2.4536    3.7038 C.ar      1 <0>         0.1009
     21 C15        -9.0708   -1.9865    2.8804 C.ar      1 <0>        -0.1469
     22 C16        -8.9814   -2.5126   -1.4503 C.ar      1 <0>        -0.0400
     23 C17       -10.2631   -2.0665   -1.1192 C.ar      1 <0>        -0.0563
     24 C18       -11.3392   -2.4265   -1.9026 C.ar      1 <0>        -0.1471
     25 C19       -11.1511   -3.2299   -3.0163 C.ar      1 <0>         0.1129
     26 C20        -9.8817   -3.6756   -3.3498 C.ar      1 <0>        -0.1491
     27 C21        -8.7972   -3.3169   -2.5775 C.ar      1 <0>        -0.0765
     28 F1        -12.2093   -3.5802   -3.7797 F         1 <0>        -0.1335
     29 H2          0.5355    2.9936    0.1264 H         1 <0>         0.1086
     30 H3         -1.0243    2.8681   -0.7218 H         1 <0>         0.1118
     31 H4         -0.9645    2.7506    1.0533 H         1 <0>         0.0820
     32 H5         -1.9427   -0.0960    2.1446 H         1 <0>         0.1340
     33 H6         -4.2409   -0.9717    2.1752 H         1 <0>         0.1409
     34 H7         -4.3783   -0.7065   -2.1030 H         1 <0>         0.1252
     35 H8         -2.0825    0.1760   -2.1109 H         1 <0>         0.1447
     36 H9         -9.3927   -4.3483    0.4711 H         1 <0>         0.1333
     37 H10       -11.1422   -5.0705    2.0420 H         1 <0>         0.1579
     38 H11       -10.2890   -1.9361    4.6268 H         1 <0>         0.1588
     39 H12        -8.5017   -1.1100    3.1527 H         1 <0>         0.1379
     40 H13       -10.4110   -1.4411   -0.2513 H         1 <0>         0.1357
     41 H14       -12.3306   -2.0822   -1.6477 H         1 <0>         0.1434
     42 H15        -9.7412   -4.3013   -4.2187 H         1 <0>         0.1424
     43 H16        -7.8079   -3.6609   -2.8410 H         1 <0>         0.1331
@<TRIPOS>BOND
     1    1    2 1
     2    1   29 1
     3    1   30 1
     4    1   31 1
     5    2    3 2
     6    2    4 1
     7    4    9 ar
     8    4    5 ar
     9    5    6 ar
    10    5   32 1
    11    6    7 ar
    12    6   33 1
    13    7    8 ar
    14    7   10 1
    15    8    9 ar
    16    8   34 1
    17    9   35 1
    18   10   15 2
    19   10   11 1
    20   11   12 1
    21   11   13 1
    22   13   14 2
    23   13   22 1
    24   14   15 1
    25   14   16 1
    26   16   21 ar
    27   16   17 ar
    28   17   18 ar
    29   17   36 1
    30   18   19 ar
    31   18   37 1
    32   19   20 ar
    33   20   21 ar
    34   20   38 1
    35   21   39 1
    36   22   27 ar
    37   22   23 ar
    38   23   24 ar
    39   23   40 1
    40   24   25 ar
    41   24   41 1
    42   25   26 ar
    43   25   28 1
    44   26   27 ar
    45   26   42 1
    46   27   43 1
@<TRIPOS>MOLECULE
ZINC18274812
   43    46     0     0     0
SMALL
USER_CHARGES

@<TRIPOS>ATOM
      1 C1          0.0458    2.4645   -0.3714 C.3       1 <0>        -0.4977
      2 S1          0.1034    0.6635   -0.1624 S.o       1 <0>         1.3328
      3 O1          0.9995    0.3374    0.8912 O.2       1 <0>        -0.8522
      4 C2          0.9248    0.0922   -1.6127 C.ar      1 <0>        -0.4531
      5 C3          0.1894   -0.2245   -2.7411 C.ar      1 <0>        -0.0385
      6 C4          0.8263   -0.6720   -3.8801 C.ar      1 <0>        -0.0921
      7 C5          2.2157   -0.8050   -3.8925 C.ar      1 <0>         0.0171
      8 C6          2.9515   -0.4838   -2.7508 C.ar      1 <0>        -0.1253
      9 C7          2.3027   -0.0324   -1.6200 C.ar      1 <0>        -0.0497
     10 C8          2.9049   -1.2844   -5.1094 C.2       1 <0>         0.2582
     11 N1          4.2515   -1.4590   -5.2384 N.pl3     1 <0>        -0.5486
     12 H1          4.9216   -1.2936   -4.5568 H         1 <0>         0.4252
     13 C9          4.4814   -1.9147   -6.5171 C.2       1 <0>         0.0337
     14 C10         3.2416   -2.0017   -7.1294 C.2       1 <0>         0.0807
     15 N2          2.3171   -1.6154   -6.2370 N.2       1 <0>        -0.4488
     16 C11         2.9826   -2.4473   -8.5186 C.ar      1 <0>        -0.0206
     17 C12         3.6496   -3.5590   -9.0325 C.ar      1 <0>        -0.0694
     18 C13         3.4051   -3.9700  -10.3265 C.ar      1 <0>        -0.1511
     19 C14         2.4988   -3.2799  -11.1154 C.ar      1 <0>         0.1060
     20 C15         1.8337   -2.1747  -10.6093 C.ar      1 <0>        -0.1526
     21 C16         2.0668   -1.7598   -9.3145 C.ar      1 <0>        -0.0599
     22 F1          2.2634   -3.6856  -12.3824 F         1 <0>        -0.1371
     23 C17         5.7881   -2.2443   -7.1163 C.ar      1 <0>         0.0226
     24 C18         6.1399   -1.7662   -8.3862 C.ar      1 <0>        -0.1423
     25 C19         7.3716   -2.0992   -8.9074 C.ar      1 <0>         0.1081
     26 N3          8.2131   -2.8565   -8.2286 N.ar      1 <0>        -0.4784
     27 C20         7.9224   -3.3278   -7.0303 C.ar      1 <0>         0.1071
     28 C21         6.7158   -3.0398   -6.4296 C.ar      1 <0>        -0.1652
     29 H2          1.0609    2.8540   -0.4489 H         1 <0>         0.0810
     30 H3         -0.5069    2.7075   -1.2790 H         1 <0>         0.1130
     31 H4         -0.4514    2.9143    0.4881 H         1 <0>         0.1088
     32 H5         -0.8856   -0.1215   -2.7301 H         1 <0>         0.1470
     33 H6          0.2512   -0.9192   -4.7602 H         1 <0>         0.1462
     34 H7          4.0268   -0.5845   -2.7539 H         1 <0>         0.1202
     35 H8          2.8713    0.2203   -0.7373 H         1 <0>         0.1322
     36 H9          4.3566   -4.0971   -8.4186 H         1 <0>         0.1287
     37 H10         3.9211   -4.8308  -10.7253 H         1 <0>         0.1387
     38 H11         1.1282   -1.6400  -11.2280 H         1 <0>         0.1401
     39 H12         1.5446   -0.9009   -8.9194 H         1 <0>         0.1377
     40 H13         5.4562   -1.1467   -8.9476 H         1 <0>         0.1400
     41 H14         7.6520   -1.7358   -9.8850 H         1 <0>         0.1626
     42 H15         8.6418   -3.9441   -6.5116 H         1 <0>         0.1610
     43 H16         6.4868   -3.4248   -5.4469 H         1 <0>         0.1340
@<TRIPOS>BOND
     1    1    2 1
     2    1   29 1
     3    1   30 1
     4    1   31 1
     5    2    3 2
     6    2    4 1
     7    4    9 ar
     8    4    5 ar
     9    5    6 ar
    10    5   32 1
    11    6    7 ar
    12    6   33 1
    13    7    8 ar
    14    7   10 1
    15    8    9 ar
    16    8   34 1
    17    9   35 1
    18   10   15 2
    19   10   11 1
    20   11   12 1
    21   11   13 1
    22   13   14 2
    23   13   23 1
    24   14   15 1
    25   14   16 1
    26   16   21 ar
    27   16   17 ar
    28   17   18 ar
    29   17   36 1
    30   18   19 ar
    31   18   37 1
    32   19   20 ar
    33   19   22 1
    34   20   21 ar
    35   20   38 1
    36   21   39 1
    37   23   28 ar
    38   23   24 ar
    39   24   25 ar
    40   24   40 1
    41   25   26 ar
    42   25   41 1
    43   26   27 ar
    44   27   28 ar
    45   27   42 1
    46   28   43 1
@<TRIPOS>MOLECULE
ZINC18274812
   43    46     0     0     0
SMALL
USER_CHARGES

@<TRIPOS>ATOM
      1 C1          0.0761    2.5207   -0.3946 C.3       1 <0>        -0.4977
      2 S1          0.1067    0.7194   -0.1829 S.o       1 <0>         1.3328
      3 O1          0.9925    0.3819    0.8757 O.2       1 <0>        -0.8523
      4 C2          0.9273    0.1342   -1.6283 C.ar      1 <0>        -0.4535
      5 C3          0.1933   -0.1734   -2.7600 C.ar      1 <0>        -0.0382
      6 C4          0.8295   -0.6320   -3.8950 C.ar      1 <0>        -0.0929
      7 C5          2.2169   -0.7850   -3.8999 C.ar      1 <0>         0.0183
      8 C6          2.9514   -0.4724   -2.7550 C.ar      1 <0>        -0.1257
      9 C7          2.3033   -0.0102   -1.6282 C.ar      1 <0>        -0.0496
     10 C8          2.9053   -1.2765   -5.1125 C.2       1 <0>         0.2536
     11 N1          4.2517   -1.4710   -5.2346 N.pl3     1 <0>        -0.5504
     12 H1          4.9205   -1.3136   -4.5499 H         1 <0>         0.4255
     13 C9          4.4817   -1.9314   -6.5089 C.2       1 <0>         0.0556
     14 C10         3.2446   -2.0022   -7.1288 C.2       1 <0>         0.0602
     15 N2          2.3192   -1.6008   -6.2417 N.2       1 <0>        -0.4443
     16 C11         2.9879   -2.4463   -8.5176 C.ar      1 <0>         0.0401
     17 C12         3.6482   -3.5593   -9.0502 C.ar      1 <0>        -0.1549
     18 C13         3.3789   -3.9386  -10.3482 C.ar      1 <0>         0.1021
     19 N3          2.5133   -3.2676  -11.0845 N.ar      1 <0>        -0.4831
     20 C14         1.8693   -2.2129  -10.6212 C.ar      1 <0>         0.1008
     21 C15         2.0741   -1.7682   -9.3321 C.ar      1 <0>        -0.1466
     22 C16         5.7882   -2.2812   -7.1001 C.ar      1 <0>        -0.0406
     23 C17         6.1350   -1.8042   -8.3665 C.ar      1 <0>        -0.0561
     24 C18         7.3568   -2.1344   -8.9137 C.ar      1 <0>        -0.1471
     25 C19         8.2399   -2.9383   -8.2101 C.ar      1 <0>         0.1131
     26 C20         7.9012   -3.4146   -6.9533 C.ar      1 <0>        -0.1492
     27 C21         6.6848   -3.0860   -6.3932 C.ar      1 <0>        -0.0767
     28 F1          9.4352   -3.2593   -8.7516 F         1 <0>        -0.1334
     29 H2          1.0971    2.8954   -0.4674 H         1 <0>         0.0810
     30 H3         -0.4683    2.7703   -1.3054 H         1 <0>         0.1130
     31 H4         -0.4189    2.9788    0.4616 H         1 <0>         0.1087
     32 H5         -0.8802   -0.0546   -2.7549 H         1 <0>         0.1468
     33 H6          0.2554   -0.8725   -4.7775 H         1 <0>         0.1457
     34 H7          4.0251   -0.5889   -2.7522 H         1 <0>         0.1204
     35 H8          2.8708    0.2356   -0.7429 H         1 <0>         0.1321
     36 H9          4.3583   -4.1127   -8.4536 H         1 <0>         0.1329
     37 H10         3.8834   -4.7962  -10.7681 H         1 <0>         0.1577
     38 H11         1.1696   -1.6933  -11.2591 H         1 <0>         0.1590
     39 H12         1.5402   -0.9072   -8.9580 H         1 <0>         0.1385
     40 H13         5.4474   -1.1783   -8.9159 H         1 <0>         0.1360
     41 H14         7.6261   -1.7662   -9.8926 H         1 <0>         0.1436
     42 H15         8.5933   -4.0406   -6.4097 H         1 <0>         0.1423
     43 H16         6.4240   -3.4537   -5.4118 H         1 <0>         0.1327
@<TRIPOS>BOND
     1    1    2 1
     2    1   29 1
     3    1   30 1
     4    1   31 1
     5    2    3 2
     6    2    4 1
     7    4    9 ar
     8    4    5 ar
     9    5    6 ar
    10    5   32 1
    11    6    7 ar
    12    6   33 1
    13    7    8 ar
    14    7   10 1
    15    8    9 ar
    16    8   34 1
    17    9   35 1
    18   10   15 2
    19   10   11 1
    20   11   12 1
    21   11   13 1
    22   13   14 2
    23   13   22 1
    24   14   15 1
    25   14   16 1
    26   16   21 ar
    27   16   17 ar
    28   17   18 ar
    29   17   36 1
    30   18   19 ar
    31   18   37 1
    32   19   20 ar
    33   20   21 ar
    34   20   38 1
    35   21   39 1
    36   22   27 ar
    37   22   23 ar
    38   23   24 ar
    39   23   40 1
    40   24   25 ar
    41   24   41 1
    42   25   26 ar
    43   25   28 1
    44   26   27 ar
    45   26   42 1
    46   27   43 1
@<TRIPOS>MOLECULE
ZINC01493890
   37    40     0     0     0
SMALL
USER_CHARGES

@<TRIPOS>ATOM
      1 C1         -0.0178    1.4608    0.0101 C.3       1 <0>         0.0734
      2 N1          0.0021   -0.0041    0.0020 N.pl3     1 <0>        -0.4737
      3 C2          0.0078   -0.7727   -1.1169 C.2       1 <0>         0.1075
      4 C3          0.0281   -2.0944   -0.7674 C.2       1 <0>        -0.1579
      5 C4          0.0354   -2.1366    0.7062 C.ar      1 <0>        -0.0717
      6 C5          0.0236   -0.7978    1.1309 C.ar      1 <0>         0.0936
      7 C6          0.0319   -0.5143    2.4922 C.ar      1 <0>        -0.1217
      8 C7          0.0548   -1.5434    3.4092 C.ar      1 <0>        -0.0984
      9 C8          0.0696   -2.8648    2.9882 C.ar      1 <0>        -0.1347
     10 C9          0.0537   -3.1664    1.6433 C.ar      1 <0>        -0.0758
     11 C10         0.0395   -3.2453   -1.6802 C.2       1 <0>         0.0076
     12 C11         1.1151   -3.7103   -2.4252 C.2       1 <0>        -0.0960
     13 C12         0.6209   -4.8797   -3.1750 C.2       1 <0>         0.5637
     14 O1          1.2771   -5.5582   -3.9404 O.2       1 <0>        -0.4429
     15 N2         -0.6738   -5.0723   -2.8722 N.am      1 <0>        -0.6877
     16 C13        -1.0937   -4.1509   -1.9885 C.2       1 <0>         0.5544
     17 O2         -2.2127   -4.0711   -1.5240 O.2       1 <0>        -0.4382
     18 C14         2.4796   -3.1466   -2.4599 C.ar      1 <0>        -0.0170
     19 C15         3.3545   -3.3599   -1.3914 C.ar      1 <0>        -0.0612
     20 C16         4.6271   -2.8314   -1.4301 C.ar      1 <0>        -0.1027
     21 C17         5.0400   -2.0893   -2.5251 C.ar      1 <0>        -0.0144
     22 C18         4.1789   -1.8735   -3.5878 C.ar      1 <0>        -0.1022
     23 C19         2.9039   -2.4018   -3.5647 C.ar      1 <0>        -0.0020
     24 Cl1         1.8274   -2.1362   -4.9005 Cl        1 <0>        -0.0460
     25 Cl2         6.6441   -1.4267   -2.5645 Cl        1 <0>        -0.0499
     26 H1          1.0048    1.8381    0.0023 H         1 <0>         0.0752
     27 H2         -0.5450    1.8219   -0.8730 H         1 <0>         0.0873
     28 H3         -0.5280    1.8123    0.9069 H         1 <0>         0.0858
     29 H4         -0.0026   -0.3972   -2.1295 H         1 <0>         0.1749
     30 H5          0.0209    0.5112    2.8309 H         1 <0>         0.1213
     31 H6          0.0616   -1.3185    4.4655 H         1 <0>         0.1280
     32 H7          0.0879   -3.6611    3.7175 H         1 <0>         0.1260
     33 H8          0.0668   -4.1961    1.3179 H         1 <0>         0.1197
     34 H9         -1.2273   -5.7803   -3.2375 H         1 <0>         0.4319
     35 H10         3.0343   -3.9374   -0.5368 H         1 <0>         0.1466
     36 H11         5.3039   -2.9958   -0.6047 H         1 <0>         0.1469
     37 H12         4.5068   -1.2939   -4.4381 H         1 <0>         0.1501
@<TRIPOS>BOND
     1    1    2 1
     2    1   26 1
     3    1   27 1
     4    1   28 1
     5    2    6 1
     6    2    3 1
     7    3    4 2
     8    3   29 1
     9    4    5 1
    10    4   11 1
    11    5   10 ar
    12    5    6 ar
    13    6    7 ar
    14    7    8 ar
    15    7   30 1
    16    8    9 ar
    17    8   31 1
    18    9   10 ar
    19    9   32 1
    20   10   33 1
    21   11   16 1
    22   11   12 2
    23   12   13 1
    24   12   18 1
    25   13   14 2
    26   13   15 am
    27   15   16 am
    28   15   34 1
    29   16   17 2
    30   18   23 ar
    31   18   19 ar
    32   19   20 ar
    33   19   35 1
    34   20   21 ar
    35   20   36 1
    36   21   22 ar
    37   21   25 1
    38   22   23 ar
    39   22   37 1
    40   23   24 1
@<TRIPOS>MOLECULE
ZINC00331704
   17    17     0     0     0
SMALL
USER_CHARGES
2-bromo-1-phenyl-ethanone
@<TRIPOS>ATOM
      1 C1         -0.0555    4.2372    0.0248 C.ar      1 <0>        -0.0838
      2 C2          1.1544    3.5653    0.0097 C.ar      1 <0>        -0.1303
      3 C3          1.1815    2.1867    0.0025 C.ar      1 <0>        -0.0570
      4 C4         -0.0179    1.4674    0.0101 C.ar      1 <0>        -0.1679
      5 C5         -1.2364    2.1538    0.0196 C.ar      1 <0>        -0.0755
      6 C6         -1.2467    3.5326    0.0320 C.ar      1 <0>        -0.1308
      7 C7          0.0021   -0.0041    0.0020 C.2       1 <0>         0.3916
      8 O1          1.0602   -0.5960   -0.0113 O.2       1 <0>        -0.4204
      9 C8         -1.2926   -0.7753    0.0102 C.3       1 <0>        -0.1282
     10 Br1        -0.9072   -2.7031   -0.0038 Br        1 <0>        -0.1122
     11 H1         -0.0701    5.3171    0.0308 H         1 <0>         0.1303
     12 H2          2.0798    4.1222    0.0039 H         1 <0>         0.1324
     13 H3          2.1264    1.6638   -0.0093 H         1 <0>         0.1362
     14 H4         -2.1667    1.6054    0.0214 H         1 <0>         0.1317
     15 H5         -2.1868    4.0641    0.0431 H         1 <0>         0.1322
     16 H6         -1.8124   -0.5453    0.8330 H         1 <0>         0.1180
     17 H7         -1.8762   -0.5150   -0.8728 H         1 <0>         0.1338
@<TRIPOS>BOND
     1    1    6 ar
     2    1    2 ar
     3    1   11 1
     4    2    3 ar
     5    2   12 1
     6    3    4 ar
     7    3   13 1
     8    4    5 ar
     9    4    7 1
    10    5    6 ar
    11    5   14 1
    12    6   15 1
    13    7    8 2
    14    7    9 1
    15    9   10 1
    16    9   16 1
    17    9   17 1
@<TRIPOS>MOLECULE
ZINC00159091
   21    21     0     0     0
SMALL
USER_CHARGES
2-bromo-1-(4-methoxyphenyl)ethanone
@<TRIPOS>ATOM
      1 C1         -4.8391    5.3665    0.0561 C.3       1 <0>         0.0227
      2 O1         -4.8946    3.9386    0.0481 O.3       1 <0>        -0.3101
      3 C2         -3.7106    3.2763    0.0384 C.ar      1 <0>         0.1665
      4 C3         -3.6945    1.8856    0.0303 C.ar      1 <0>        -0.1640
      5 C4         -2.5006    1.2115    0.0205 C.ar      1 <0>        -0.0140
      6 C5         -1.2960    1.9257    0.0187 C.ar      1 <0>        -0.2097
      7 C6         -1.3178    3.3258    0.0322 C.ar      1 <0>        -0.0307
      8 C7         -2.5171    3.9904    0.0362 C.ar      1 <0>        -0.2221
      9 C8         -0.0144    1.2087    0.0087 C.2       1 <0>         0.3953
     10 O2          0.0021   -0.0041    0.0020 O.2       1 <0>        -0.4255
     11 C9          1.2803    1.9799    0.0005 C.3       1 <0>        -0.1284
     12 Br1         2.7918    0.7228   -0.0207 Br        1 <0>        -0.1132
     13 H1         -5.8519    5.7694    0.0634 H         1 <0>         0.1056
     14 H2         -4.3072    5.7045    0.9454 H         1 <0>         0.0604
     15 H3         -4.3160    5.7148   -0.8345 H         1 <0>         0.0603
     16 H4         -4.6241    1.3358    0.0321 H         1 <0>         0.1410
     17 H5         -2.4892    0.1315    0.0138 H         1 <0>         0.1440
     18 H6         -0.3915    3.8812    0.0350 H         1 <0>         0.1347
     19 H7         -2.5351    5.0702    0.0422 H         1 <0>         0.1377
     20 H8          1.3177    2.5599   -0.8133 H         1 <0>         0.1170
     21 H9          1.3381    2.6025    0.8933 H         1 <0>         0.1325
@<TRIPOS>BOND
     1    1    2 1
     2    1   13 1
     3    1   14 1
     4    1   15 1
     5    2    3 1
     6    3    8 ar
     7    3    4 ar
     8    4    5 ar
     9    4   16 1
    10    5    6 ar
    11    5   17 1
    12    6    7 ar
    13    6    9 1
    14    7    8 ar
    15    7   18 1
    16    8   19 1
    17    9   10 2
    18    9   11 1
    19   11   12 1
    20   11   20 1
    21   11   21 1
@<TRIPOS>MOLECULE
ZINC00153631
   20    20     0     0     0
SMALL
USER_CHARGES
2-bromo-1-[4-(trifluoromethyl)phenyl]-ethanone
@<TRIPOS>ATOM
      1 C1          0.0021   -0.0041    0.0020 C.ar      1 <0>        -0.0581
      2 C2         -0.0166    1.3746    0.0096 C.ar      1 <0>        -0.0786
      3 C3          1.1703    2.0865    0.0021 C.ar      1 <0>        -0.1507
      4 C4          2.3842    1.4219   -0.0130 C.ar      1 <0>        -0.0798
      5 C5          2.4196    0.0435   -0.0208 C.ar      1 <0>        -0.0764
      6 C6          1.2246   -0.6830   -0.0133 C.ar      1 <0>        -0.1337
      7 C7          1.2535   -2.1544   -0.0210 C.2       1 <0>         0.3898
      8 O1          0.2156   -2.7812   -0.0140 O.2       1 <0>        -0.4094
      9 C8          2.5731   -2.8821   -0.0375 C.3       1 <0>        -0.1307
     10 Br1         2.2519   -4.8216   -0.0441 Br        1 <0>        -0.1065
     11 C9          1.1407    3.5932    0.0099 C.3       1 <0>         0.5062
     12 F1          1.1439    4.0528    1.3313 F         1 <0>        -0.1722
     13 F2          2.2674    4.0852   -0.6576 F         1 <0>        -0.1733
     14 F3         -0.0166    4.0403   -0.6365 F         1 <0>        -0.1730
     15 H1         -0.9249   -0.5582    0.0082 H         1 <0>         0.1499
     16 H2         -0.9600    1.9005    0.0169 H         1 <0>         0.1469
     17 H3          3.3062    1.9844   -0.0191 H         1 <0>         0.1468
     18 H4          3.3677   -0.4737   -0.0322 H         1 <0>         0.1458
     19 H5          3.0847   -2.6261   -0.8577 H         1 <0>         0.1203
     20 H6          3.1480   -2.6120    0.8484 H         1 <0>         0.1367
@<TRIPOS>BOND
     1    1    6 ar
     2    1    2 ar
     3    1   15 1
     4    2    3 ar
     5    2   16 1
     6    3    4 ar
     7    3   11 1
     8    4    5 ar
     9    4   17 1
    10    5    6 ar
    11    5   18 1
    12    6    7 1
    13    7    8 2
    14    7    9 1
    15    9   10 1
    16    9   19 1
    17    9   20 1
    18   11   12 1
    19   11   13 1
    20   11   14 1
@<TRIPOS>MOLECULE
ZINC00047515
   19    19     0     0     0
SMALL
USER_CHARGES
2-bromo-1-(4-nitrophenyl)ethanone
@<TRIPOS>ATOM
      1 C1          0.0021   -0.0041    0.0020 C.ar      1 <0>        -0.0573
      2 C2         -0.0166    1.3746    0.0096 C.ar      1 <0>        -0.0622
      3 C3          1.1703    2.0865    0.0021 C.ar      1 <0>        -0.0150
      4 C4          2.3842    1.4219   -0.0132 C.ar      1 <0>        -0.0637
      5 C5          2.4196    0.0435   -0.0209 C.ar      1 <0>        -0.0749
      6 C6          1.2246   -0.6830   -0.0133 C.ar      1 <0>        -0.1146
      7 C7          1.2535   -2.1544   -0.0210 C.2       1 <0>         0.3886
      8 O1          0.2156   -2.7812   -0.0141 O.2       1 <0>        -0.4008
      9 C8          2.5731   -2.8821   -0.0376 C.3       1 <0>        -0.1327
     10 Br1         2.2519   -4.8216   -0.0442 Br        1 <0>        -0.1010
     11 N1          1.1413    3.5662    0.0099 N.pl3     1 <0>         0.0198
     12 O2          0.0747    4.1544    0.0228 O.2       1 <0>        -0.1473
     13 O3          2.1839    4.1959    0.0033 O.3       1 <0>        -0.1470
     14 H1         -0.9249   -0.5582    0.0083 H         1 <0>         0.1615
     15 H2         -0.9600    1.9005    0.0169 H         1 <0>         0.1641
     16 H3          3.3062    1.9844   -0.0190 H         1 <0>         0.1640
     17 H4          3.3677   -0.4737   -0.0324 H         1 <0>         0.1576
     18 H5          3.0846   -2.6261   -0.8579 H         1 <0>         0.1219
     19 H6          3.1481   -2.6120    0.8482 H         1 <0>         0.1387
@<TRIPOS>BOND
     1    1    6 ar
     2    1    2 ar
     3    1   14 1
     4    2    3 ar
     5    2   15 1
     6    3    4 ar
     7    3   11 1
     8    4    5 ar
     9    4   16 1
    10    5    6 ar
    11    5   17 1
    12    6    7 1
    13    7    8 2
    14    7    9 1
    15    9   10 1
    16    9   18 1
    17    9   19 1
    18   11   12 2
    19   11   13 1
@<TRIPOS>MOLECULE
ZINC13657906
   25    26     0     0     0
SMALL
USER_CHARGES

@<TRIPOS>ATOM
      1 C1         -1.4949    0.3692    0.0546 C.3       1 <0>        -0.1001
      2 C2         -0.2592   -0.4911   -0.0082 C.2       1 <0>         0.1502
      3 C3          0.4593   -0.8076   -1.1449 C.2       1 <0>        -0.1890
      4 C4          1.5371   -1.6346   -0.7405 C.2       1 <0>         0.2903
      5 N1          1.4577   -1.7951    0.5554 N.2       1 <0>        -0.2874
      6 H1          0.0665   -1.0352    1.9592 H         1 <0>         0.4524
      7 N2          0.3495   -1.0867    1.0328 N.pl3     1 <0>        -0.4412
      8 O1          2.4852   -2.1675   -1.5552 O.3       1 <0>        -0.4494
      9 N3          0.1832   -0.4009   -2.4177 N.2       1 <0>        -0.0944
     10 N4          0.1025   -1.2685   -3.3688 N.2       1 <0>        -0.1323
     11 C5          0.1224   -2.6052   -3.0788 C.ar      1 <0>         0.0084
     12 C6         -0.4698   -3.0777   -1.9050 C.ar      1 <0>        -0.0987
     13 C7         -0.4465   -4.4265   -1.6192 C.ar      1 <0>        -0.1124
     14 C8          0.1618   -5.3124   -2.4917 C.ar      1 <0>        -0.0824
     15 C9          0.7508   -4.8530   -3.6557 C.ar      1 <0>        -0.1114
     16 C10         0.7304   -3.5058   -3.9583 C.ar      1 <0>         0.0219
     17 Cl1         1.4633   -2.9314   -5.4235 Cl        1 <0>        -0.0438
     18 H2         -1.2061    1.4096    0.2037 H         1 <0>         0.0989
     19 H3         -2.0501    0.2764   -0.8788 H         1 <0>         0.0945
     20 H4         -2.1223    0.0438    0.8844 H         1 <0>         0.0823
     21 H5          3.2955   -1.6427   -1.6116 H         1 <0>         0.4051
     22 H6         -0.9446   -2.3881   -1.2228 H         1 <0>         0.1294
     23 H7         -0.9037   -4.7927   -0.7119 H         1 <0>         0.1301
     24 H8          0.1767   -6.3676   -2.2622 H         1 <0>         0.1373
     25 H9          1.2242   -5.5499   -4.3315 H         1 <0>         0.1419
@<TRIPOS>BOND
     1    1    2 1
     2    1   18 1
     3    1   19 1
     4    1   20 1
     5    2    7 1
     6    2    3 2
     7    3    9 1
     8    3    4 1
     9    4    8 1
    10    4    5 2
    11    5    7 1
    12    6    7 1
    13    8   21 1
    14    9   10 2
    15   10   11 1
    16   11   16 ar
    17   11   12 ar
    18   12   13 ar
    19   12   22 1
    20   13   14 ar
    21   13   23 1
    22   14   15 ar
    23   14   24 1
    24   15   16 ar
    25   15   25 1
    26   16   17 1
@<TRIPOS>MOLECULE
ZINC13657906
   24    25     0     0     0
SMALL
USER_CHARGES

@<TRIPOS>ATOM
      1 C1         -0.0184    1.5028    0.0103 C.3       1 <0>        -0.0426
      2 C2          0.0021   -0.0041    0.0020 C.2       1 <0>        -0.0623
      3 N1          0.0084   -0.7794   -1.0516 N.2       1 <0>        -0.2008
      4 N2          0.0269   -2.0235   -0.7515 N.2       1 <0>        -0.4597
      5 C3          0.0350   -2.2097    0.5515 C.2       1 <0>         0.3644
      6 O1          0.0543   -3.3954    1.2125 O.3       1 <0>        -0.6610
      7 C4          0.0245   -0.8611    1.1405 C.2       1 <0>        -0.0222
      8 N3          0.0320   -0.5240    2.4239 N.2       1 <0>        -0.1536
      9 N4          0.0531   -1.4404    3.3314 N.pl3     1 <0>        -0.4936
     10 C5          0.0610   -1.0861    4.6803 C.ar      1 <0>         0.2018
     11 C6          0.0403    0.2541    5.0490 C.ar      1 <0>        -0.1403
     12 C7          0.0482    0.6012    6.3852 C.ar      1 <0>        -0.0823
     13 C8          0.0771   -0.3825    7.3575 C.ar      1 <0>        -0.1516
     14 C9          0.0977   -1.7169    6.9960 C.ar      1 <0>        -0.0753
     15 C10         0.0837   -2.0729    5.6606 C.ar      1 <0>        -0.0935
     16 Cl1         0.1018   -3.7485    5.2072 Cl        1 <0>        -0.0577
     17 H1          1.0042    1.8801    0.0026 H         1 <0>         0.0541
     18 H2         -0.5455    1.8639   -0.8728 H         1 <0>         0.0606
     19 H3         -0.5286    1.8543    0.9071 H         1 <0>         0.0577
     20 H4          0.0635   -2.3761    3.0757 H         1 <0>         0.4166
     21 H5          0.0185    1.0230    4.2909 H         1 <0>         0.1454
     22 H6          0.0322    1.6423    6.6719 H         1 <0>         0.1312
     23 H7          0.0839   -0.1073    8.4019 H         1 <0>         0.1296
     24 H8          0.1202   -2.4819    7.7579 H         1 <0>         0.1351
@<TRIPOS>BOND
     1    1    2 1
     2    1   17 1
     3    1   18 1
     4    1   19 1
     5    2    7 1
     6    2    3 2
     7    3    4 1
     8    4    5 2
     9    5    6 1
    10    5    7 1
    11    7    8 2
    12    8    9 1
    13    9   10 1
    14    9   20 1
    15   10   15 ar
    16   10   11 ar
    17   11   12 ar
    18   11   21 1
    19   12   13 ar
    20   12   22 1
    21   13   14 ar
    22   13   23 1
    23   14   15 ar
    24   14   24 1
    25   15   16 1
@<TRIPOS>MOLECULE
ZINC13657906
   25    26     0     0     0
SMALL
USER_CHARGES

@<TRIPOS>ATOM
      1 C1         -0.0184    1.5028    0.0103 C.3       1 <0>        -0.0810
      2 C2          0.0021   -0.0041    0.0020 C.2       1 <0>         0.1739
      3 N1          0.0082   -0.7645   -1.0488 N.2       1 <0>        -0.2310
      4 N2          0.0287   -2.1147   -0.7010 N.am      1 <0>        -0.5567
      5 C3          0.0365   -2.2480    0.6409 C.2       1 <0>         0.5122
      6 O1          0.0540   -3.2889    1.2749 O.2       1 <0>        -0.5218
      7 C4          0.0252   -0.8792    1.1840 C.2       1 <0>        -0.1085
      8 N3          0.0320   -0.5167    2.4543 N.2       1 <0>        -0.0690
      9 N4          0.0531   -1.4139    3.3809 N.pl3     1 <0>        -0.4659
     10 C5          0.0603   -1.0312    4.7225 C.ar      1 <0>         0.1605
     11 C6          0.0391    0.3163    5.0628 C.ar      1 <0>        -0.1190
     12 C7          0.0464    0.6915    6.3915 C.ar      1 <0>        -0.0844
     13 C8          0.0752   -0.2714    7.3842 C.ar      1 <0>        -0.1195
     14 C9          0.0963   -1.6132    7.0507 C.ar      1 <0>        -0.0786
     15 C10         0.0830   -1.9971    5.7231 C.ar      1 <0>        -0.0696
     16 Cl1         0.1023   -3.6818    5.3050 Cl        1 <0>        -0.0515
     17 H1          1.0042    1.8801    0.0026 H         1 <0>         0.0931
     18 H2         -0.5455    1.8639   -0.8728 H         1 <0>         0.0895
     19 H3         -0.5286    1.8543    0.9071 H         1 <0>         0.0905
     20 H4          0.0639   -2.3547    3.1449 H         1 <0>         0.4164
     21 H5          0.0173    1.0691    4.2886 H         1 <0>         0.1502
     22 H6          0.0299    1.7384    6.6562 H         1 <0>         0.1413
     23 H7          0.0815    0.0256    8.4226 H         1 <0>         0.1402
     24 H8          0.1188   -2.3621    7.8286 H         1 <0>         0.1448
     25 H9          0.0360   -2.8510   -1.3325 H         1 <0>         0.4437
@<TRIPOS>BOND
     1    1    2 1
     2    1   17 1
     3    1   18 1
     4    1   19 1
     5    2    7 1
     6    2    3 2
     7    3    4 1
     8    4    5 am
     9    4   25 1
    10    5    6 2
    11    5    7 1
    12    7    8 2
    13    8    9 1
    14    9   10 1
    15    9   20 1
    16   10   15 ar
    17   10   11 ar
    18   11   12 ar
    19   11   21 1
    20   12   13 ar
    21   12   22 1
    22   13   14 ar
    23   13   23 1
    24   14   15 ar
    25   14   24 1
    26   15   16 1
@<TRIPOS>MOLECULE
ZINC13657906
   25    26     0     0     0
SMALL
USER_CHARGES

@<TRIPOS>ATOM
      1 C1         -0.7509    0.6567    2.5625 C.3       1 <0>        -0.1138
      2 C2         -0.3066   -0.2932    1.4802 C.2       1 <0>         0.2171
      3 C3         -1.1088   -0.8180    0.4869 C.2       1 <0>        -0.2541
      4 C4         -0.2479   -1.6867   -0.3327 C.2       1 <0>         0.5599
      5 N1          0.9866   -1.6291    0.2080 N.am      1 <0>        -0.5126
      6 H1          1.7097   -0.5570    1.8764 H         1 <0>         0.4489
      7 N2          0.9504   -0.7732    1.3129 N.pl3     1 <0>        -0.4682
      8 O1         -0.5846   -2.3315   -1.3082 O.2       1 <0>        -0.5133
      9 N3         -2.4347   -0.5799    0.3022 N.2       1 <0>        -0.0620
     10 N4         -2.8443    0.6131    0.0318 N.2       1 <0>        -0.1414
     11 C5         -1.9386    1.6041   -0.2301 C.ar      1 <0>        -0.0022
     12 C6         -0.7491    1.3088   -0.9008 C.ar      1 <0>        -0.0992
     13 C7          0.1594    2.3129   -1.1615 C.ar      1 <0>        -0.1147
     14 C8         -0.1039    3.6112   -0.7602 C.ar      1 <0>        -0.0852
     15 C9         -1.2791    3.9122   -0.0956 C.ar      1 <0>        -0.1129
     16 C10        -2.2013    2.9186    0.1670 C.ar      1 <0>         0.0065
     17 Cl1        -3.6790    3.2991    0.9947 Cl        1 <0>        -0.0387
     18 H2          0.0740    0.8322    3.2531 H         1 <0>         0.0895
     19 H3         -1.0562    1.6019    2.1135 H         1 <0>         0.0950
     20 H4         -1.5919    0.2232    3.1037 H         1 <0>         0.1057
     21 H5          1.7694   -2.1006   -0.1172 H         1 <0>         0.4452
     22 H6         -0.5415    0.2963   -1.2141 H         1 <0>         0.1349
     23 H7          1.0792    2.0856   -1.6799 H         1 <0>         0.1325
     24 H8          0.6120    4.3930   -0.9667 H         1 <0>         0.1390
     25 H9         -1.4777    4.9274    0.2149 H         1 <0>         0.1442
@<TRIPOS>BOND
     1    1    2 1
     2    1   18 1
     3    1   19 1
     4    1   20 1
     5    2    7 1
     6    2    3 2
     7    3    9 1
     8    3    4 1
     9    4    8 2
    10    4    5 am
    11    5   21 1
    12    5    7 1
    13    6    7 1
    14    9   10 2
    15   10   11 1
    16   11   16 ar
    17   11   12 ar
    18   12   13 ar
    19   12   22 1
    20   13   14 ar
    21   13   23 1
    22   14   15 ar
    23   14   24 1
    24   15   16 ar
    25   15   25 1
    26   16   17 1
@<TRIPOS>MOLECULE
ZINC13657906
   25    26     0     0     0
SMALL
USER_CHARGES

@<TRIPOS>ATOM
      1 C1         -0.0184    1.5028    0.0103 C.3       1 <0>        -0.1003
      2 C2          0.0021   -0.0041    0.0020 C.2       1 <0>         0.2461
      3 C3         -1.1064   -0.8268    0.0026 C.2       1 <0>        -0.1640
      4 C4         -0.6023   -2.2101   -0.0081 C.2       1 <0>         0.5705
      5 N1          0.7443   -2.1311   -0.0143 N.am      1 <0>        -0.5192
      6 H1          2.0245   -0.4528   -0.0200 H         1 <0>         0.4489
      7 N2          1.1122   -0.7823   -0.0132 N.pl3     1 <0>        -0.4600
      8 O1         -1.2706   -3.2270   -0.0105 O.2       1 <0>        -0.5056
      9 N3         -2.4087   -0.4362    0.0121 N.2       1 <0>        -0.1289
     10 N4         -2.7055    0.8191    0.0218 N.2       1 <0>        -0.2794
     11 C5         -4.0156    1.2121    0.0313 C.ar      1 <0>         0.0821
     12 C6         -5.0351    0.2567    0.0363 C.ar      1 <0>        -0.1077
     13 C7         -6.3538    0.6601    0.0459 C.ar      1 <0>        -0.1130
     14 C8         -6.6693    2.0078    0.0500 C.ar      1 <0>        -0.0998
     15 C9         -5.6662    2.9602    0.0451 C.ar      1 <0>        -0.1107
     16 C10        -4.3412    2.5716    0.0418 C.ar      1 <0>         0.0007
     17 Cl1        -3.0832    3.7680    0.0429 Cl        1 <0>        -0.0563
     18 H2          1.0042    1.8801    0.0026 H         1 <0>         0.0781
     19 H3         -0.5455    1.8639   -0.8728 H         1 <0>         0.1112
     20 H4         -0.5286    1.8543    0.9071 H         1 <0>         0.1111
     21 H5          1.3553   -2.8844   -0.0214 H         1 <0>         0.4467
     22 H6         -4.7909   -0.7953    0.0324 H         1 <0>         0.1437
     23 H7         -7.1425   -0.0777    0.0498 H         1 <0>         0.1317
     24 H8         -7.7040    2.3173    0.0568 H         1 <0>         0.1347
     25 H9         -5.9199    4.0099    0.0480 H         1 <0>         0.1395
@<TRIPOS>BOND
     1    1    2 1
     2    1   18 1
     3    1   19 1
     4    1   20 1
     5    2    7 1
     6    2    3 2
     7    3    9 1
     8    3    4 1
     9    4    8 2
    10    4    5 am
    11    5   21 1
    12    5    7 1
    13    6    7 1
    14    9   10 2
    15   10   11 1
    16   11   16 ar
    17   11   12 ar
    18   12   13 ar
    19   12   22 1
    20   13   14 ar
    21   13   23 1
    22   14   15 ar
    23   14   24 1
    24   15   16 ar
    25   15   25 1
    26   16   17 1
@<TRIPOS>MOLECULE
ZINC13657906
   25    26     0     0     0
SMALL
USER_CHARGES

@<TRIPOS>ATOM
      1 C1          0.0515    1.5045    0.0051 C.3       1 <0>        -0.1019
      2 C2          0.0417   -0.0025   -0.0013 C.2       1 <0>         0.0910
      3 N1         -0.0463   -0.7637   -1.0479 N.2       1 <0>        -0.2053
      4 N2         -0.0261   -2.1138   -0.6996 N.am      1 <0>        -0.5604
      5 C3          0.0800   -2.2462    0.6383 C.2       1 <0>         0.5637
      6 O1          0.1246   -3.2867    1.2714 O.2       1 <0>        -0.4879
      7 C4          0.1364   -0.8770    1.1776 C.2       1 <0>        -0.0943
      8 N3          0.2459   -0.5138    2.4430 N.2       1 <0>        -0.0693
      9 N4          0.1615    0.7323    2.7660 N.pl3     1 <0>        -0.4776
     10 C5          0.3888    1.1281    4.0843 C.ar      1 <0>         0.1633
     11 C6          0.7119    0.1820    5.0500 C.ar      1 <0>        -0.1184
     12 C7          0.9361    0.5774    6.3538 C.ar      1 <0>        -0.0819
     13 C8          0.8393    1.9131    6.7002 C.ar      1 <0>        -0.1200
     14 C9          0.5182    2.8580    5.7431 C.ar      1 <0>        -0.0774
     15 C10         0.2983    2.4711    4.4346 C.ar      1 <0>        -0.0708
     16 Cl1        -0.0977    3.6586    3.2318 Cl        1 <0>        -0.0601
     17 H1          0.9411    1.8598    0.5253 H         1 <0>         0.0880
     18 H2          0.0595    1.8721   -1.0210 H         1 <0>         0.1061
     19 H3         -0.8388    1.8715    0.5157 H         1 <0>         0.0879
     20 H4         -0.0599    1.3940    2.0922 H         1 <0>         0.3995
     21 H5          0.7870   -0.8612    4.7810 H         1 <0>         0.1508
     22 H6          1.1871   -0.1574    7.1044 H         1 <0>         0.1412
     23 H7          1.0146    2.2187    7.7211 H         1 <0>         0.1404
     24 H8          0.4436    3.8999    6.0174 H         1 <0>         0.1451
     25 H9         -0.0808   -2.8505   -1.3281 H         1 <0>         0.4483
@<TRIPOS>BOND
     1    1    2 1
     2    1   17 1
     3    1   18 1
     4    1   19 1
     5    2    7 1
     6    2    3 2
     7    3    4 1
     8    4    5 am
     9    4   25 1
    10    5    6 2
    11    5    7 1
    12    7    8 2
    13    8    9 1
    14    9   10 1
    15    9   20 1
    16   10   15 ar
    17   10   11 ar
    18   11   12 ar
    19   11   21 1
    20   12   13 ar
    21   12   22 1
    22   13   14 ar
    23   13   23 1
    24   14   15 ar
    25   14   24 1
    26   15   16 1
@<TRIPOS>MOLECULE
ZINC49524967
   36    38     0     0     0
SMALL
USER_CHARGES

@<TRIPOS>ATOM
      1 C1         -0.0173    1.4248    0.0099 C.3       1 <0>         0.0243
      2 O1          0.0021   -0.0041    0.0020 O.3       1 <0>        -0.3133
      3 C2          0.6259   -0.6185    1.0417 C.ar      1 <0>         0.1209
      4 C3          1.2020    0.1403    2.0509 C.ar      1 <0>        -0.1785
      5 C4          1.8357   -0.4824    3.1070 C.ar      1 <0>        -0.0977
      6 C5          1.8964   -1.8702    3.1599 C.ar      1 <0>         0.1072
      7 C6          1.3186   -2.6291    2.1486 C.ar      1 <0>        -0.0861
      8 C7          0.6813   -2.0042    1.0960 C.ar      1 <0>        -0.1230
      9 N1          2.5374   -2.5010    4.2272 N.pl3     1 <0>        -0.4540
     10 N2          2.5935   -3.7889    4.2757 N.2       1 <0>        -0.0677
     11 C8          3.1995   -4.3854    5.2849 C.2       1 <0>        -0.1148
     12 C9          3.3667   -5.8370    5.5047 C.2       1 <0>         0.2158
     13 N3          4.0245   -5.9882    6.6227 N.2       1 <0>        -0.2268
     14 N4          4.3300   -4.7568    7.2010 N.am      1 <0>        -0.5515
     15 C10         3.8627   -3.7508    6.4350 C.2       1 <0>         0.5173
     16 O2          3.9662   -2.5559    6.6527 O.2       1 <0>        -0.5270
     17 C11         2.8782   -6.9208    4.6201 C.ar      1 <0>        -0.0368
     18 C12         2.1908   -6.6107    3.4472 C.ar      1 <0>        -0.0821
     19 C13         1.7387   -7.6243    2.6272 C.ar      1 <0>        -0.1243
     20 C14         1.9659   -8.9459    2.9670 C.ar      1 <0>        -0.0983
     21 C15         2.6469   -9.2598    4.1296 C.ar      1 <0>        -0.1250
     22 C16         3.1092   -8.2548    4.9544 C.ar      1 <0>        -0.0778
     23 H1          1.0053    1.8021    0.0021 H         1 <0>         0.0578
     24 H2         -0.5445    1.7859   -0.8732 H         1 <0>         0.1035
     25 H3         -0.5275    1.7763    0.9067 H         1 <0>         0.0577
     26 H4          1.1547    1.2185    2.0096 H         1 <0>         0.1396
     27 H5          2.2845    0.1083    3.8919 H         1 <0>         0.1353
     28 H6          1.3655   -3.7073    2.1884 H         1 <0>         0.1460
     29 H7          0.2287   -2.5936    0.3124 H         1 <0>         0.1431
     30 H8          2.9407   -1.9711    4.9324 H         1 <0>         0.4135
     31 H9          4.8136   -4.6405    8.0338 H         1 <0>         0.4443
     32 H10         2.0122   -5.5793    3.1813 H         1 <0>         0.1386
     33 H11         1.2062   -7.3853    1.7185 H         1 <0>         0.1297
     34 H12         1.6099   -9.7359    2.3223 H         1 <0>         0.1267
     35 H13         2.8207  -10.2934    4.3900 H         1 <0>         0.1294
     36 H14         3.6449   -8.5009    5.8593 H         1 <0>         0.1341
@<TRIPOS>BOND
     1    1    2 1
     2    1   23 1
     3    1   24 1
     4    1   25 1
     5    2    3 1
     6    3    8 ar
     7    3    4 ar
     8    4    5 ar
     9    4   26 1
    10    5    6 ar
    11    5   27 1
    12    6    7 ar
    13    6    9 1
    14    7    8 ar
    15    7   28 1
    16    8   29 1
    17    9   10 1
    18    9   30 1
    19   10   11 2
    20   11   15 1
    21   11   12 1
    22   12   13 2
    23   12   17 1
    24   13   14 1
    25   14   15 am
    26   14   31 1
    27   15   16 2
    28   17   22 ar
    29   17   18 ar
    30   18   19 ar
    31   18   32 1
    32   19   20 ar
    33   19   33 1
    34   20   21 ar
    35   20   34 1
    36   21   22 ar
    37   21   35 1
    38   22   36 1
@<TRIPOS>MOLECULE
ZINC49054044
   36    38     0     0     0
SMALL
USER_CHARGES

@<TRIPOS>ATOM
      1 C1         -0.0173    1.4248    0.0099 C.3       1 <0>         0.0259
      2 O1          0.0021   -0.0041    0.0020 O.3       1 <0>        -0.3147
      3 C2          0.6058   -0.6071   -1.0557 C.ar      1 <0>         0.1240
      4 C3          1.1731    0.1626   -2.0626 C.ar      1 <0>        -0.1875
      5 C4          1.7887   -0.4460   -3.1402 C.ar      1 <0>        -0.0823
      6 C5          1.8427   -1.8229   -3.2221 C.ar      1 <0>        -0.1194
      7 C6          1.2756   -2.6036   -2.2154 C.ar      1 <0>         0.0036
      8 C7          0.6601   -1.9890   -1.1262 C.ar      1 <0>        -0.1109
      9 C8          1.3316   -4.0819   -2.3007 C.2       1 <0>         0.2126
     10 N1          0.8383   -4.9260   -1.4351 N.2       1 <0>        -0.2156
     11 N2          1.0687   -6.2446   -1.8253 N.am      1 <0>        -0.5501
     12 C9          1.7401   -6.2769   -2.9937 C.2       1 <0>         0.5178
     13 O2          2.0961   -7.2687   -3.6064 O.2       1 <0>        -0.5218
     14 C10         1.9505   -4.8735   -3.3844 C.2       1 <0>        -0.0992
     15 N3          2.5604   -4.4215   -4.4634 N.2       1 <0>        -0.0698
     16 N4          3.0515   -5.2501   -5.3215 N.pl3     1 <0>        -0.4623
     17 C11         3.6964   -4.7721   -6.4626 C.ar      1 <0>         0.1553
     18 C12         3.8157   -3.4033   -6.6734 C.ar      1 <0>        -0.1180
     19 C13         4.4549   -2.9335   -7.8033 C.ar      1 <0>        -0.0798
     20 C14         4.9763   -3.8238   -8.7260 C.ar      1 <0>        -0.0495
     21 C15         4.8592   -5.1874   -8.5190 C.ar      1 <0>        -0.0769
     22 C16         4.2262   -5.6636   -7.3882 C.ar      1 <0>        -0.1303
     23 Cl1         5.7784   -3.2291  -10.1461 Cl        1 <0>        -0.0600
     24 H1          1.0053    1.8021    0.0021 H         1 <0>         0.0572
     25 H2         -0.5445    1.7859   -0.8732 H         1 <0>         0.0572
     26 H3         -0.5275    1.7763    0.9067 H         1 <0>         0.1022
     27 H4          1.1329    1.2403   -2.0037 H         1 <0>         0.1328
     28 H5          2.2283    0.1575   -3.9206 H         1 <0>         0.1335
     29 H6          2.3238   -2.2954   -4.0658 H         1 <0>         0.1406
     30 H7          0.2229   -2.5889   -0.3418 H         1 <0>         0.1433
     31 H8          0.7865   -7.0273   -1.3267 H         1 <0>         0.4461
     32 H9          2.9724   -6.2054   -5.1734 H         1 <0>         0.4154
     33 H10         3.4084   -2.7081   -5.9542 H         1 <0>         0.1485
     34 H11         4.5479   -1.8701   -7.9677 H         1 <0>         0.1449
     35 H12         5.2668   -5.8796   -9.2409 H         1 <0>         0.1452
     36 H13         4.1387   -6.7277   -7.2252 H         1 <0>         0.1420
@<TRIPOS>BOND
     1    1    2 1
     2    1   24 1
     3    1   25 1
     4    1   26 1
     5    2    3 1
     6    3    8 ar
     7    3    4 ar
     8    4    5 ar
     9    4   27 1
    10    5    6 ar
    11    5   28 1
    12    6    7 ar
    13    6   29 1
    14    7    8 ar
    15    7    9 1
    16    8   30 1
    17    9   14 1
    18    9   10 2
    19   10   11 1
    20   11   12 am
    21   11   31 1
    22   12   13 2
    23   12   14 1
    24   14   15 2
    25   15   16 1
    26   16   17 1
    27   16   32 1
    28   17   22 ar
    29   17   18 ar
    30   18   19 ar
    31   18   33 1
    32   19   20 ar
    33   19   34 1
    34   20   21 ar
    35   20   23 1
    36   21   22 ar
    37   21   35 1
    38   22   36 1
@<TRIPOS>MOLECULE
ZINC49525577
   36    38     0     0     0
SMALL
USER_CHARGES

@<TRIPOS>ATOM
      1 C1         -0.0173    1.4248    0.0099 C.3       1 <0>         0.0239
      2 O1          0.0021   -0.0041    0.0020 O.3       1 <0>        -0.3137
      3 C2          0.6257   -0.6182    1.0412 C.ar      1 <0>         0.1511
      4 C3          1.2018    0.1419    2.0504 C.ar      1 <0>        -0.2144
      5 C4          1.8353   -0.4780    3.1064 C.ar      1 <0>        -0.0331
      6 C5          1.8972   -1.8705    3.1603 C.ar      1 <0>        -0.0771
      7 C6          1.3174   -2.6311    2.1448 C.ar      1 <0>        -0.0406
      8 C7          0.6805   -2.0047    1.0946 C.ar      1 <0>        -0.1558
      9 C8          2.5775   -2.5401    4.2931 C.2       1 <0>         0.2221
     10 N1          3.1538   -1.9517    5.3066 N.2       1 <0>        -0.2287
     11 N2          3.6957   -2.8827    6.1919 N.am      1 <0>        -0.5511
     12 C9          3.4707   -4.1360    5.7497 C.2       1 <0>         0.5169
     13 O2          3.8123   -5.1747    6.2883 O.2       1 <0>        -0.5230
     14 C10         2.7241   -3.9978    4.4886 C.2       1 <0>        -0.0992
     15 N3          2.2843   -4.9628    3.7043 N.2       1 <0>        -0.0719
     16 N4          2.4956   -6.1960    4.0184 N.pl3     1 <0>        -0.4633
     17 C11         2.0305   -7.2166    3.1888 C.ar      1 <0>         0.1650
     18 C12         1.3441   -6.9063    2.0203 C.ar      1 <0>        -0.1268
     19 C13         0.8854   -7.9186    1.2011 C.ar      1 <0>        -0.0754
     20 C14         1.1078   -9.2406    1.5413 C.ar      1 <0>        -0.1219
     21 C15         1.7903   -9.5540    2.7038 C.ar      1 <0>        -0.0050
     22 C16         2.2573   -8.5455    3.5257 C.ar      1 <0>        -0.1382
     23 Cl1         2.0658  -11.2149    3.1268 Cl        1 <0>        -0.0537
     24 H1          1.0053    1.8021    0.0021 H         1 <0>         0.0589
     25 H2         -0.5445    1.7859   -0.8732 H         1 <0>         0.1029
     26 H3         -0.5275    1.7763    0.9067 H         1 <0>         0.0589
     27 H4          1.1538    1.2200    2.0079 H         1 <0>         0.1359
     28 H5          2.2835    0.1138    3.8908 H         1 <0>         0.1383
     29 H6          1.3638   -3.7094    2.1833 H         1 <0>         0.1452
     30 H7          0.2272   -2.5930    0.3105 H         1 <0>         0.1390
     31 H8          4.1674   -2.6601    7.0098 H         1 <0>         0.4451
     32 H9          2.9779   -6.4136    4.8313 H         1 <0>         0.4154
     33 H10         1.1695   -5.8744    1.7538 H         1 <0>         0.1454
     34 H11         0.3519   -7.6777    0.2935 H         1 <0>         0.1451
     35 H12         0.7478  -10.0302    0.8984 H         1 <0>         0.1412
     36 H13         2.7937   -8.7901    4.4305 H         1 <0>         0.1424
@<TRIPOS>BOND
     1    1    2 1
     2    1   24 1
     3    1   25 1
     4    1   26 1
     5    2    3 1
     6    3    8 ar
     7    3    4 ar
     8    4    5 ar
     9    4   27 1
    10    5    6 ar
    11    5   28 1
    12    6    7 ar
    13    6    9 1
    14    7    8 ar
    15    7   29 1
    16    8   30 1
    17    9   14 1
    18    9   10 2
    19   10   11 1
    20   11   12 am
    21   11   31 1
    22   12   13 2
    23   12   14 1
    24   14   15 2
    25   15   16 1
    26   16   17 1
    27   16   32 1
    28   17   22 ar
    29   17   18 ar
    30   18   19 ar
    31   18   33 1
    32   19   20 ar
    33   19   34 1
    34   20   21 ar
    35   20   35 1
    36   21   22 ar
    37   21   23 1
    38   22   36 1
@<TRIPOS>MOLECULE
ZINC34371722
   32    35     0     0     0
SMALL
USER_CHARGES

@<TRIPOS>ATOM
      1 C1         -0.0167    1.3786    0.0096 C.ar      1 <0>        -0.0992
      2 C2          1.1696    2.0892    0.0021 C.ar      1 <0>        -0.1009
      3 C3          2.3774    1.4194   -0.0135 C.ar      1 <0>        -0.0868
      4 C4          2.3996    0.0309   -0.0212 C.ar      1 <0>         0.1023
      5 C5          1.2065   -0.6797   -0.0132 C.ar      1 <0>        -0.1019
      6 C6          0.0021   -0.0041    0.0020 C.ar      1 <0>        -0.1064
      7 N1          3.6225   -0.6512   -0.0375 N.pl3     1 <0>        -0.4206
      8 C7          4.1021   -1.4514   -1.0568 C.ar      1 <0>         0.0694
      9 C8          3.6084   -1.8316   -2.2971 C.ar      1 <0>        -0.1075
     10 C9          4.3538   -2.6660   -3.1029 C.ar      1 <0>        -0.0860
     11 C10         5.5934   -3.1281   -2.6823 C.ar      1 <0>        -0.1214
     12 C11         6.0963   -2.7653   -1.4656 C.ar      1 <0>        -0.0553
     13 C12         5.3586   -1.9191   -0.6303 C.ar      1 <0>         0.0508
     14 N2          5.5844   -1.3971    0.5988 N.2       1 <0>        -0.4516
     15 C13         4.5709   -0.6456    0.9523 C.2       1 <0>         0.3285
     16 C14         4.4647    0.0947    2.2285 C.2       1 <0>         0.1298
     17 C15         5.4718    0.1173    3.2969 C.2       1 <0>         0.3642
     18 N3          5.0285    0.8748    4.2620 N.2       1 <0>        -0.3525
     19 O1          3.7551    1.3653    3.8823 O.3       1 <0>         0.0400
     20 N4          3.4597    0.8466    2.5976 N.2       1 <0>        -0.2360
     21 N5          6.6877   -0.5535    3.2826 N.pl3     1 <0>        -0.8022
     22 H1         -0.9598    1.9046    0.0260 H         1 <0>         0.1334
     23 H2          1.1517    3.1690    0.0081 H         1 <0>         0.1352
     24 H3          3.3035    1.9749   -0.0201 H         1 <0>         0.1235
     25 H4          1.2205   -1.7596   -0.0195 H         1 <0>         0.1285
     26 H5         -0.9261   -0.5562    0.0079 H         1 <0>         0.1351
     27 H6          2.6444   -1.4758   -2.6294 H         1 <0>         0.1278
     28 H7          3.9705   -2.9623   -4.0681 H         1 <0>         0.1368
     29 H8          6.1658   -3.7816   -3.3238 H         1 <0>         0.1367
     30 H9          7.0617   -3.1311   -1.1484 H         1 <0>         0.1371
     31 H10         6.9329   -1.0968    2.5174 H         1 <0>         0.4307
     32 H11         7.2918   -0.4786    4.0378 H         1 <0>         0.4182
@<TRIPOS>BOND
     1    1    6 ar
     2    1    2 ar
     3    1   22 1
     4    2    3 ar
     5    2   23 1
     6    3    4 ar
     7    3   24 1
     8    4    5 ar
     9    4    7 1
    10    5    6 ar
    11    5   25 1
    12    6   26 1
    13    7   15 1
    14    7    8 1
    15    8   13 ar
    16    8    9 ar
    17    9   10 ar
    18    9   27 1
    19   10   11 ar
    20   10   28 1
    21   11   12 ar
    22   11   29 1
    23   12   13 ar
    24   12   30 1
    25   13   14 1
    26   14   15 2
    27   15   16 1
    28   16   20 2
    29   16   17 1
    30   17   18 2
    31   17   21 1
    32   18   19 1
    33   19   20 1
    34   21   31 1
    35   21   32 1
@<TRIPOS>MOLECULE
ZINC00204903
   25    27     0     0     0
SMALL
USER_CHARGES

@<TRIPOS>ATOM
      1 C1         -0.0178    1.4608    0.0101 C.3       1 <0>         0.0688
      2 N1          0.0021   -0.0041    0.0020 N.pl3     1 <0>        -0.4663
      3 C2          0.0081   -0.8169   -1.1133 C.ar      1 <0>         0.0636
      4 C3         -0.0016   -0.5775   -2.4809 C.ar      1 <0>        -0.1113
      5 C4          0.0084   -1.6390   -3.3605 C.ar      1 <0>        -0.0866
      6 C5          0.0277   -2.9443   -2.8886 C.ar      1 <0>        -0.1235
      7 C6          0.0372   -3.2004   -1.5473 C.ar      1 <0>        -0.0552
      8 C7          0.0282   -2.1396   -0.6349 C.ar      1 <0>         0.0494
      9 N2          0.0334   -2.0755    0.7178 N.2       1 <0>        -0.4566
     10 C8          0.0241   -0.8222    1.0992 C.2       1 <0>         0.3186
     11 C9          0.0318   -0.3604    2.5049 C.2       1 <0>         0.1401
     12 C10         0.0612   -1.2218    3.6936 C.2       1 <0>         0.3638
     13 N3          0.0599   -0.4595    4.7522 N.2       1 <0>        -0.3514
     14 O1          0.0306    0.8889    4.3193 O.3       1 <0>         0.0406
     15 N4          0.0193    0.8857    2.9027 N.2       1 <0>        -0.2545
     16 N5          0.0857   -2.6103    3.6913 N.pl3     1 <0>        -0.8013
     17 H1          1.0048    1.8381    0.0023 H         1 <0>         0.0840
     18 H2         -0.5450    1.8219   -0.8730 H         1 <0>         0.0930
     19 H3         -0.5280    1.8123    0.9069 H         1 <0>         0.1000
     20 H4         -0.0174    0.4359   -2.8540 H         1 <0>         0.1277
     21 H5          0.0008   -1.4537   -4.4245 H         1 <0>         0.1361
     22 H6          0.0351   -3.7659   -3.5895 H         1 <0>         0.1357
     23 H7          0.0515   -4.2200   -1.1914 H         1 <0>         0.1358
     24 H8          0.0843   -3.0940    2.8506 H         1 <0>         0.4312
     25 H9          0.1043   -3.0964    4.5305 H         1 <0>         0.4183
@<TRIPOS>BOND
     1    1    2 1
     2    1   17 1
     3    1   18 1
     4    1   19 1
     5    2   10 1
     6    2    3 1
     7    3    8 ar
     8    3    4 ar
     9    4    5 ar
    10    4   20 1
    11    5    6 ar
    12    5   21 1
    13    6    7 ar
    14    6   22 1
    15    7    8 ar
    16    7   23 1
    17    8    9 1
    18    9   10 2
    19   10   11 1
    20   11   15 2
    21   11   12 1
    22   12   13 2
    23   12   16 1
    24   13   14 1
    25   14   15 1
    26   16   24 1
    27   16   25 1
@<TRIPOS>MOLECULE
ZINC00053816
   32    35     0     0     0
SMALL
USER_CHARGES
4-[1-(cyclopropylmethyl)benzoimidazol-2-yl]-1,2,5-oxadiazol-3-amine
@<TRIPOS>ATOM
      1 C1          4.8805   -3.7251    1.3030 C.ar      1 <0>        -0.1247
      2 C2          3.5459   -3.5610    1.6481 C.ar      1 <0>        -0.0932
      3 C3          2.9579   -2.3153    1.5945 C.ar      1 <0>        -0.1078
      4 C4          3.7069   -1.2174    1.1928 C.ar      1 <0>         0.0622
      5 C5          5.0586   -1.3839    0.8403 C.ar      1 <0>         0.0499
      6 C6          5.6317   -2.6592    0.8977 C.ar      1 <0>        -0.0594
      7 N1          5.5366   -0.1631    0.5010 N.2       1 <0>        -0.4681
      8 C7          4.5843    0.7295    0.6136 C.2       1 <0>         0.3554
      9 N2          3.4306    0.1256    1.0355 N.pl3     1 <0>        -0.4661
     10 C8          2.1445    0.7830    1.2803 C.3       1 <0>         0.1379
     11 C9          1.3165    0.7789   -0.0063 C.3       1 <0>        -0.1751
     12 C10        -0.0187    1.5258    0.0104 C.3       1 <0>        -0.1609
     13 C11         0.0021   -0.0041    0.0020 C.3       1 <0>        -0.1746
     14 C12         4.7332    2.1733    0.3269 C.2       1 <0>         0.0202
     15 C13         5.9368    2.9099   -0.1250 C.2       1 <0>         0.3226
     16 N3          5.4977    4.1431   -0.2190 N.2       1 <0>        -0.4110
     17 O1          4.3320    4.1813    0.0972 O.3       1 <0>         0.3360
     18 N4          3.8316    3.1279    0.4145 N.2       1 <0>        -0.3189
     19 N5          7.2091    2.4184   -0.3859 N.pl3     1 <0>        -0.8004
     20 H1          5.3276   -4.7071    1.3495 H         1 <0>         0.1331
     21 H2          2.9640   -4.4155    1.9604 H         1 <0>         0.1334
     22 H3          1.9192   -2.1938    1.8642 H         1 <0>         0.1242
     23 H4          6.6697   -2.7981    0.6337 H         1 <0>         0.1328
     24 H5          2.3168    1.8113    1.5981 H         1 <0>         0.1074
     25 H6          1.6052    0.2469    2.0611 H         1 <0>         0.0953
     26 H7          1.8888    0.7918   -0.9339 H         1 <0>         0.1063
     27 H8         -0.3248    2.0300   -0.9061 H         1 <0>         0.1009
     28 H9         -0.3072    2.0201    0.9381 H         1 <0>         0.1003
     29 H10        -0.2728   -0.5162    0.9241 H         1 <0>         0.0972
     30 H11        -0.2904   -0.5063   -0.9201 H         1 <0>         0.0978
     31 H12         7.3960    1.4731   -0.2753 H         1 <0>         0.4300
     32 H13         7.9110    3.0205   -0.6789 H         1 <0>         0.4174
@<TRIPOS>BOND
     1    1    6 ar
     2    1    2 ar
     3    1   20 1
     4    2    3 ar
     5    2   21 1
     6    3    4 ar
     7    3   22 1
     8    4    9 1
     9    4    5 ar
    10    5    6 ar
    11    5    7 1
    12    6   23 1
    13    7    8 2
    14    8    9 1
    15    8   14 1
    16    9   10 1
    17   10   11 1
    18   10   24 1
    19   10   25 1
    20   11   13 1
    21   11   12 1
    22   11   26 1
    23   12   13 1
    24   12   27 1
    25   12   28 1
    26   13   29 1
    27   13   30 1
    28   14   18 2
    29   14   15 1
    30   15   16 2
    31   15   19 1
    32   16   17 1
    33   17   18 1
    34   19   31 1
    35   19   32 1
@<TRIPOS>MOLECULE
ZINC05481799
   34    36     0     0     0
SMALL
USER_CHARGES
4-(1-isobutylbenzoimidazol-2-yl)-1,2,5-oxadiazol-3-amine
@<TRIPOS>ATOM
      1 C1         -3.5703    2.5211   -2.0788 C.3       1 <0>        -0.1529
      2 C2         -4.1971    3.7307   -1.3824 C.3       1 <0>        -0.1080
      3 C3         -5.7197    3.5804   -1.3713 C.3       1 <0>        -0.1448
      4 C4         -3.6824    3.8144    0.0560 C.3       1 <0>         0.1080
      5 N1         -2.2413    4.0776    0.0444 N.pl3     1 <0>        -0.4655
      6 C5         -1.2361    3.1321    0.0298 C.ar      1 <0>         0.0631
      7 C6         -1.2185    1.7438    0.0173 C.ar      1 <0>        -0.1092
      8 C7         -0.0126    1.0758    0.0080 C.ar      1 <0>        -0.0938
      9 C8          1.1830    1.7812    0.0003 C.ar      1 <0>        -0.1250
     10 C9          1.1866    3.1467    0.0072 C.ar      1 <0>        -0.0594
     11 C10        -0.0247    3.8471    0.0220 C.ar      1 <0>         0.0495
     12 N2         -0.3380    5.1645    0.0320 N.2       1 <0>        -0.4686
     13 C11        -1.6401    5.3074    0.0452 C.2       1 <0>         0.3541
     14 C12        -2.3539    6.6034    0.0594 C.2       1 <0>         0.0216
     15 C13        -1.7891    7.9732    0.0674 C.2       1 <0>         0.3225
     16 N3         -2.8650    8.7249    0.0766 N.2       1 <0>        -0.4107
     17 O1         -3.8479    8.0221    0.0826 O.3       1 <0>         0.3355
     18 N4         -3.6501    6.8298    0.0738 N.2       1 <0>        -0.3215
     19 N5         -0.4565    8.3635    0.0635 N.pl3     1 <0>        -0.8003
     20 H1         -3.8418    1.6120   -1.5422 H         1 <0>         0.0582
     21 H2         -3.9370    2.4614   -3.1035 H         1 <0>         0.0612
     22 H3         -2.4856    2.6282   -2.0867 H         1 <0>         0.0568
     23 H4         -3.9257    4.6398   -1.9189 H         1 <0>         0.0747
     24 H5         -6.1662    4.4421   -0.8752 H         1 <0>         0.0630
     25 H6         -6.0864    3.5207   -2.3960 H         1 <0>         0.0640
     26 H7         -5.9911    2.6712   -0.8347 H         1 <0>         0.0589
     27 H8         -3.8753    2.8708    0.5664 H         1 <0>         0.0944
     28 H9         -4.1950    4.6218    0.5789 H         1 <0>         0.1037
     29 H10        -2.1454    1.1896    0.0190 H         1 <0>         0.1247
     30 H11         0.0021   -0.0041    0.0020 H         1 <0>         0.1331
     31 H12         2.1201    1.2444   -0.0115 H         1 <0>         0.1328
     32 H13         2.1228    3.6852    0.0015 H         1 <0>         0.1324
     33 H14         0.2451    7.6937    0.0544 H         1 <0>         0.4300
     34 H15        -0.2271    9.3060    0.0698 H         1 <0>         0.4174
@<TRIPOS>BOND
     1    1    2 1
     2    1   20 1
     3    1   21 1
     4    1   22 1
     5    2    3 1
     6    2    4 1
     7    2   23 1
     8    3   24 1
     9    3   25 1
    10    3   26 1
    11    4    5 1
    12    4   27 1
    13    4   28 1
    14    5   13 1
    15    5    6 1
    16    6   11 ar
    17    6    7 ar
    18    7    8 ar
    19    7   29 1
    20    8    9 ar
    21    8   30 1
    22    9   10 ar
    23    9   31 1
    24   10   11 ar
    25   10   32 1
    26   11   12 1
    27   12   13 2
    28   13   14 1
    29   14   18 2
    30   14   15 1
    31   15   16 2
    32   15   19 1
    33   16   17 1
    34   17   18 1
    35   19   33 1
    36   19   34 1
@<TRIPOS>MOLECULE
ZINC00051756
   31    33     0     0     0
SMALL
USER_CHARGES
4-(1-isopropylbenzoimidazol-2-yl)-1,2,5-oxadiazol-3-amine
@<TRIPOS>ATOM
      1 C1         -4.0222    2.8671   -1.1033 C.3       1 <0>        -0.1639
      2 C2         -3.6697    3.7959    0.0603 C.3       1 <0>         0.1203
      3 C3         -4.0264    3.1143    1.3829 C.3       1 <0>        -0.1645
      4 N1         -2.2347    4.0892    0.0336 N.pl3     1 <0>        -0.4635
      5 C4         -1.2091    3.1711    0.1335 C.ar      1 <0>         0.0651
      6 C5         -1.1612    1.7907    0.2750 C.ar      1 <0>        -0.1110
      7 C6          0.0590    1.1536    0.3514 C.ar      1 <0>        -0.0939
      8 C7          1.2390    1.8811    0.2772 C.ar      1 <0>        -0.1255
      9 C8          1.2128    3.2387    0.1329 C.ar      1 <0>        -0.0588
     10 C9         -0.0135    3.9084    0.0583 C.ar      1 <0>         0.0486
     11 N2         -0.3554    5.2114   -0.0807 N.2       1 <0>        -0.4683
     12 C10        -1.6604    5.3250   -0.0960 C.2       1 <0>         0.3524
     13 C11        -2.4023    6.5978   -0.2324 C.2       1 <0>         0.0231
     14 C12        -1.8722    7.9810   -0.2685 C.2       1 <0>         0.3228
     15 N3         -2.9616    8.7002   -0.4043 N.2       1 <0>        -0.4098
     16 O1         -3.9248    7.9712   -0.4360 O.3       1 <0>         0.3358
     17 N4         -3.6996    6.7871   -0.3463 N.2       1 <0>        -0.3253
     18 N5         -0.5538    8.4087   -0.1829 N.pl3     1 <0>        -0.8000
     19 H1         -5.1024    2.7261   -1.1413 H         1 <0>         0.0827
     20 H2         -3.6806    3.3106   -2.0386 H         1 <0>         0.0638
     21 H3         -3.5348    1.9029   -0.9591 H         1 <0>         0.0664
     22 H4         -4.2323    4.7248   -0.0331 H         1 <0>         0.1189
     23 H5         -3.6882    3.7337    2.2136 H         1 <0>         0.0634
     24 H6         -5.1067    2.9828    1.4440 H         1 <0>         0.0827
     25 H7         -3.5385    2.1410    1.4332 H         1 <0>         0.0669
     26 H8         -2.0758    1.2190    0.3291 H         1 <0>         0.1252
     27 H9          0.0972    0.0803    0.4652 H         1 <0>         0.1331
     28 H10         2.1876    1.3679    0.3340 H         1 <0>         0.1328
     29 H11         2.1371    3.7946    0.0766 H         1 <0>         0.1325
     30 H12         0.1610    7.7603   -0.0852 H         1 <0>         0.4301
     31 H13        -0.3477    9.3558   -0.2207 H         1 <0>         0.4176
@<TRIPOS>BOND
     1    1    2 1
     2    1   19 1
     3    1   20 1
     4    1   21 1
     5    2    3 1
     6    2    4 1
     7    2   22 1
     8    3   23 1
     9    3   24 1
    10    3   25 1
    11    4   12 1
    12    4    5 1
    13    5   10 ar
    14    5    6 ar
    15    6    7 ar
    16    6   26 1
    17    7    8 ar
    18    7   27 1
    19    8    9 ar
    20    8   28 1
    21    9   10 ar
    22    9   29 1
    23   10   11 1
    24   11   12 2
    25   12   13 1
    26   13   17 2
    27   13   14 1
    28   14   15 2
    29   14   18 1
    30   15   16 1
    31   16   17 1
    32   18   30 1
    33   18   31 1
@<TRIPOS>MOLECULE
ZINC00051756
   32    34     0     0     0
SMALL
USER_CHARGES
4-(1-isopropylbenzoimidazol-2-yl)-1,2,5-oxadiazol-3-amine
@<TRIPOS>ATOM
      1 C1         -4.0222    2.8671   -1.1033 C.3       1 <0>        -0.1707
      2 C2         -3.6697    3.7959    0.0603 C.3       1 <0>         0.1095
      3 C3         -4.0264    3.1143    1.3829 C.3       1 <0>        -0.1713
      4 N1         -2.2347    4.0892    0.0336 N.pl3     1 <0>        -0.3973
      5 C4         -1.2091    3.1711    0.1335 C.ar      1 <0>         0.0881
      6 C5         -1.1612    1.7907    0.2750 C.ar      1 <0>        -0.0874
      7 C6          0.0590    1.1536    0.3514 C.ar      1 <0>        -0.0618
      8 C7          1.2390    1.8811    0.2772 C.ar      1 <0>        -0.0724
      9 C8          1.2128    3.2387    0.1329 C.ar      1 <0>        -0.0778
     10 C9         -0.0135    3.9084    0.0583 C.ar      1 <0>         0.0592
     11 C10        -1.6604    5.3250   -0.0960 C.cat     1 <0>         0.4697
     12 C11        -2.4023    6.5978   -0.2324 C.2       1 <0>        -0.0548
     13 C12        -1.8722    7.9810   -0.2685 C.2       1 <0>         0.3255
     14 N2         -2.9616    8.7002   -0.4043 N.2       1 <0>        -0.3698
     15 O1         -3.9248    7.9712   -0.4360 O.3       1 <0>         0.3963
     16 N3         -3.6996    6.7871   -0.3463 N.2       1 <0>        -0.2820
     17 N4         -0.5538    8.4087   -0.1829 N.pl3     1 <0>        -0.7998
     18 H1         -5.1024    2.7261   -1.1413 H         1 <0>         0.1050
     19 H2         -3.6806    3.3106   -2.0386 H         1 <0>         0.0726
     20 H3         -3.5348    1.9029   -0.9591 H         1 <0>         0.0760
     21 H4         -4.2323    4.7248   -0.0331 H         1 <0>         0.1355
     22 H5         -3.6882    3.7337    2.2136 H         1 <0>         0.0722
     23 H6         -5.1067    2.9828    1.4440 H         1 <0>         0.1050
     24 H7         -3.5385    2.1410    1.4332 H         1 <0>         0.0763
     25 H8         -2.0758    1.2190    0.3291 H         1 <0>         0.1543
     26 H9          0.0972    0.0803    0.4652 H         1 <0>         0.1602
     27 H10         2.1876    1.3679    0.3340 H         1 <0>         0.1603
     28 H11         2.1371    3.7946    0.0766 H         1 <0>         0.1560
     29 H12         0.1610    7.7603   -0.0852 H         1 <0>         0.4102
     30 H13        -0.3477    9.3558   -0.2207 H         1 <0>         0.4376
     31 N5         -0.3547    5.2122   -0.0808 N.pl3     1 <0>        -0.4902
     32 H14         0.3080    5.9923   -0.1618 H         1 <0>         0.4658
@<TRIPOS>BOND
     1    1    2 1
     2    1   18 1
     3    1   19 1
     4    1   20 1
     5    2    3 1
     6    2    4 1
     7    2   21 1
     8    3   22 1
     9    3   23 1
    10    3   24 1
    11    4   11 1
    12    4    5 1
    13    5   10 ar
    14    5    6 ar
    15    6    7 ar
    16    6   25 1
    17    7    8 ar
    18    7   26 1
    19    8    9 ar
    20    8   27 1
    21    9   10 ar
    22    9   28 1
    23   10   31 1
    24   11   12 1
    25   11   31 2
    26   12   16 2
    27   12   13 1
    28   13   14 2
    29   13   17 1
    30   14   15 1
    31   15   16 1
    32   17   29 1
    33   17   30 1
    34   31   32 1
@<TRIPOS>MOLECULE
ZINC49021499
   36    38     0     0     0
SMALL
USER_CHARGES

@<TRIPOS>ATOM
      1 C1         -0.0173    1.4248    0.0099 C.3       1 <0>         0.0260
      2 O1          0.0021   -0.0041    0.0020 O.3       1 <0>        -0.3148
      3 C2          0.6058   -0.6071   -1.0557 C.ar      1 <0>         0.1235
      4 C3          1.1730    0.1626   -2.0626 C.ar      1 <0>        -0.1880
      5 C4          1.7878   -0.4460   -3.1407 C.ar      1 <0>        -0.0825
      6 C5          1.8419   -1.8229   -3.2226 C.ar      1 <0>        -0.1192
      7 C6          1.2752   -2.6036   -2.2156 C.ar      1 <0>         0.0042
      8 C7          0.6601   -1.9890   -1.1262 C.ar      1 <0>        -0.1112
      9 C8          1.3317   -4.0819   -2.3007 C.2       1 <0>         0.2132
     10 N1          0.8389   -4.9260   -1.4348 N.2       1 <0>        -0.2180
     11 N2          1.0696   -6.2446   -1.8247 N.am      1 <0>        -0.5505
     12 C9          1.7408   -6.2770   -2.9933 C.2       1 <0>         0.5178
     13 O2          2.0975   -7.2688   -3.6055 O.2       1 <0>        -0.5239
     14 C10         1.9507   -4.8735   -3.3844 C.2       1 <0>        -0.1078
     15 N3          2.5601   -4.4216   -4.4634 N.2       1 <0>        -0.0670
     16 N4          3.0514   -5.2502   -5.3215 N.pl3     1 <0>        -0.4597
     17 C11         3.6958   -4.7723   -6.4626 C.ar      1 <0>         0.1463
     18 C12         3.8147   -3.4036   -6.6740 C.ar      1 <0>        -0.1293
     19 C13         4.4533   -2.9344   -7.8047 C.ar      1 <0>        -0.0911
     20 C14         4.9739   -3.8243   -8.7266 C.ar      1 <0>        -0.1302
     21 C15         4.8571   -5.1868   -8.5200 C.ar      1 <0>        -0.0880
     22 C16         4.2258   -5.6636   -7.3883 C.ar      1 <0>        -0.1420
     23 H1          1.0053    1.8021    0.0021 H         1 <0>         0.0570
     24 H2         -0.5445    1.7859   -0.8732 H         1 <0>         0.0570
     25 H3         -0.5275    1.7763    0.9067 H         1 <0>         0.1021
     26 H4          1.1334    1.2403   -2.0034 H         1 <0>         0.1325
     27 H5          2.2268    0.1575   -3.9214 H         1 <0>         0.1332
     28 H6          2.3227   -2.2954   -4.0664 H         1 <0>         0.1411
     29 H7          0.2232   -2.5889   -0.3416 H         1 <0>         0.1431
     30 H8          0.7876   -7.0273   -1.3260 H         1 <0>         0.4454
     31 H9          2.9726   -6.2056   -5.1732 H         1 <0>         0.4138
     32 H10         3.4078   -2.7081   -5.9549 H         1 <0>         0.1387
     33 H11         4.5460   -1.8711   -7.9697 H         1 <0>         0.1335
     34 H12         5.4725   -3.4543   -9.6103 H         1 <0>         0.1296
     35 H13         5.2643   -5.8787   -9.2424 H         1 <0>         0.1338
     36 H14         4.1392   -6.7277   -7.2252 H         1 <0>         0.1315
@<TRIPOS>BOND
     1    1    2 1
     2    1   23 1
     3    1   24 1
     4    1   25 1
     5    2    3 1
     6    3    8 ar
     7    3    4 ar
     8    4    5 ar
     9    4   26 1
    10    5    6 ar
    11    5   27 1
    12    6    7 ar
    13    6   28 1
    14    7    8 ar
    15    7    9 1
    16    8   29 1
    17    9   14 1
    18    9   10 2
    19   10   11 1
    20   11   12 am
    21   11   30 1
    22   12   13 2
    23   12   14 1
    24   14   15 2
    25   15   16 1
    26   16   17 1
    27   16   31 1
    28   17   22 ar
    29   17   18 ar
    30   18   19 ar
    31   18   32 1
    32   19   20 ar
    33   19   33 1
    34   20   21 ar
    35   20   34 1
    36   21   22 ar
    37   21   35 1
    38   22   36 1
@<TRIPOS>MOLECULE
ZINC49089749
   36    38     0     0     0
SMALL
USER_CHARGES

@<TRIPOS>ATOM
      1 C1         -0.0173    1.4248    0.0099 C.3       1 <0>         0.0259
      2 O1          0.0021   -0.0041    0.0020 O.3       1 <0>        -0.3147
      3 C2          0.6258   -0.6184    1.0415 C.ar      1 <0>         0.1239
      4 C3          1.2024    0.1404    2.0514 C.ar      1 <0>        -0.1875
      5 C4          1.8383   -0.4797    3.1105 C.ar      1 <0>        -0.0823
      6 C5          1.9040   -1.8572    3.1706 C.ar      1 <0>        -0.1194
      7 C6          1.3273   -2.6270    2.1609 C.ar      1 <0>         0.0037
      8 C7          0.6813   -2.0009    1.0961 C.ar      1 <0>        -0.1109
      9 C8          1.3962   -4.1059    2.2225 C.2       1 <0>         0.2125
     10 N1          0.9058   -4.9404    1.3460 N.2       1 <0>        -0.2151
     11 N2          1.1492   -6.2630    1.7141 N.am      1 <0>        -0.5501
     12 C9          1.8265   -6.3082    2.8787 C.2       1 <0>         0.5177
     13 O2          2.1946   -7.3064    3.4733 O.2       1 <0>        -0.5209
     14 C10         2.0382   -4.9090    3.2841 C.2       1 <0>        -0.0986
     15 N3          2.6613   -4.4688    4.3602 N.2       1 <0>        -0.0688
     16 N4          3.1722   -5.3064    5.1977 N.pl3     1 <0>        -0.4626
     17 C11         3.8311   -4.8409    6.3357 C.ar      1 <0>         0.1647
     18 C12         3.9331   -3.4745    6.5718 C.ar      1 <0>        -0.1264
     19 C13         4.5854   -3.0168    7.6992 C.ar      1 <0>        -0.0758
     20 C14         5.1375   -3.9155    8.5939 C.ar      1 <0>        -0.1217
     21 C15         5.0387   -5.2765    8.3626 C.ar      1 <0>        -0.0050
     22 C16         4.3821   -5.7418    7.2389 C.ar      1 <0>        -0.1378
     23 Cl1         5.7344   -6.4002    9.4881 Cl        1 <0>        -0.0534
     24 H1          1.0053    1.8021    0.0021 H         1 <0>         0.0572
     25 H2         -0.5445    1.7859   -0.8732 H         1 <0>         0.1022
     26 H3         -0.5275    1.7763    0.9067 H         1 <0>         0.0572
     27 H4          1.1541    1.2185    2.0090 H         1 <0>         0.1328
     28 H5          2.2854    0.1153    3.8932 H         1 <0>         0.1335
     29 H6          2.4022   -2.3386    3.9991 H         1 <0>         0.1408
     30 H7          0.2294   -2.5924    0.3136 H         1 <0>         0.1433
     31 H8          0.8704   -7.0401    1.2048 H         1 <0>         0.4462
     32 H9          3.0982   -6.2600    5.0361 H         1 <0>         0.4154
     33 H10         3.5027   -2.7718    5.8737 H         1 <0>         0.1457
     34 H11         4.6650   -1.9555    7.8825 H         1 <0>         0.1448
     35 H12         5.6472   -3.5543    9.4749 H         1 <0>         0.1412
     36 H13         4.3012   -6.8039    7.0608 H         1 <0>         0.1425
@<TRIPOS>BOND
     1    1    2 1
     2    1   24 1
     3    1   25 1
     4    1   26 1
     5    2    3 1
     6    3    8 ar
     7    3    4 ar
     8    4    5 ar
     9    4   27 1
    10    5    6 ar
    11    5   28 1
    12    6    7 ar
    13    6   29 1
    14    7    8 ar
    15    7    9 1
    16    8   30 1
    17    9   14 1
    18    9   10 2
    19   10   11 1
    20   11   12 am
    21   11   31 1
    22   12   13 2
    23   12   14 1
    24   14   15 2
    25   15   16 1
    26   16   17 1
    27   16   32 1
    28   17   22 ar
    29   17   18 ar
    30   18   19 ar
    31   18   33 1
    32   19   20 ar
    33   19   34 1
    34   20   21 ar
    35   20   35 1
    36   21   22 ar
    37   21   23 1
    38   22   36 1
@<TRIPOS>MOLECULE
ZINC49033427
   30    32     0     0     0
SMALL
USER_CHARGES

@<TRIPOS>ATOM
      1 C1         -0.0166    1.3764    0.0096 C.ar      1 <0>        -0.0846
      2 C2          1.1705    2.0866    0.0021 C.ar      1 <0>        -0.1478
      3 C3          2.3806    1.4178   -0.0131 C.ar      1 <0>        -0.0788
      4 C4          2.4082    0.0360   -0.0212 C.ar      1 <0>        -0.0898
      5 C5          1.2161   -0.6812   -0.0137 C.ar      1 <0>         0.1970
      6 C6          0.0021   -0.0041    0.0020 C.ar      1 <0>        -0.1325
      7 N1          1.2390   -2.0755   -0.0224 N.pl3     1 <0>        -0.4895
      8 N2          0.1326   -2.7387   -0.0154 N.2       1 <0>        -0.1027
      9 C7          0.1544   -4.0639   -0.0236 C.2       1 <0>        -0.0304
     10 C8         -0.9895   -4.9986   -0.0239 C.2       1 <0>        -0.0404
     11 N3         -0.4567   -6.2068   -0.0343 N.2       1 <0>        -0.1585
     12 N4          0.8222   -6.1602   -0.0404 N.2       1 <0>        -0.4461
     13 C9          1.2875   -4.9294   -0.0406 C.2       1 <0>         0.3756
     14 O1          2.5922   -4.5562   -0.0514 O.3       1 <0>        -0.6502
     15 C10        -2.4270   -4.6542   -0.0138 C.ar      1 <0>         0.2511
     16 C11        -3.3832   -5.6715   -0.0099 C.ar      1 <0>        -0.1640
     17 C12        -4.7240   -5.3328   -0.0005 C.ar      1 <0>        -0.0758
     18 C13        -5.0684   -3.9876    0.0048 C.ar      1 <0>        -0.2056
     19 C14        -4.0702   -3.0312    0.0006 C.ar      1 <0>         0.1023
     20 N5         -2.7993   -3.3790   -0.0030 N.ar      1 <0>        -0.4720
     21 Cl1         3.9277   -0.8032   -0.0414 Cl        1 <0>        -0.0586
     22 H1         -0.9596    1.9026    0.0260 H         1 <0>         0.1315
     23 H2          1.1520    3.1664    0.0077 H         1 <0>         0.1296
     24 H3          3.3053    1.9758   -0.0189 H         1 <0>         0.1351
     25 H4         -0.9254   -0.5573    0.0079 H         1 <0>         0.1524
     26 H5          2.0868   -2.5466   -0.0336 H         1 <0>         0.4152
     27 H6         -3.0801   -6.7081   -0.0146 H         1 <0>         0.1387
     28 H7         -5.4865   -6.0977    0.0024 H         1 <0>         0.1273
     29 H8         -6.1069   -3.6911    0.0119 H         1 <0>         0.1240
     30 H9         -4.3357   -1.9843    0.0043 H         1 <0>         0.1477
@<TRIPOS>BOND
     1    1    6 ar
     2    1    2 ar
     3    1   22 1
     4    2    3 ar
     5    2   23 1
     6    3    4 ar
     7    3   24 1
     8    4    5 ar
     9    4   21 1
    10    5    6 ar
    11    5    7 1
    12    6   25 1
    13    7    8 1
    14    7   26 1
    15    8    9 2
    16    9   13 1
    17    9   10 1
    18   10   11 2
    19   10   15 1
    20   11   12 1
    21   12   13 2
    22   13   14 1
    23   15   20 ar
    24   15   16 ar
    25   16   17 ar
    26   16   27 1
    27   17   18 ar
    28   17   28 1
    29   18   19 ar
    30   18   29 1
    31   19   20 ar
    32   19   30 1
@<TRIPOS>MOLECULE
ZINC49033427
   31    33     0     0     0
SMALL
USER_CHARGES

@<TRIPOS>ATOM
      1 C1         -0.0166    1.3765    0.0096 C.ar      1 <0>        -0.0860
      2 C2          1.1704    2.0866    0.0021 C.ar      1 <0>        -0.1194
      3 C3          2.3805    1.4176   -0.0131 C.ar      1 <0>        -0.0808
      4 C4          2.4078    0.0359   -0.0208 C.ar      1 <0>        -0.0689
      5 C5          1.2159   -0.6811   -0.0133 C.ar      1 <0>         0.1603
      6 C6          0.0021   -0.0041    0.0020 C.ar      1 <0>        -0.1145
      7 N1          1.2387   -2.0760   -0.0214 N.pl3     1 <0>        -0.4651
      8 N2          0.1323   -2.7392   -0.0144 N.2       1 <0>        -0.0341
      9 C7          0.1539   -4.0584   -0.0222 C.2       1 <0>        -0.1067
     10 C8         -1.0026   -4.9786   -0.0221 C.2       1 <0>         0.2196
     11 N3         -0.5308   -6.1965   -0.0314 N.2       1 <0>        -0.2106
     12 N4          0.8635   -6.1994   -0.0379 N.am      1 <0>        -0.5485
     13 C9          1.3347   -4.9365   -0.0392 C.2       1 <0>         0.5149
     14 O1          2.5036   -4.5913   -0.0492 O.2       1 <0>        -0.5183
     15 C10        -2.4322   -4.5914   -0.0125 C.ar      1 <0>         0.1797
     16 C11        -3.4164   -5.5793   -0.0080 C.ar      1 <0>        -0.1280
     17 C12        -4.7475   -5.2019    0.0009 C.ar      1 <0>        -0.0770
     18 C13        -5.0524   -3.8476    0.0052 C.ar      1 <0>        -0.1548
     19 C14        -4.0262   -2.9211    0.0003 C.ar      1 <0>         0.1033
     20 N5         -2.7664   -3.3068   -0.0028 N.ar      1 <0>        -0.4457
     21 Cl1         3.9273   -0.8036   -0.0404 Cl        1 <0>        -0.0532
     22 H1         -0.9596    1.9028    0.0260 H         1 <0>         0.1404
     23 H2          1.1521    3.1664    0.0077 H         1 <0>         0.1393
     24 H3          3.3052    1.9755   -0.0193 H         1 <0>         0.1439
     25 H4         -0.9254   -0.5573    0.0083 H         1 <0>         0.1559
     26 H5          2.0865   -2.5471   -0.0324 H         1 <0>         0.4138
     27 H6         -3.1435   -6.6243   -0.0119 H         1 <0>         0.1467
     28 H7         -5.5319   -5.9443    0.0043 H         1 <0>         0.1426
     29 H8         -6.0818   -3.5207    0.0118 H         1 <0>         0.1409
     30 H9         -4.2605   -1.8669    0.0036 H         1 <0>         0.1640
     31 H10         1.4158   -6.9968   -0.0451 H         1 <0>         0.4462
@<TRIPOS>BOND
     1    1    6 ar
     2    1    2 ar
     3    1   22 1
     4    2    3 ar
     5    2   23 1
     6    3    4 ar
     7    3   24 1
     8    4    5 ar
     9    4   21 1
    10    5    6 ar
    11    5    7 1
    12    6   25 1
    13    7    8 1
    14    7   26 1
    15    8    9 2
    16    9   13 1
    17    9   10 1
    18   10   11 2
    19   10   15 1
    20   11   12 1
    21   12   13 am
    22   12   31 1
    23   13   14 2
    24   15   20 ar
    25   15   16 ar
    26   16   17 ar
    27   16   27 1
    28   17   18 ar
    29   17   28 1
    30   18   19 ar
    31   18   29 1
    32   19   20 ar
    33   19   30 1
@<TRIPOS>MOLECULE
ZINC49109717
   30    32     0     0     0
SMALL
USER_CHARGES

@<TRIPOS>ATOM
      1 C1         -0.0166    1.3764    0.0096 C.ar      1 <0>        -0.0809
      2 C2          1.1705    2.0866    0.0021 C.ar      1 <0>        -0.1477
      3 C3          2.3806    1.4178   -0.0135 C.ar      1 <0>        -0.0761
      4 C4          2.4081    0.0360   -0.0211 C.ar      1 <0>        -0.0906
      5 C5          1.2161   -0.6811   -0.0131 C.ar      1 <0>         0.1980
      6 C6          0.0021   -0.0041    0.0020 C.ar      1 <0>        -0.1376
      7 N1          1.2389   -2.0756   -0.0212 N.pl3     1 <0>        -0.4918
      8 N2          0.1326   -2.7389   -0.0138 N.2       1 <0>        -0.1491
      9 C7          0.1543   -4.0635   -0.0215 C.2       1 <0>        -0.0239
     10 C8         -0.9854   -5.0049   -0.0213 C.2       1 <0>        -0.0397
     11 N3         -0.4496   -6.2100   -0.0309 N.2       1 <0>        -0.1625
     12 N4          0.8284   -6.1841   -0.0370 N.2       1 <0>        -0.4456
     13 C9          1.3186   -4.9626   -0.0389 C.2       1 <0>         0.3815
     14 O1          2.6284   -4.6060   -0.0514 O.3       1 <0>        -0.6417
     15 C10        -2.4254   -4.6662   -0.0119 C.ar      1 <0>        -0.0032
     16 C11        -3.3943   -5.6767   -0.0072 C.ar      1 <0>        -0.0752
     17 C12        -4.7274   -5.3069    0.0015 C.ar      1 <0>        -0.1692
     18 C13        -5.0576   -3.9633    0.0053 C.ar      1 <0>         0.0647
     19 N5         -4.1230   -3.0324    0.0003 N.ar      1 <0>        -0.4827
     20 C14        -2.8409   -3.3341   -0.0018 C.ar      1 <0>         0.0929
     21 Cl1         3.9276   -0.8033   -0.0412 Cl        1 <0>        -0.0578
     22 H1         -0.9596    1.9027    0.0259 H         1 <0>         0.1332
     23 H2          1.1520    3.1664    0.0080 H         1 <0>         0.1307
     24 H3          3.3053    1.9757   -0.0200 H         1 <0>         0.1358
     25 H4         -0.9254   -0.5573    0.0082 H         1 <0>         0.1456
     26 H5          2.0868   -2.5467   -0.0325 H         1 <0>         0.4168
     27 H6         -3.1084   -6.7182   -0.0107 H         1 <0>         0.1386
     28 H7         -5.5023   -6.0592    0.0050 H         1 <0>         0.1289
     29 H8         -6.0975   -3.6719    0.0121 H         1 <0>         0.1466
     30 H9         -2.1049   -2.5437   -0.0004 H         1 <0>         0.1619
@<TRIPOS>BOND
     1    1    6 ar
     2    1    2 ar
     3    1   22 1
     4    2    3 ar
     5    2   23 1
     6    3    4 ar
     7    3   24 1
     8    4    5 ar
     9    4   21 1
    10    5    6 ar
    11    5    7 1
    12    6   25 1
    13    7    8 1
    14    7   26 1
    15    8    9 2
    16    9   13 1
    17    9   10 1
    18   10   11 2
    19   10   15 1
    20   11   12 1
    21   12   13 2
    22   13   14 1
    23   15   20 ar
    24   15   16 ar
    25   16   17 ar
    26   16   27 1
    27   17   18 ar
    28   17   28 1
    29   18   19 ar
    30   18   29 1
    31   19   20 ar
    32   20   30 1
@<TRIPOS>MOLECULE
ZINC49109717
   31    33     0     0     0
SMALL
USER_CHARGES

@<TRIPOS>ATOM
      1 C1         -0.0166    1.3765    0.0096 C.ar      1 <0>        -0.0827
      2 C2          1.1704    2.0866    0.0021 C.ar      1 <0>        -0.1172
      3 C3          2.3805    1.4176   -0.0135 C.ar      1 <0>        -0.0787
      4 C4          2.4078    0.0359   -0.0212 C.ar      1 <0>        -0.0674
      5 C5          1.2159   -0.6811   -0.0133 C.ar      1 <0>         0.1570
      6 C6          0.0021   -0.0041    0.0020 C.ar      1 <0>        -0.1178
      7 N1          1.2387   -2.0760   -0.0214 N.pl3     1 <0>        -0.4600
      8 N2          0.1323   -2.7392   -0.0140 N.2       1 <0>        -0.0721
      9 C7          0.1538   -4.0583   -0.0218 C.2       1 <0>        -0.1022
     10 C8         -1.0025   -4.9786   -0.0213 C.2       1 <0>         0.2154
     11 N3         -0.5309   -6.1962   -0.0307 N.2       1 <0>        -0.2164
     12 N4          0.8634   -6.1995   -0.0377 N.am      1 <0>        -0.5495
     13 C9          1.3348   -4.9366   -0.0392 C.2       1 <0>         0.5170
     14 O1          2.5037   -4.5915   -0.0496 O.2       1 <0>        -0.5153
     15 C10        -2.4328   -4.5911   -0.0114 C.ar      1 <0>        -0.0879
     16 C11        -3.4339   -5.5680   -0.0063 C.ar      1 <0>        -0.0345
     17 C12        -4.7543   -5.1541    0.0029 C.ar      1 <0>        -0.1746
     18 C13        -5.0394   -3.8005    0.0066 C.ar      1 <0>         0.1170
     19 N5         -4.0740   -2.9019    0.0016 N.ar      1 <0>        -0.4822
     20 C14        -2.8027   -3.2470   -0.0013 C.ar      1 <0>         0.1385
     21 Cl1         3.9272   -0.8036   -0.0414 Cl        1 <0>        -0.0511
     22 H1         -0.9596    1.9028    0.0260 H         1 <0>         0.1428
     23 H2          1.1521    3.1664    0.0081 H         1 <0>         0.1409
     24 H3          3.3052    1.9755   -0.0201 H         1 <0>         0.1453
     25 H4         -0.9254   -0.5573    0.0083 H         1 <0>         0.1490
     26 H5          2.0865   -2.5472   -0.0327 H         1 <0>         0.4177
     27 H6         -3.1827   -6.6183   -0.0097 H         1 <0>         0.1471
     28 H7         -5.5538   -5.8803    0.0067 H         1 <0>         0.1443
     29 H8         -6.0690   -3.4743    0.0134 H         1 <0>         0.1626
     30 H9         -2.0404   -2.4820   -0.0006 H         1 <0>         0.1685
     31 H10         1.4155   -6.9970   -0.0451 H         1 <0>         0.4465
@<TRIPOS>BOND
     1    1    6 ar
     2    1    2 ar
     3    1   22 1
     4    2    3 ar
     5    2   23 1
     6    3    4 ar
     7    3   24 1
     8    4    5 ar
     9    4   21 1
    10    5    6 ar
    11    5    7 1
    12    6   25 1
    13    7    8 1
    14    7   26 1
    15    8    9 2
    16    9   13 1
    17    9   10 1
    18   10   11 2
    19   10   15 1
    20   11   12 1
    21   12   13 am
    22   12   31 1
    23   13   14 2
    24   15   20 ar
    25   15   16 ar
    26   16   17 ar
    27   16   27 1
    28   17   18 ar
    29   17   28 1
    30   18   19 ar
    31   18   29 1
    32   19   20 ar
    33   20   30 1
@<TRIPOS>MOLECULE
ZINC49033430
   30    32     0     0     0
SMALL
USER_CHARGES

@<TRIPOS>ATOM
      1 C1         -0.0166    1.3764    0.0096 C.ar      1 <0>        -0.0820
      2 C2          1.1705    2.0866    0.0021 C.ar      1 <0>        -0.1459
      3 C3          2.3806    1.4178   -0.0135 C.ar      1 <0>        -0.0762
      4 C4          2.4081    0.0360   -0.0211 C.ar      1 <0>        -0.0886
      5 C5          1.2161   -0.6812   -0.0131 C.ar      1 <0>         0.1952
      6 C6          0.0021   -0.0041    0.0020 C.ar      1 <0>        -0.1371
      7 N1          1.2390   -2.0755   -0.0212 N.pl3     1 <0>        -0.4865
      8 N2          0.1326   -2.7388   -0.0138 N.2       1 <0>        -0.1364
      9 C7          0.1544   -4.0639   -0.0215 C.2       1 <0>        -0.0248
     10 C8         -0.9895   -4.9986   -0.0213 C.2       1 <0>        -0.0553
     11 N3         -0.4567   -6.2067   -0.0308 N.2       1 <0>        -0.1535
     12 N4          0.8222   -6.1602   -0.0368 N.2       1 <0>        -0.4458
     13 C9          1.2876   -4.9295   -0.0384 C.2       1 <0>         0.3769
     14 O1          2.5923   -4.5563   -0.0507 O.3       1 <0>        -0.6445
     15 C10        -2.4273   -4.6541   -0.0118 C.ar      1 <0>         0.0873
     16 C11        -2.8473   -3.3183   -0.0074 C.ar      1 <0>        -0.1759
     17 C12        -4.1982   -3.0425    0.0015 C.ar      1 <0>         0.0938
     18 N5         -5.0888   -4.0164    0.0059 N.ar      1 <0>        -0.5090
     19 C13        -4.7363   -5.2882    0.0020 C.ar      1 <0>         0.0938
     20 C14        -3.4071   -5.6546   -0.0127 C.ar      1 <0>        -0.1688
     21 Cl1         3.9277   -0.8032   -0.0412 Cl        1 <0>        -0.0562
     22 H1         -0.9596    1.9026    0.0259 H         1 <0>         0.1333
     23 H2          1.1520    3.1664    0.0080 H         1 <0>         0.1313
     24 H3          3.3053    1.9758   -0.0200 H         1 <0>         0.1366
     25 H4         -0.9254   -0.5573    0.0082 H         1 <0>         0.1451
     26 H5          2.0868   -2.5466   -0.0325 H         1 <0>         0.4184
     27 H6         -2.1241   -2.5162   -0.0106 H         1 <0>         0.1394
     28 H7         -4.5321   -2.0154    0.0053 H         1 <0>         0.1480
     29 H8         -5.4994   -6.0525    0.0058 H         1 <0>         0.1495
     30 H9         -3.1259   -6.6973   -0.0208 H         1 <0>         0.1379
@<TRIPOS>BOND
     1    1    6 ar
     2    1    2 ar
     3    1   22 1
     4    2    3 ar
     5    2   23 1
     6    3    4 ar
     7    3   24 1
     8    4    5 ar
     9    4   21 1
    10    5    6 ar
    11    5    7 1
    12    6   25 1
    13    7    8 1
    14    7   26 1
    15    8    9 2
    16    9   13 1
    17    9   10 1
    18   10   11 2
    19   10   15 1
    20   11   12 1
    21   12   13 2
    22   13   14 1
    23   15   20 ar
    24   15   16 ar
    25   16   17 ar
    26   16   27 1
    27   17   18 ar
    28   17   28 1
    29   18   19 ar
    30   19   20 ar
    31   19   29 1
    32   20   30 1
@<TRIPOS>MOLECULE
ZINC49033430
   31    33     0     0     0
SMALL
USER_CHARGES

@<TRIPOS>ATOM
      1 C1         -0.0166    1.3765    0.0096 C.ar      1 <0>        -0.0834
      2 C2          1.1704    2.0866    0.0021 C.ar      1 <0>        -0.1170
      3 C3          2.3805    1.4176   -0.0131 C.ar      1 <0>        -0.0780
      4 C4          2.4078    0.0359   -0.0212 C.ar      1 <0>        -0.0674
      5 C5          1.2159   -0.6811   -0.0137 C.ar      1 <0>         0.1575
      6 C6          0.0021   -0.0041    0.0020 C.ar      1 <0>        -0.1189
      7 N1          1.2387   -2.0760   -0.0224 N.pl3     1 <0>        -0.4606
      8 N2          0.1323   -2.7392   -0.0154 N.2       1 <0>        -0.0691
      9 C7          0.1538   -4.0584   -0.0235 C.2       1 <0>        -0.1017
     10 C8         -1.0026   -4.9786   -0.0236 C.2       1 <0>         0.2050
     11 N3         -0.5308   -6.1964   -0.0333 N.2       1 <0>        -0.2056
     12 N4          0.8635   -6.1994   -0.0401 N.am      1 <0>        -0.5487
     13 C9          1.3347   -4.9365   -0.0411 C.2       1 <0>         0.5168
     14 O1          2.5036   -4.5913   -0.0518 O.2       1 <0>        -0.5140
     15 C10        -2.4324   -4.5913   -0.0139 C.ar      1 <0>         0.0133
     16 C11        -2.8124   -3.2450   -0.0091 C.ar      1 <0>        -0.1380
     17 C12        -4.1550   -2.9289   -0.0000 C.ar      1 <0>         0.1003
     18 N5         -5.0739   -3.8758    0.0046 N.ar      1 <0>        -0.4730
     19 C13        -4.7585   -5.1570    0.0005 C.ar      1 <0>         0.1006
     20 C14        -3.4399   -5.5617   -0.0150 C.ar      1 <0>        -0.1337
     21 Cl1         3.9272   -0.8036   -0.0414 Cl        1 <0>        -0.0503
     22 H1         -0.9596    1.9028    0.0260 H         1 <0>         0.1426
     23 H2          1.1521    3.1664    0.0077 H         1 <0>         0.1412
     24 H3          3.3053    1.9755   -0.0189 H         1 <0>         0.1456
     25 H4         -0.9254   -0.5573    0.0079 H         1 <0>         0.1481
     26 H5          2.0865   -2.5471   -0.0337 H         1 <0>         0.4175
     27 H6         -2.0656   -2.4648   -0.0122 H         1 <0>         0.1487
     28 H7         -4.4582   -1.8924    0.0037 H         1 <0>         0.1633
     29 H8         -5.5434   -5.8988    0.0046 H         1 <0>         0.1639
     30 H9         -3.1891   -6.6122   -0.0230 H         1 <0>         0.1474
     31 H10         1.4157   -6.9969   -0.0472 H         1 <0>         0.4474
@<TRIPOS>BOND
     1    1    6 ar
     2    1    2 ar
     3    1   22 1
     4    2    3 ar
     5    2   23 1
     6    3    4 ar
     7    3   24 1
     8    4    5 ar
     9    4   21 1
    10    5    6 ar
    11    5    7 1
    12    6   25 1
    13    7    8 1
    14    7   26 1
    15    8    9 2
    16    9   13 1
    17    9   10 1
    18   10   11 2
    19   10   15 1
    20   11   12 1
    21   12   13 am
    22   12   31 1
    23   13   14 2
    24   15   20 ar
    25   15   16 ar
    26   16   17 ar
    27   16   27 1
    28   17   18 ar
    29   17   28 1
    30   18   19 ar
    31   19   20 ar
    32   19   29 1
    33   20   30 1
@<TRIPOS>MOLECULE
ZINC49032611
   32    34     0     0     0
SMALL
USER_CHARGES

@<TRIPOS>ATOM
      1 C1         -0.0167    1.3792    0.0096 C.ar      1 <0>        -0.0976
      2 C2          1.1686    2.0926    0.0021 C.ar      1 <0>        -0.1245
      3 C3          2.3774    1.4274   -0.0135 C.ar      1 <0>        -0.0769
      4 C4          2.4027    0.0332   -0.0212 C.ar      1 <0>        -0.0371
      5 C5          1.2047   -0.6804   -0.0131 C.ar      1 <0>        -0.0825
      6 C6          0.0021   -0.0041    0.0020 C.ar      1 <0>        -0.1241
      7 C7          3.6975   -0.6872   -0.0384 C.2       1 <0>         0.2142
      8 N1          4.8850   -0.1440   -0.0421 N.2       1 <0>        -0.2211
      9 N2          5.8860   -1.1144   -0.0591 N.am      1 <0>        -0.5510
     10 C8          5.3425   -2.3479   -0.0671 C.2       1 <0>         0.5154
     11 O1          5.9391   -3.4107   -0.0820 O.2       1 <0>        -0.5179
     12 C9          3.8838   -2.1532   -0.0482 C.2       1 <0>        -0.0989
     13 N3          2.9479   -3.0831   -0.0433 N.2       1 <0>        -0.0714
     14 N4          3.2778   -4.3301   -0.0535 N.pl3     1 <0>        -0.4645
     15 C10         2.2881   -5.3135   -0.0483 C.ar      1 <0>         0.1604
     16 C11         0.9462   -4.9516   -0.0380 C.ar      1 <0>        -0.1201
     17 C12        -0.0305   -5.9275   -0.0328 C.ar      1 <0>        -0.0835
     18 C13         0.3245   -7.2645   -0.0380 C.ar      1 <0>        -0.1188
     19 C14         1.6581   -7.6295   -0.0478 C.ar      1 <0>        -0.0779
     20 C15         2.6417   -6.6587   -0.0592 C.ar      1 <0>        -0.0687
     21 Cl1         4.3159   -7.1175   -0.0800 Cl        1 <0>        -0.0509
     22 H1         -0.9604    1.9042    0.0260 H         1 <0>         0.1271
     23 H2          1.1477    3.1724    0.0082 H         1 <0>         0.1299
     24 H3          3.3020    1.9854   -0.0200 H         1 <0>         0.1346
     25 H4          1.2181   -1.7603   -0.0194 H         1 <0>         0.1380
     26 H5         -0.9264   -0.5557    0.0083 H         1 <0>         0.1297
     27 H6          6.8380   -0.9284   -0.0647 H         1 <0>         0.4457
     28 H7          4.2139   -4.5842   -0.0647 H         1 <0>         0.4171
     29 H8          0.6677   -3.9081   -0.0336 H         1 <0>         0.1480
     30 H9         -1.0733   -5.6466   -0.0245 H         1 <0>         0.1417
     31 H10        -0.4421   -8.0252   -0.0339 H         1 <0>         0.1406
     32 H11         1.9313   -8.6744   -0.0510 H         1 <0>         0.1451
@<TRIPOS>BOND
     1    1    6 ar
     2    1    2 ar
     3    1   22 1
     4    2    3 ar
     5    2   23 1
     6    3    4 ar
     7    3   24 1
     8    4    5 ar
     9    4    7 1
    10    5    6 ar
    11    5   25 1
    12    6   26 1
    13    7   12 1
    14    7    8 2
    15    8    9 1
    16    9   10 am
    17    9   27 1
    18   10   11 2
    19   10   12 1
    20   12   13 2
    21   13   14 1
    22   14   15 1
    23   14   28 1
    24   15   20 ar
    25   15   16 ar
    26   16   17 ar
    27   16   29 1
    28   17   18 ar
    29   17   30 1
    30   18   19 ar
    31   18   31 1
    32   19   20 ar
    33   19   32 1
    34   20   21 1
@<TRIPOS>MOLECULE
ZINC40979326
   58    61     0     0     0
SMALL
USER_CHARGES

@<TRIPOS>ATOM
      1 C1          0.0313    0.4233    0.2594 C.3       1 <0>        -0.1531
      2 C2          0.2943   -1.0706    0.0598 C.3       1 <0>        -0.1280
      3 C3          1.0135   -1.2883   -1.2730 C.3       1 <0>         0.1684
      4 H1          0.4319   -0.8381   -2.0774 H         1 <0>         0.1039
      5 C4          1.1655   -2.7886   -1.5315 C.3       1 <0>         0.0631
      6 O1          1.8265   -3.3987   -0.4211 O.3       1 <0>        -0.5696
      7 N1          2.3383   -0.6651   -1.2204 N.pl3     1 <0>        -0.6797
      8 C5          2.9626   -0.2653   -2.3906 C.ar      1 <0>         0.6268
      9 N2          2.3380   -0.4527   -3.5463 N.ar      1 <0>        -0.6111
     10 C6          2.8951   -0.0864   -4.6951 C.ar      1 <0>         0.5347
     11 C7          4.1686    0.5082   -4.6654 C.ar      1 <0>        -0.1491
     12 C8          4.7913    0.6864   -3.4190 C.ar      1 <0>         0.3505
     13 N3          4.1589    0.2950   -2.3171 N.ar      1 <0>        -0.6084
     14 N4          6.0011    1.2778   -3.6812 N.pl3     1 <0>        -0.4705
     15 C9          6.0909    1.4434   -5.0326 C.2       1 <0>         0.2398
     16 N5          5.0151    0.9913   -5.6077 N.2       1 <0>        -0.4562
     17 C10         7.0111    1.6616   -2.6918 C.3       1 <0>         0.1342
     18 C11         8.3154    0.9151   -2.9785 C.3       1 <0>        -0.1631
     19 C12         7.2579    3.1694   -2.7734 C.3       1 <0>        -0.1628
     20 N6          2.2359   -0.2864   -5.8962 N.pl3     1 <0>        -0.6367
     21 C13         0.9236   -0.7682   -5.9015 C.ar      1 <0>         0.1541
     22 C14         0.0267   -0.3535   -4.9238 C.ar      1 <0>        -0.0986
     23 C15        -1.2712   -0.8272   -4.9261 C.ar      1 <0>        -0.1046
     24 C16        -1.6849   -1.7151   -5.8994 C.ar      1 <0>        -0.1149
     25 C17        -0.7925   -2.1364   -6.8837 C.ar      1 <0>        -0.0326
     26 C18         0.5144   -1.6556   -6.8855 C.ar      1 <0>        -0.1040
     27 C19        -1.2354   -3.0907   -7.9298 C.ar      1 <0>         0.1695
     28 C20        -2.5724   -3.4781   -7.9903 C.ar      1 <0>        -0.1627
     29 C21        -2.9706   -4.3690   -8.9717 C.ar      1 <0>        -0.0719
     30 C22        -2.0173   -4.8439   -9.8616 C.ar      1 <0>        -0.1760
     31 C23        -0.7076   -4.4172   -9.7437 C.ar      1 <0>         0.1055
     32 N7         -0.3562   -3.5639   -8.8031 N.ar      1 <0>        -0.4790
     33 H2          0.9792    0.9614    0.2659 H         1 <0>         0.0551
     34 H3         -0.5916    0.7945   -0.5544 H         1 <0>         0.0540
     35 H4         -0.4811    0.5783    1.2089 H         1 <0>         0.0566
     36 H5          0.9172   -1.4418    0.8736 H         1 <0>         0.0770
     37 H6         -0.6536   -1.6088    0.0532 H         1 <0>         0.0779
     38 H7          0.1802   -3.2370   -1.6589 H         1 <0>         0.0526
     39 H8          1.7550   -2.9437   -2.4351 H         1 <0>         0.0503
     40 H9          1.9570   -4.3521   -0.5164 H         1 <0>         0.3778
     41 H10         2.7784   -0.5324   -0.3662 H         1 <0>         0.4153
     42 H11         6.9307    1.8848   -5.5485 H         1 <0>         0.2161
     43 H12         6.6574    1.4048   -1.6933 H         1 <0>         0.1068
     44 H13         8.6691    1.1718   -3.9771 H         1 <0>         0.0658
     45 H14         9.0669    1.2006   -2.2424 H         1 <0>         0.0800
     46 H15         8.1396   -0.1591   -2.9204 H         1 <0>         0.0632
     47 H16         7.6115    3.4261   -3.7720 H         1 <0>         0.0658
     48 H17         6.3286    3.7012   -2.5692 H         1 <0>         0.0632
     49 H18         8.0093    3.4549   -2.0373 H         1 <0>         0.0800
     50 H19         2.6846   -0.0922   -6.7339 H         1 <0>         0.4288
     51 H20         0.3454    0.3405   -4.1601 H         1 <0>         0.1325
     52 H21        -1.9643   -0.5023   -4.1642 H         1 <0>         0.1293
     53 H22        -2.7001   -2.0834   -5.8978 H         1 <0>         0.1268
     54 H23         1.2084   -1.9760   -7.6485 H         1 <0>         0.1368
     55 H24        -3.2879   -3.0888   -7.2811 H         1 <0>         0.1385
     56 H25        -4.0000   -4.6877   -9.0433 H         1 <0>         0.1371
     57 H26        -2.2959   -5.5404  -10.6386 H         1 <0>         0.1365
     58 H27         0.0367   -4.7848  -10.4345 H         1 <0>         0.1583
@<TRIPOS>BOND
     1    1    2 1
     2    1   33 1
     3    1   34 1
     4    1   35 1
     5    2    3 1
     6    2   36 1
     7    2   37 1
     8    3    4 1
     9    3    5 1
    10    3    7 1
    11    5    6 1
    12    5   38 1
    13    5   39 1
    14    6   40 1
    15    7    8 1
    16    7   41 1
    17    8   13 ar
    18    8    9 ar
    19    9   10 ar
    20   10   11 ar
    21   10   20 1
    22   11   16 1
    23   11   12 ar
    24   12   13 ar
    25   12   14 1
    26   14   15 1
    27   14   17 1
    28   15   16 2
    29   15   42 1
    30   17   18 1
    31   17   19 1
    32   17   43 1
    33   18   44 1
    34   18   45 1
    35   18   46 1
    36   19   47 1
    37   19   48 1
    38   19   49 1
    39   20   21 1
    40   20   50 1
    41   21   26 ar
    42   21   22 ar
    43   22   23 ar
    44   22   51 1
    45   23   24 ar
    46   23   52 1
    47   24   25 ar
    48   24   53 1
    49   25   26 ar
    50   25   27 1
    51   26   54 1
    52   27   32 ar
    53   27   28 ar
    54   28   29 ar
    55   28   55 1
    56   29   30 ar
    57   29   56 1
    58   30   31 ar
    59   30   57 1
    60   31   32 ar
    61   31   58 1
@<TRIPOS>MOLECULE
ZINC49033750
   58    61     0     0     0
SMALL
USER_CHARGES

@<TRIPOS>ATOM
      1 C1         -0.3258    0.6123    0.0085 C.3       1 <0>        -0.1534
      2 C2         -0.1194   -0.8977   -0.1256 C.3       1 <0>        -0.1280
      3 C3          0.6808   -1.1923   -1.3960 C.3       1 <0>         0.1679
      4 H1          1.6121   -0.6262   -1.3783 H         1 <0>         0.1037
      5 C4          0.9944   -2.6882   -1.4658 C.3       1 <0>         0.0630
      6 O1         -0.2205   -3.4345   -1.3717 O.3       1 <0>        -0.5696
      7 N1         -0.1052   -0.8029   -2.5694 N.pl3     1 <0>        -0.6797
      8 C5          0.5342   -0.4782   -3.7546 C.ar      1 <0>         0.6263
      9 N2          1.8591   -0.5326   -3.8035 N.ar      1 <0>        -0.6112
     10 C6          2.5180   -0.2307   -4.9167 C.ar      1 <0>         0.5337
     11 C7          1.7813    0.1507   -6.0517 C.ar      1 <0>        -0.1486
     12 C8          0.3809    0.1940   -5.9528 C.ar      1 <0>         0.3505
     13 N3         -0.1975   -0.1296   -4.8003 N.ar      1 <0>        -0.6078
     14 N4         -0.0737    0.5901   -7.1851 N.pl3     1 <0>        -0.4704
     15 C9          1.0173    0.7743   -7.9835 C.2       1 <0>         0.2402
     16 N5          2.1041    0.5161   -7.3166 N.2       1 <0>        -0.4563
     17 C10        -1.4736    0.7800   -7.5729 C.3       1 <0>         0.1341
     18 C11        -1.6895    2.2301   -8.0104 C.3       1 <0>        -0.1629
     19 C12        -1.8135   -0.1585   -8.7324 C.3       1 <0>        -0.1631
     20 N6          3.9007   -0.2899   -4.9582 N.pl3     1 <0>        -0.6346
     21 C13         4.6242   -0.5570   -3.7922 C.ar      1 <0>         0.1542
     22 C14         4.1533   -0.1085   -2.5637 C.ar      1 <0>        -0.1027
     23 C15         4.8654   -0.3710   -1.4091 C.ar      1 <0>        -0.1043
     24 C16         6.0487   -1.0802   -1.4689 C.ar      1 <0>        -0.1166
     25 C17         6.5286   -1.5339   -2.6963 C.ar      1 <0>        -0.0318
     26 C18         5.8090   -1.2745   -3.8601 C.ar      1 <0>        -0.1067
     27 C19         7.7999   -2.2956   -2.7622 C.ar      1 <0>         0.1696
     28 C20         8.4546   -2.6505   -1.5846 C.ar      1 <0>        -0.1627
     29 C21         9.6398   -3.3610   -1.6620 C.ar      1 <0>        -0.0719
     30 C22        10.1320   -3.6938   -2.9162 C.ar      1 <0>        -0.1761
     31 C23         9.4304   -3.3094   -4.0437 C.ar      1 <0>         0.1055
     32 N7          8.3013   -2.6379   -3.9417 N.ar      1 <0>        -0.4791
     33 H2          0.6434    1.1078    0.0664 H         1 <0>         0.0540
     34 H3         -0.8720    0.9828   -0.8590 H         1 <0>         0.0552
     35 H4         -0.8958    0.8222    0.9136 H         1 <0>         0.0567
     36 H5          0.4268   -1.2682    0.7419 H         1 <0>         0.0781
     37 H6         -1.0885   -1.3932   -0.1835 H         1 <0>         0.0771
     38 H7          1.4863   -2.9125   -2.4123 H         1 <0>         0.0505
     39 H8          1.6528   -2.9602   -0.6408 H         1 <0>         0.0527
     40 H9         -0.0973   -4.3929   -1.4091 H         1 <0>         0.3778
     41 H10        -1.0732   -0.7724   -2.5164 H         1 <0>         0.4155
     42 H11         0.9836    1.0879   -9.0164 H         1 <0>         0.2163
     43 H12        -2.1194    0.5568   -6.7235 H         1 <0>         0.1068
     44 H13        -1.0438    2.4533   -8.8597 H         1 <0>         0.0659
     45 H14        -2.7311    2.3714   -8.2988 H         1 <0>         0.0800
     46 H15        -1.4474    2.8987   -7.1843 H         1 <0>         0.0633
     47 H16        -1.1678    0.0647   -9.5817 H         1 <0>         0.0659
     48 H17        -1.6597   -1.1916   -8.4207 H         1 <0>         0.0632
     49 H18        -2.8551   -0.0173   -9.0209 H         1 <0>         0.0801
     50 H19         4.3674   -0.1461   -5.7963 H         1 <0>         0.4291
     51 H20         3.2286    0.4470   -2.5115 H         1 <0>         0.1380
     52 H21         4.4957   -0.0201   -0.4570 H         1 <0>         0.1291
     53 H22         6.6027   -1.2832   -0.5643 H         1 <0>         0.1265
     54 H23         6.1747   -1.6275   -4.8130 H         1 <0>         0.1367
     55 H24         8.0432   -2.3747   -0.6249 H         1 <0>         0.1384
     56 H25        10.1699   -3.6498   -0.7664 H         1 <0>         0.1371
     57 H26        11.0544   -4.2475   -3.0105 H         1 <0>         0.1364
     58 H27         9.8106   -3.5668   -5.0212 H         1 <0>         0.1584
@<TRIPOS>BOND
     1    1    2 1
     2    1   33 1
     3    1   34 1
     4    1   35 1
     5    2    3 1
     6    2   36 1
     7    2   37 1
     8    3    4 1
     9    3    5 1
    10    3    7 1
    11    5    6 1
    12    5   38 1
    13    5   39 1
    14    6   40 1
    15    7    8 1
    16    7   41 1
    17    8   13 ar
    18    8    9 ar
    19    9   10 ar
    20   10   11 ar
    21   10   20 1
    22   11   16 1
    23   11   12 ar
    24   12   13 ar
    25   12   14 1
    26   14   15 1
    27   14   17 1
    28   15   16 2
    29   15   42 1
    30   17   18 1
    31   17   19 1
    32   17   43 1
    33   18   44 1
    34   18   45 1
    35   18   46 1
    36   19   47 1
    37   19   48 1
    38   19   49 1
    39   20   21 1
    40   20   50 1
    41   21   26 ar
    42   21   22 ar
    43   22   23 ar
    44   22   51 1
    45   23   24 ar
    46   23   52 1
    47   24   25 ar
    48   24   53 1
    49   25   26 ar
    50   25   27 1
    51   26   54 1
    52   27   32 ar
    53   27   28 ar
    54   28   29 ar
    55   28   55 1
    56   29   30 ar
    57   29   56 1
    58   30   31 ar
    59   30   57 1
    60   31   32 ar
    61   31   58 1
@<TRIPOS>MOLECULE
ZINC49089685
   36    38     0     0     0
SMALL
USER_CHARGES

@<TRIPOS>ATOM
      1 C1         -0.0173    1.4248    0.0099 C.3       1 <0>         0.0239
      2 O1          0.0021   -0.0041    0.0020 O.3       1 <0>        -0.3136
      3 C2          0.6056   -0.6070   -1.0554 C.ar      1 <0>         0.1513
      4 C3          1.1725    0.1642   -2.0615 C.ar      1 <0>        -0.2144
      5 C4          1.7857   -0.4443   -3.1360 C.ar      1 <0>        -0.0332
      6 C5          1.8368   -1.8363   -3.2115 C.ar      1 <0>        -0.0773
      7 C6          1.2667   -2.6079   -2.1988 C.ar      1 <0>        -0.0405
      8 C7          0.6593   -1.9928   -1.1247 C.ar      1 <0>        -0.1559
      9 C8          2.4944   -2.4936   -4.3647 C.2       1 <0>         0.2222
     10 N1          3.0689   -1.8941   -5.3728 N.2       1 <0>        -0.2291
     11 N2          3.5878   -2.8156   -6.2814 N.am      1 <0>        -0.5511
     12 C9          3.3489   -4.0738   -5.8610 C.2       1 <0>         0.5171
     13 O2          3.6700   -5.1068   -6.4227 O.2       1 <0>        -0.5238
     14 C10         2.6274   -3.9492   -4.5840 C.2       1 <0>        -0.0997
     15 N3          2.1931   -4.9228   -3.8071 N.2       1 <0>        -0.0730
     16 N4          2.3905   -6.1526   -4.1427 N.pl3     1 <0>        -0.4630
     17 C11         1.9312   -7.1823   -3.3210 C.ar      1 <0>         0.1556
     18 C12         1.2555   -6.8847   -2.1432 C.ar      1 <0>        -0.1184
     19 C13         0.8018   -7.9059   -1.3325 C.ar      1 <0>        -0.0794
     20 C14         1.0195   -9.2250   -1.6911 C.ar      1 <0>        -0.0498
     21 C15         1.6924   -9.5246   -2.8630 C.ar      1 <0>        -0.0769
     22 C16         2.1432   -8.5080   -3.6812 C.ar      1 <0>        -0.1307
     23 Cl1         0.4479  -10.5062   -0.6687 Cl        1 <0>        -0.0601
     24 H1          1.0053    1.8021    0.0021 H         1 <0>         0.0589
     25 H2         -0.5445    1.7859   -0.8732 H         1 <0>         0.0589
     26 H3         -0.5275    1.7763    0.9067 H         1 <0>         0.1029
     27 H4          1.1326    1.2418   -2.0025 H         1 <0>         0.1359
     28 H5          2.2258    0.1560   -3.9185 H         1 <0>         0.1383
     29 H6          1.3042   -3.6858   -2.2543 H         1 <0>         0.1451
     30 H7          0.2210   -2.5895   -0.3385 H         1 <0>         0.1391
     31 H8          4.0544   -2.5841   -7.0998 H         1 <0>         0.4450
     32 H9          2.8584   -6.3614   -4.9663 H         1 <0>         0.4154
     33 H10         1.0860   -5.8557   -1.8625 H         1 <0>         0.1482
     34 H11         0.2767   -7.6753   -0.4173 H         1 <0>         0.1452
     35 H12         1.8610  -10.5548   -3.1399 H         1 <0>         0.1450
     36 H13         2.6639   -8.7425   -4.5978 H         1 <0>         0.1418
@<TRIPOS>BOND
     1    1    2 1
     2    1   24 1
     3    1   25 1
     4    1   26 1
     5    2    3 1
     6    3    8 ar
     7    3    4 ar
     8    4    5 ar
     9    4   27 1
    10    5    6 ar
    11    5   28 1
    12    6    7 ar
    13    6    9 1
    14    7    8 ar
    15    7   29 1
    16    8   30 1
    17    9   14 1
    18    9   10 2
    19   10   11 1
    20   11   12 am
    21   11   31 1
    22   12   13 2
    23   12   14 1
    24   14   15 2
    25   15   16 1
    26   16   17 1
    27   16   32 1
    28   17   22 ar
    29   17   18 ar
    30   18   19 ar
    31   18   33 1
    32   19   20 ar
    33   19   34 1
    34   20   21 ar
    35   20   23 1
    36   21   22 ar
    37   21   35 1
    38   22   36 1
@<TRIPOS>MOLECULE
ZINC05626309
   22    23     0     0     0
SMALL
USER_CHARGES

@<TRIPOS>ATOM
      1 C1         -0.0167    1.3769    0.0096 C.ar      1 <0>        -0.0599
      2 C2          1.1703    2.0866    0.0021 C.ar      1 <0>        -0.1425
      3 C3          2.3799    1.4169   -0.0131 C.ar      1 <0>        -0.0571
      4 C4          2.4062    0.0351   -0.0208 C.ar      1 <0>        -0.0895
      5 C5          1.2148   -0.6807   -0.0132 C.ar      1 <0>         0.2011
      6 C6          0.0021   -0.0041    0.0020 C.ar      1 <0>        -0.1792
      7 N1          1.2372   -2.0780   -0.0214 N.pl3     1 <0>        -0.5344
      8 N2          0.0353   -2.7979   -0.0138 N.pl3     1 <0>        -0.3818
      9 C7          0.0572   -4.1658   -0.0219 C.2       1 <0>         0.1510
     10 C8          1.1443   -4.9868   -0.0311 C.2       1 <0>        -0.2117
     11 N3          0.7133   -6.2536   -0.0359 N.2       1 <0>        -0.0119
     12 N4         -0.5651   -6.3460   -0.0306 N.2       1 <0>        -0.3500
     13 C9         -1.1169   -5.1132   -0.0158 C.2       1 <0>         0.4781
     14 O1         -2.2917   -4.8313   -0.0033 O.2       1 <0>        -0.3797
     15 Cl1         3.9251   -0.8053   -0.0404 Cl        1 <0>        -0.0556
     16 H1         -0.9595    1.9033    0.0260 H         1 <0>         0.1387
     17 H2          1.1524    3.1664    0.0077 H         1 <0>         0.1394
     18 H3          3.3050    1.9742   -0.0193 H         1 <0>         0.1446
     19 H4         -0.9255   -0.5573    0.0083 H         1 <0>         0.1265
     20 H5          2.0848   -2.5494   -0.0324 H         1 <0>         0.4404
     21 H6         -0.8124   -2.3265   -0.0029 H         1 <0>         0.4465
     22 H7          2.1767   -4.6697   -0.0344 H         1 <0>         0.1869
@<TRIPOS>BOND
     1    1    6 ar
     2    1    2 ar
     3    1   16 1
     4    2    3 ar
     5    2   17 1
     6    3    4 ar
     7    3   18 1
     8    4    5 ar
     9    4   15 1
    10    5    6 ar
    11    5    7 1
    12    6   19 1
    13    7    8 1
    14    7   20 1
    15    8    9 1
    16    8   21 1
    17    9   13 1
    18    9   10 2
    19   10   11 1
    20   10   22 1
    21   11   12 2
    22   12   13 1
    23   13   14 2
@<TRIPOS>MOLECULE
ZINC05626309
   22    23     0     0     0
SMALL
USER_CHARGES

@<TRIPOS>ATOM
      1 C1         -0.0166    1.3765    0.0096 C.ar      1 <0>        -0.0846
      2 C2          1.1704    2.0866    0.0021 C.ar      1 <0>        -0.1191
      3 C3          2.3805    1.4176   -0.0135 C.ar      1 <0>        -0.0788
      4 C4          2.4078    0.0359   -0.0211 C.ar      1 <0>        -0.0693
      5 C5          1.2159   -0.6811   -0.0131 C.ar      1 <0>         0.1596
      6 C6          0.0021   -0.0041    0.0020 C.ar      1 <0>        -0.1184
      7 N1          1.2387   -2.0760   -0.0212 N.pl3     1 <0>        -0.4650
      8 N2          0.1323   -2.7392   -0.0138 N.2       1 <0>        -0.0687
      9 C7          0.1539   -4.0600   -0.0215 C.2       1 <0>        -0.1159
     10 C8         -0.9973   -4.9756   -0.0215 C.2       1 <0>         0.1528
     11 N3         -0.5344   -6.1872   -0.0314 N.2       1 <0>        -0.2261
     12 N4          0.8600   -6.2003   -0.0383 N.am      1 <0>        -0.5592
     13 C9          1.3358   -4.9385   -0.0384 C.2       1 <0>         0.5112
     14 O1          2.5052   -4.5951   -0.0476 O.2       1 <0>        -0.5213
     15 Cl1         3.9273   -0.8035   -0.0412 Cl        1 <0>        -0.0515
     16 H1         -0.9596    1.9028    0.0259 H         1 <0>         0.1413
     17 H2          1.1521    3.1664    0.0080 H         1 <0>         0.1403
     18 H3          3.3052    1.9755   -0.0200 H         1 <0>         0.1448
     19 H4         -0.9254   -0.5573    0.0082 H         1 <0>         0.1507
     20 H5          2.0865   -2.5471   -0.0325 H         1 <0>         0.4165
     21 H6         -2.0390   -4.6907   -0.0143 H         1 <0>         0.2170
     22 H7          1.4080   -7.0006   -0.0458 H         1 <0>         0.4437
@<TRIPOS>BOND
     1    1    6 ar
     2    1    2 ar
     3    1   16 1
     4    2    3 ar
     5    2   17 1
     6    3    4 ar
     7    3   18 1
     8    4    5 ar
     9    4   15 1
    10    5    6 ar
    11    5    7 1
    12    6   19 1
    13    7    8 1
    14    7   20 1
    15    8    9 2
    16    9   13 1
    17    9   10 1
    18   10   11 2
    19   10   21 1
    20   11   12 1
    21   12   13 am
    22   12   22 1
    23   13   14 2
@<TRIPOS>MOLECULE
ZINC44136098
   50    53     0     0     0
SMALL
USER_CHARGES

@<TRIPOS>ATOM
      1 C1         -0.2091    0.5158    0.9417 C.ar      1 <0>        -0.1104
      2 C2          1.0375    1.1055    0.9791 C.ar      1 <0>        -0.0063
      3 C3          1.4681    1.8891   -0.0913 C.ar      1 <0>        -0.0306
      4 C4          0.6336    2.0719   -1.1958 C.ar      1 <0>         0.0152
      5 C5         -0.6119    1.4766   -1.2220 C.ar      1 <0>        -0.1149
      6 C6         -1.0331    0.7001   -0.1559 C.ar      1 <0>        -0.0042
      7 Cl1        -2.6001   -0.0459   -0.1955 Cl        1 <0>        -0.0575
      8 Cl2         1.1606    3.0459   -2.5327 Cl        1 <0>        -0.0503
      9 C7          2.8047    2.5249   -0.0564 C.ar      1 <0>         0.3017
     10 C8          3.9688    1.7418    0.0894 C.ar      1 <0>        -0.1664
     11 C9          5.2042    2.3949    0.1154 C.ar      1 <0>         0.2094
     12 N1          5.2379    3.7111    0.0036 N.ar      1 <0>        -0.5578
     13 C10         4.1233    4.4165   -0.1322 C.ar      1 <0>         0.5766
     14 N2          2.9299    3.8443   -0.1676 N.ar      1 <0>        -0.5385
     15 N3          4.2105    5.7921   -0.2451 N.pl3     1 <0>        -0.6907
     16 C11         5.5200    6.4481   -0.2138 C.3       1 <0>         0.1271
     17 C12         5.3365    7.9603   -0.3567 C.3       1 <0>         0.1087
     18 N4          6.6460    8.6163   -0.3255 N.pl3     1 <0>        -0.7021
     19 C13         6.7336    9.9988   -0.4390 C.ar      1 <0>         0.4894
     20 C14         5.5738   10.7526   -0.5761 C.ar      1 <0>        -0.2837
     21 C15         5.6707   12.1298   -0.6881 C.ar      1 <0>         0.0629
     22 C16         6.9283   12.7105   -0.6592 C.ar      1 <0>        -0.2238
     23 C17         8.0480   11.8993   -0.5197 C.ar      1 <0>         0.5165
     24 N5          7.9212   10.5850   -0.4098 N.ar      1 <0>        -0.5877
     25 N6          9.3136   12.4731   -0.4902 N.pl3     1 <0>        -0.8255
     26 N7          7.0776   14.1783   -0.7762 N.pl3     1 <0>         0.0562
     27 O1          6.2781   14.9117   -0.2427 O.2       1 <0>        -0.1530
     28 O2          7.9991   14.6440   -1.4053 O.3       1 <0>        -0.1888
     29 C18         3.8846    0.2727    0.2115 C.2       1 <0>         0.2544
     30 N8          4.9258   -0.5682    0.4793 N.pl3     1 <0>        -0.5651
     31 H1          5.8507   -0.3138    0.6233 H         1 <0>         0.4195
     32 C19         4.4166   -1.8400    0.5058 C.2       1 <0>        -0.0393
     33 C20         3.0953   -1.7418    0.2568 C.2       1 <0>        -0.0208
     34 N9          2.7921   -0.4494    0.0866 N.2       1 <0>        -0.4626
     35 H2         -0.5413   -0.0947    1.7683 H         1 <0>         0.1406
     36 H3          1.6787    0.9611    1.8361 H         1 <0>         0.1326
     37 H4         -1.2587    1.6170   -2.0754 H         1 <0>         0.1449
     38 H5          6.1189    1.8314    0.2259 H         1 <0>         0.1668
     39 H6          3.4046    6.3226   -0.3450 H         1 <0>         0.4197
     40 H7          6.0132    6.2299    0.7334 H         1 <0>         0.0804
     41 H8          6.1320    6.0771   -1.0360 H         1 <0>         0.0801
     42 H9          4.8433    8.1786   -1.3040 H         1 <0>         0.0814
     43 H10         4.7245    8.3314    0.4654 H         1 <0>         0.0819
     44 H11         7.4519    8.0859   -0.2255 H         1 <0>         0.4142
     45 H12         4.6079   10.2698   -0.5955 H         1 <0>         0.1512
     46 H13         4.7848   12.7380   -0.7960 H         1 <0>         0.1576
     47 H14         9.4166   13.4278   -0.6276 H         1 <0>         0.4222
     48 H15        10.0938   11.9188   -0.3322 H         1 <0>         0.4141
     49 H16         4.9693   -2.7492    0.6909 H         1 <0>         0.1812
     50 H17         2.3989   -2.5658    0.2075 H         1 <0>         0.1736
@<TRIPOS>BOND
     1    1    6 ar
     2    1    2 ar
     3    1   35 1
     4    2    3 ar
     5    2   36 1
     6    3    4 ar
     7    3    9 1
     8    4    5 ar
     9    4    8 1
    10    5    6 ar
    11    5   37 1
    12    6    7 1
    13    9   14 ar
    14    9   10 ar
    15   10   11 ar
    16   10   29 1
    17   11   12 ar
    18   11   38 1
    19   12   13 ar
    20   13   14 ar
    21   13   15 1
    22   15   16 1
    23   15   39 1
    24   16   17 1
    25   16   40 1
    26   16   41 1
    27   17   18 1
    28   17   42 1
    29   17   43 1
    30   18   19 1
    31   18   44 1
    32   19   24 ar
    33   19   20 ar
    34   20   21 ar
    35   20   45 1
    36   21   22 ar
    37   21   46 1
    38   22   23 ar
    39   22   26 1
    40   23   24 ar
    41   23   25 1
    42   25   47 1
    43   25   48 1
    44   26   27 2
    45   26   28 1
    46   29   34 2
    47   29   30 1
    48   30   31 1
    49   30   32 1
    50   32   33 2
    51   32   49 1
    52   33   34 1
    53   33   50 1
@<TRIPOS>MOLECULE
ZINC44136098
   51    54     0     0     0
SMALL
USER_CHARGES

@<TRIPOS>ATOM
      1 C1          2.1874   -0.7993   -1.1271 C.ar      1 <0>        -0.1049
      2 C2          3.2997    0.0019   -0.9718 C.ar      1 <0>        -0.0773
      3 C3          3.2672    1.0701   -0.0756 C.ar      1 <0>        -0.0955
      4 C4          2.1073    1.3222    0.6599 C.ar      1 <0>         0.0143
      5 C5          1.0003    0.5135    0.4960 C.ar      1 <0>        -0.1002
      6 C6          1.0395   -0.5452   -0.3953 C.ar      1 <0>         0.0019
      7 Cl1        -0.3561   -1.5578   -0.5969 Cl        1 <0>        -0.0219
      8 Cl2         2.0575    2.6491    1.7782 Cl        1 <0>        -0.0181
      9 C7          4.4580    1.9330    0.0956 C.ar      1 <0>         0.3309
     10 C8          5.7146    1.3702    0.4023 C.ar      1 <0>        -0.2746
     11 C9          6.8045    2.2321    0.5529 C.ar      1 <0>         0.2648
     12 N1          6.6212    3.5320    0.4039 N.ar      1 <0>        -0.5506
     13 C10         5.4253    4.0273    0.1154 C.ar      1 <0>         0.6084
     14 N2          4.3635    3.2523   -0.0425 N.ar      1 <0>        -0.5332
     15 N3          5.2840    5.3950   -0.0302 N.pl3     1 <0>        -0.6653
     16 C11         6.4452    6.2729    0.1342 C.3       1 <0>         0.1159
     17 C12         6.0191    7.7271   -0.0775 C.3       1 <0>         0.1094
     18 N4          7.1803    8.6051    0.0869 N.pl3     1 <0>        -0.7068
     19 C13         7.0383    9.9799   -0.0595 C.ar      1 <0>         0.4879
     20 C14         5.7901   10.5148   -0.3562 C.ar      1 <0>        -0.2865
     21 C15         5.6579   11.8860   -0.4998 C.ar      1 <0>         0.0651
     22 C16         6.7818   12.6807   -0.3416 C.ar      1 <0>        -0.2200
     23 C17         8.0005   12.0823   -0.0454 C.ar      1 <0>         0.5169
     24 N5          8.0928   10.7675    0.0906 N.ar      1 <0>        -0.5864
     25 N6          9.1334   12.8715    0.1146 N.pl3     1 <0>        -0.8224
     26 N7          6.6855   14.1504   -0.4869 N.pl3     1 <0>         0.0537
     27 O1          5.7055   14.7345   -0.0869 O.2       1 <0>        -0.1487
     28 O2          7.5870   14.7669   -1.0055 O.3       1 <0>        -0.1849
     29 C18         5.8740   -0.0892    0.5605 C.cat     1 <0>         0.3950
     30 N8          4.9806   -0.9159    1.1051 N.pl3     1 <0>        -0.4886
     31 H1          4.1162   -0.6627    1.4651 H         1 <0>         0.4601
     32 C19         5.4875   -2.1654    1.0686 C.2       1 <0>         0.0211
     33 C20         6.7056   -2.0947    0.4935 C.2       1 <0>         0.0238
     34 N9          6.9330   -0.8032    0.1775 N.pl3     1 <0>        -0.4884
     35 H2          2.2105   -1.6239   -1.8242 H         1 <0>         0.1564
     36 H3          4.1942   -0.1979   -1.5430 H         1 <0>         0.1437
     37 H4          0.1024    0.7071    1.0640 H         1 <0>         0.1618
     38 H5          7.7832    1.8408    0.7881 H         1 <0>         0.1840
     39 H6          4.4160    5.7732   -0.2411 H         1 <0>         0.4278
     40 H7          6.8501    6.1556    1.1394 H         1 <0>         0.0904
     41 H8          7.2079    6.0076   -0.5980 H         1 <0>         0.0905
     42 H9          5.6143    7.8445   -1.0826 H         1 <0>         0.0829
     43 H10         5.2565    7.9925    0.6547 H         1 <0>         0.0830
     44 H11         8.0483    8.2269    0.2979 H         1 <0>         0.4141
     45 H12         4.9330    9.8683   -0.4738 H         1 <0>         0.1494
     46 H13         4.6991   12.3265   -0.7306 H         1 <0>         0.1591
     47 H14         9.0817   13.8292   -0.0306 H         1 <0>         0.4238
     48 H15         9.9756   12.4646    0.3715 H         1 <0>         0.4150
     49 H16         5.0056   -3.0602    1.4339 H         1 <0>         0.2285
     50 H17         7.3755   -2.9227    0.3146 H         1 <0>         0.2302
     51 H18         7.7297   -0.4541   -0.2518 H         1 <0>         0.4644
@<TRIPOS>BOND
     1    1    6 ar
     2    1    2 ar
     3    1   35 1
     4    2    3 ar
     5    2   36 1
     6    3    4 ar
     7    3    9 1
     8    4    5 ar
     9    4    8 1
    10    5    6 ar
    11    5   37 1
    12    6    7 1
    13    9   14 ar
    14    9   10 ar
    15   10   11 ar
    16   10   29 1
    17   11   12 ar
    18   11   38 1
    19   12   13 ar
    20   13   14 ar
    21   13   15 1
    22   15   16 1
    23   15   39 1
    24   16   17 1
    25   16   40 1
    26   16   41 1
    27   17   18 1
    28   17   42 1
    29   17   43 1
    30   18   19 1
    31   18   44 1
    32   19   24 ar
    33   19   20 ar
    34   20   21 ar
    35   20   45 1
    36   21   22 ar
    37   21   46 1
    38   22   23 ar
    39   22   26 1
    40   23   24 ar
    41   23   25 1
    42   25   47 1
    43   25   48 1
    44   26   27 2
    45   26   28 1
    46   29   34 2
    47   29   30 1
    48   30   31 1
    49   30   32 1
    50   32   33 2
    51   32   49 1
    52   33   34 1
    53   33   50 1
    54   34   51 1
@<TRIPOS>MOLECULE
ZINC49110472
   36    38     0     0     0
SMALL
USER_CHARGES

@<TRIPOS>ATOM
      1 C1         -0.0173    1.4248    0.0099 C.3       1 <0>         0.0259
      2 O1          0.0021   -0.0041    0.0020 O.3       1 <0>        -0.3147
      3 C2          0.6058   -0.6071   -1.0557 C.ar      1 <0>         0.1240
      4 C3          1.1731    0.1626   -2.0626 C.ar      1 <0>        -0.1877
      5 C4          1.7883   -0.4460   -3.1404 C.ar      1 <0>        -0.0822
      6 C5          1.8427   -1.8229   -3.2221 C.ar      1 <0>        -0.1196
      7 C6          1.2760   -2.6036   -2.2152 C.ar      1 <0>         0.0043
      8 C7          0.6601   -1.9890   -1.1262 C.ar      1 <0>        -0.1108
      9 C8          1.3324   -4.0819   -2.3003 C.2       1 <0>         0.2121
     10 N1          0.8395   -4.9260   -1.4344 N.2       1 <0>        -0.2141
     11 N2          1.0703   -6.2446   -1.8245 N.am      1 <0>        -0.5503
     12 C9          1.7415   -6.2769   -2.9930 C.2       1 <0>         0.5160
     13 O2          2.0982   -7.2686   -3.6052 O.2       1 <0>        -0.5169
     14 C10         1.9514   -4.8735   -3.3839 C.2       1 <0>        -0.0974
     15 N3          2.5604   -4.4215   -4.4634 N.2       1 <0>        -0.0701
     16 N4          3.0517   -5.2501   -5.3214 N.pl3     1 <0>        -0.4642
     17 C11         3.6957   -4.7721   -6.4630 C.ar      1 <0>         0.1605
     18 C12         3.8140   -3.4035   -6.6749 C.ar      1 <0>        -0.1198
     19 C13         4.4519   -2.9340   -7.8058 C.ar      1 <0>        -0.0836
     20 C14         4.9734   -3.8235   -8.7280 C.ar      1 <0>        -0.1189
     21 C15         4.8582   -5.1859   -8.5217 C.ar      1 <0>        -0.0780
     22 C16         4.2261   -5.6638   -7.3894 C.ar      1 <0>        -0.0686
     23 Cl1         4.0881   -7.3744   -7.1272 Cl        1 <0>        -0.0509
     24 H1          1.0053    1.8021    0.0021 H         1 <0>         0.0571
     25 H2         -0.5445    1.7859   -0.8732 H         1 <0>         0.0571
     26 H3         -0.5275    1.7763    0.9067 H         1 <0>         0.1022
     27 H4          1.1332    1.2403   -2.0035 H         1 <0>         0.1327
     28 H5          2.2273    0.1575   -3.9211 H         1 <0>         0.1334
     29 H6          2.3238   -2.2954   -4.0658 H         1 <0>         0.1406
     30 H7          0.2229   -2.5889   -0.3418 H         1 <0>         0.1434
     31 H8          0.7882   -7.0273   -1.3257 H         1 <0>         0.4462
     32 H9          2.9733   -6.2054   -5.1729 H         1 <0>         0.4170
     33 H10         3.4070   -2.7080   -5.9558 H         1 <0>         0.1485
     34 H11         4.5437   -1.8707   -7.9708 H         1 <0>         0.1415
     35 H12         5.4714   -3.4528   -9.6117 H         1 <0>         0.1404
     36 H13         5.2663   -5.8773   -9.2441 H         1 <0>         0.1450
@<TRIPOS>BOND
     1    1    2 1
     2    1   24 1
     3    1   25 1
     4    1   26 1
     5    2    3 1
     6    3    8 ar
     7    3    4 ar
     8    4    5 ar
     9    4   27 1
    10    5    6 ar
    11    5   28 1
    12    6    7 ar
    13    6   29 1
    14    7    8 ar
    15    7    9 1
    16    8   30 1
    17    9   14 1
    18    9   10 2
    19   10   11 1
    20   11   12 am
    21   11   31 1
    22   12   13 2
    23   12   14 1
    24   14   15 2
    25   15   16 1
    26   16   17 1
    27   16   32 1
    28   17   22 ar
    29   17   18 ar
    30   18   19 ar
    31   18   33 1
    32   19   20 ar
    33   19   34 1
    34   20   21 ar
    35   20   35 1
    36   21   22 ar
    37   21   36 1
    38   22   23 1
@<TRIPOS>MOLECULE
ZINC49032788
   37    39     0     0     0
SMALL
USER_CHARGES

@<TRIPOS>ATOM
      1 C1         -0.0173    1.4248    0.0099 C.3       1 <0>         0.0239
      2 O1          0.0021   -0.0041    0.0020 O.3       1 <0>        -0.3136
      3 C2         -1.2000   -0.6373    0.0101 C.ar      1 <0>         0.1516
      4 C3         -2.3737    0.1046    0.0195 C.ar      1 <0>        -0.2145
      5 C4         -3.5952   -0.5347    0.0277 C.ar      1 <0>        -0.0329
      6 C5         -3.6511   -1.9285    0.0261 C.ar      1 <0>        -0.0781
      7 C6         -2.4700   -2.6707    0.0162 C.ar      1 <0>        -0.0402
      8 C7         -1.2520   -2.0249    0.0031 C.ar      1 <0>        -0.1558
      9 C8         -4.9617   -2.6190    0.0354 C.2       1 <0>         0.2216
     10 N1         -6.1365   -2.0488    0.0397 N.2       1 <0>        -0.2273
     11 N2         -7.1598   -2.9958    0.0479 N.am      1 <0>        -0.5511
     12 C9         -6.6452   -4.2418    0.0490 C.2       1 <0>         0.5169
     13 O2         -7.2664   -5.2904    0.0553 O.2       1 <0>        -0.5214
     14 C10        -5.1816   -4.0806    0.0350 C.2       1 <0>        -0.0912
     15 N3         -4.2679   -5.0313    0.0268 N.2       1 <0>        -0.0753
     16 N4         -4.6264   -6.2705    0.0278 N.pl3     1 <0>        -0.4663
     17 C11        -3.6619   -7.2740    0.0192 C.ar      1 <0>         0.1831
     18 C12        -2.3108   -6.9388    0.0153 C.ar      1 <0>        -0.1340
     19 C13        -1.3544   -7.9291    0.0063 C.ar      1 <0>        -0.0380
     20 C14        -1.7413   -9.2723    0.0016 C.ar      1 <0>        -0.0428
     21 C15        -3.0988   -9.6057    0.0059 C.ar      1 <0>        -0.0352
     22 C16        -4.0504   -8.6108    0.0202 C.ar      1 <0>        -0.1456
     23 C17        -0.7490  -10.3047   -0.0082 C.1       1 <0>         0.2503
     24 N5          0.0381  -11.1238   -0.0160 N.1       1 <0>        -0.4087
     25 H1          1.0053    1.8021    0.0021 H         1 <0>         0.1029
     26 H2         -0.5445    1.7859   -0.8732 H         1 <0>         0.0590
     27 H3         -0.5275    1.7763    0.9067 H         1 <0>         0.0590
     28 H4         -2.3297    1.1837    0.0207 H         1 <0>         0.1358
     29 H5         -4.5077    0.0429    0.0357 H         1 <0>         0.1383
     30 H6         -2.5098   -3.7500    0.0153 H         1 <0>         0.1457
     31 H7         -0.3372   -2.5989   -0.0083 H         1 <0>         0.1394
     32 H8         -8.1072   -2.7877    0.0521 H         1 <0>         0.4456
     33 H9         -5.5681   -6.5029    0.0345 H         1 <0>         0.4162
     34 H10        -2.0125   -5.9008    0.0190 H         1 <0>         0.1496
     35 H11        -0.3063   -7.6685    0.0026 H         1 <0>         0.1447
     36 H12        -3.4008  -10.6426    0.0022 H         1 <0>         0.1446
     37 H13        -5.0994   -8.8677    0.0277 H         1 <0>         0.1435
@<TRIPOS>BOND
     1    1    2 1
     2    1   25 1
     3    1   26 1
     4    1   27 1
     5    2    3 1
     6    3    8 ar
     7    3    4 ar
     8    4    5 ar
     9    4   28 1
    10    5    6 ar
    11    5   29 1
    12    6    7 ar
    13    6    9 1
    14    7    8 ar
    15    7   30 1
    16    8   31 1
    17    9   14 1
    18    9   10 2
    19   10   11 1
    20   11   12 am
    21   11   32 1
    22   12   13 2
    23   12   14 1
    24   14   15 2
    25   15   16 1
    26   16   17 1
    27   16   33 1
    28   17   22 ar
    29   17   18 ar
    30   18   19 ar
    31   18   34 1
    32   19   20 ar
    33   19   35 1
    34   20   21 ar
    35   20   23 1
    36   21   22 ar
    37   21   36 1
    38   22   37 1
    39   23   24 3
@<TRIPOS>MOLECULE
ZINC49109272
   35    37     0     0     0
SMALL
USER_CHARGES

@<TRIPOS>ATOM
      1 C1         -0.0173    1.4248    0.0099 C.3       1 <0>         0.0238
      2 O1          0.0021   -0.0041    0.0020 O.3       1 <0>        -0.3133
      3 C2          0.6056   -0.6070   -1.0554 C.ar      1 <0>         0.1521
      4 C3          1.1724    0.1642   -2.0616 C.ar      1 <0>        -0.2144
      5 C4          1.7857   -0.4443   -3.1360 C.ar      1 <0>        -0.0326
      6 C5          1.8364   -1.8363   -3.2117 C.ar      1 <0>        -0.0785
      7 C6          1.2660   -2.6079   -2.1992 C.ar      1 <0>        -0.0402
      8 C7          0.6593   -1.9928   -1.1247 C.ar      1 <0>        -0.1556
      9 C8          2.4940   -2.4936   -4.3649 C.2       1 <0>         0.2220
     10 N1          3.0687   -1.8942   -5.3726 N.2       1 <0>        -0.2265
     11 N2          3.5877   -2.8152   -6.2817 N.am      1 <0>        -0.5507
     12 C9          3.3488   -4.0737   -5.8621 C.2       1 <0>         0.5170
     13 O2          3.6699   -5.1063   -6.4242 O.2       1 <0>        -0.5211
     14 C10         2.6267   -3.9495   -4.5845 C.2       1 <0>        -0.0900
     15 N3          2.1921   -4.9225   -3.8086 N.2       1 <0>        -0.0741
     16 N4          2.3894   -6.1523   -4.1445 N.pl3     1 <0>        -0.4663
     17 C11         1.9303   -7.1803   -3.3248 C.ar      1 <0>         0.1969
     18 C12         1.2498   -6.9009   -2.1397 C.ar      1 <0>        -0.1876
     19 C13         0.8109   -7.9482   -1.3562 C.ar      1 <0>         0.1303
     20 N5          1.0281   -9.1992   -1.7153 N.ar      1 <0>        -0.4945
     21 C14         1.6676   -9.5047   -2.8283 C.ar      1 <0>         0.1339
     22 C15         2.1337   -8.5162   -3.6704 C.ar      1 <0>        -0.2007
     23 H1          1.0053    1.8021    0.0021 H         1 <0>         0.0590
     24 H2         -0.5445    1.7859   -0.8732 H         1 <0>         0.0590
     25 H3         -0.5275    1.7763    0.9067 H         1 <0>         0.1032
     26 H4          1.1325    1.2418   -2.0025 H         1 <0>         0.1362
     27 H5          2.2260    0.1560   -3.9184 H         1 <0>         0.1385
     28 H6          1.3034   -3.6858   -2.2547 H         1 <0>         0.1449
     29 H7          0.2216   -2.5895   -0.3381 H         1 <0>         0.1396
     30 H8          4.0544   -2.5832   -7.0998 H         1 <0>         0.4458
     31 H9          2.8576   -6.3610   -4.9680 H         1 <0>         0.4162
     32 H10         1.0694   -5.8793   -1.8396 H         1 <0>         0.1497
     33 H11         0.2832   -7.7414   -0.4369 H         1 <0>         0.1670
     34 H12         1.8244  -10.5418   -3.0856 H         1 <0>         0.1671
     35 H13         2.6523   -8.7732   -4.5822 H         1 <0>         0.1440
@<TRIPOS>BOND
     1    1    2 1
     2    1   23 1
     3    1   24 1
     4    1   25 1
     5    2    3 1
     6    3    8 ar
     7    3    4 ar
     8    4    5 ar
     9    4   26 1
    10    5    6 ar
    11    5   27 1
    12    6    7 ar
    13    6    9 1
    14    7    8 ar
    15    7   28 1
    16    8   29 1
    17    9   14 1
    18    9   10 2
    19   10   11 1
    20   11   12 am
    21   11   30 1
    22   12   13 2
    23   12   14 1
    24   14   15 2
    25   15   16 1
    26   16   17 1
    27   16   31 1
    28   17   22 ar
    29   17   18 ar
    30   18   19 ar
    31   18   32 1
    32   19   20 ar
    33   19   33 1
    34   20   21 ar
    35   21   22 ar
    36   21   34 1
    37   22   35 1
@<TRIPOS>MOLECULE
ZINC49033897
   36    38     0     0     0
SMALL
USER_CHARGES

@<TRIPOS>ATOM
      1 C1         -0.0173    1.4248    0.0099 C.3       1 <0>         0.0258
      2 O1          0.0021   -0.0041    0.0020 O.3       1 <0>        -0.3136
      3 C2          0.6058   -0.6071   -1.0557 C.ar      1 <0>         0.1601
      4 C3          1.1731    0.1620   -2.0626 C.ar      1 <0>        -0.2193
      5 C4          1.7875   -0.4491   -3.1391 C.ar      1 <0>        -0.0495
      6 C5          1.8396   -1.8272   -3.2174 C.ar      1 <0>        -0.1667
      7 C6          1.2733   -2.6029   -2.2123 C.ar      1 <0>         0.1892
      8 C7          0.6604   -1.9897   -1.1267 C.ar      1 <0>        -0.1795
      9 N1          1.3247   -3.9947   -2.2912 N.pl3     1 <0>        -0.4607
     10 N2          1.8980   -4.5629   -3.2975 N.2       1 <0>        -0.0672
     11 C8          1.9466   -5.8790   -3.3721 C.2       1 <0>        -0.1042
     12 C9          2.5612   -6.6993   -4.4368 C.2       1 <0>         0.2151
     13 N3          2.3822   -7.9521   -4.1152 N.2       1 <0>        -0.2236
     14 N4          1.6912   -8.0722   -2.9102 N.am      1 <0>        -0.5513
     15 C10         1.4063   -6.8533   -2.4100 C.2       1 <0>         0.5170
     16 O2          0.8175   -6.6073   -1.3715 O.2       1 <0>        -0.5224
     17 C11         3.2524   -6.1935   -5.6460 C.ar      1 <0>        -0.0374
     18 C12         3.3750   -4.8209   -5.8596 C.ar      1 <0>        -0.0819
     19 C13         4.0197   -4.3559   -6.9876 C.ar      1 <0>        -0.1243
     20 C14         4.5434   -5.2484   -7.9058 C.ar      1 <0>        -0.0979
     21 C15         4.4244   -6.6112   -7.6996 C.ar      1 <0>        -0.1250
     22 C16         3.7877   -7.0882   -6.5720 C.ar      1 <0>        -0.0772
     23 H1          1.0053    1.8021    0.0021 H         1 <0>         0.0591
     24 H2         -0.5445    1.7859   -0.8732 H         1 <0>         0.0591
     25 H3         -0.5275    1.7763    0.9067 H         1 <0>         0.1038
     26 H4          1.1339    1.2398   -2.0048 H         1 <0>         0.1351
     27 H5          2.2276    0.1521   -3.9210 H         1 <0>         0.1374
     28 H6          2.3201   -2.3022   -4.0599 H         1 <0>         0.1406
     29 H7          0.2234   -2.5895   -0.3421 H         1 <0>         0.1399
     30 H8          0.9294   -4.5352   -1.5895 H         1 <0>         0.4149
     31 H9          1.4534   -8.9131   -2.4893 H         1 <0>         0.4451
     32 H10         2.9660   -4.1233   -5.1438 H         1 <0>         0.1391
     33 H11         4.1153   -3.2932   -7.1541 H         1 <0>         0.1295
     34 H12         5.0468   -4.8798   -8.7873 H         1 <0>         0.1267
     35 H13         4.8346   -7.3031   -8.4202 H         1 <0>         0.1296
     36 H14         3.7000   -8.1523   -6.4095 H         1 <0>         0.1344
@<TRIPOS>BOND
     1    1    2 1
     2    1   23 1
     3    1   24 1
     4    1   25 1
     5    2    3 1
     6    3    8 ar
     7    3    4 ar
     8    4    5 ar
     9    4   26 1
    10    5    6 ar
    11    5   27 1
    12    6    7 ar
    13    6   28 1
    14    7    8 ar
    15    7    9 1
    16    8   29 1
    17    9   10 1
    18    9   30 1
    19   10   11 2
    20   11   15 1
    21   11   12 1
    22   12   13 2
    23   12   17 1
    24   13   14 1
    25   14   15 am
    26   14   31 1
    27   15   16 2
    28   17   22 ar
    29   17   18 ar
    30   18   19 ar
    31   18   32 1
    32   19   20 ar
    33   19   33 1
    34   20   21 ar
    35   20   34 1
    36   21   22 ar
    37   21   35 1
    38   22   36 1
@<TRIPOS>MOLECULE
ZINC49033897
   36    38     0     0     0
SMALL
USER_CHARGES

@<TRIPOS>ATOM
      1 C1         -6.8363    1.7124    0.2628 C.3       1 <0>         0.0271
      2 O1         -6.9801    0.2909    0.2357 O.3       1 <0>        -0.3151
      3 C2         -5.8375   -0.4445    0.2106 C.ar      1 <0>         0.1279
      4 C3         -4.6027    0.1914    0.2177 C.ar      1 <0>        -0.1962
      5 C4         -3.4364   -0.5509    0.1917 C.ar      1 <0>        -0.0806
      6 C5         -3.4909   -1.9291    0.1585 C.ar      1 <0>        -0.1543
      7 C6         -4.7283   -2.5782    0.1516 C.ar      1 <0>         0.1042
      8 C7         -5.9051   -1.8266    0.1836 C.ar      1 <0>        -0.1025
      9 N1         -4.7868   -3.9441    0.1183 N.2       1 <0>        -0.2338
     10 N2         -3.7038   -4.6331   -0.0097 N.2       1 <0>        -0.1586
     11 C8         -3.7693   -5.9753   -0.1442 C.2       1 <0>        -0.1474
     12 C9         -2.6938   -6.8641   -0.1908 C.2       1 <0>         0.3145
     13 N3         -3.1975   -8.1271   -0.3337 N.pl3     1 <0>        -0.4617
     14 H1         -2.6671   -8.9371   -0.3932 H         1 <0>         0.4504
     15 N4         -4.5935   -8.0731   -0.3811 N.am      1 <0>        -0.5185
     16 H2         -5.1837   -8.8367   -0.4779 H         1 <0>         0.4415
     17 C10        -4.9873   -6.7893   -0.2640 C.2       1 <0>         0.5316
     18 O2         -6.1340   -6.3812   -0.2607 O.2       1 <0>        -0.4945
     19 C11        -1.2674   -6.5044   -0.1022 C.ar      1 <0>        -0.0709
     20 C12        -0.8812   -5.1608   -0.0871 C.ar      1 <0>        -0.0608
     21 C13         0.4553   -4.8321   -0.0035 C.ar      1 <0>        -0.1231
     22 C14         1.4136   -5.8284    0.0649 C.ar      1 <0>        -0.0872
     23 C15         1.0392   -7.1608    0.0500 C.ar      1 <0>        -0.1242
     24 C16        -0.2939   -7.5051   -0.0270 C.ar      1 <0>        -0.0908
     25 H3         -7.8221    2.1770    0.2812 H         1 <0>         0.1014
     26 H4         -6.2804    2.0044    1.1538 H         1 <0>         0.0562
     27 H5         -6.2967    2.0400   -0.6258 H         1 <0>         0.0562
     28 H6         -4.5533    1.2699    0.2432 H         1 <0>         0.1306
     29 H7         -2.4795   -0.0501    0.1970 H         1 <0>         0.1282
     30 H8         -2.5780   -2.5057    0.1376 H         1 <0>         0.1325
     31 H9         -6.8647   -2.3222    0.1825 H         1 <0>         0.1423
     32 H10        -1.6278   -4.3823   -0.1412 H         1 <0>         0.1551
     33 H11         0.7552   -3.7947    0.0082 H         1 <0>         0.1345
     34 H12         2.4589   -5.5649    0.1298 H         1 <0>         0.1305
     35 H13         1.7927   -7.9327    0.1030 H         1 <0>         0.1320
     36 H14        -0.5849   -8.5452   -0.0339 H         1 <0>         0.1237
@<TRIPOS>BOND
     1    1    2 1
     2    1   25 1
     3    1   26 1
     4    1   27 1
     5    2    3 1
     6    3    8 ar
     7    3    4 ar
     8    4    5 ar
     9    4   28 1
    10    5    6 ar
    11    5   29 1
    12    6    7 ar
    13    6   30 1
    14    7    8 ar
    15    7    9 1
    16    8   31 1
    17    9   10 2
    18   10   11 1
    19   11   17 1
    20   11   12 2
    21   12   19 1
    22   12   13 1
    23   13   15 1
    24   13   14 1
    25   15   17 am
    26   15   16 1
    27   17   18 2
    28   19   24 ar
    29   19   20 ar
    30   20   21 ar
    31   20   32 1
    32   21   22 ar
    33   21   33 1
    34   22   23 ar
    35   22   34 1
    36   23   24 ar
    37   23   35 1
    38   24   36 1
@<TRIPOS>MOLECULE
ZINC49089610
   40    42     0     0     0
SMALL
USER_CHARGES

@<TRIPOS>ATOM
      1 C1         -0.0173    1.4248    0.0099 C.3       1 <0>         0.0232
      2 O1          0.0021   -0.0041    0.0020 O.3       1 <0>        -0.3023
      3 C2          0.6060   -0.6074   -1.0561 C.ar      1 <0>         0.1243
      4 C3          1.1723    0.1625   -2.0612 C.ar      1 <0>        -0.1783
      5 C4          1.7862   -0.4456   -3.1368 C.ar      1 <0>        -0.0737
      6 C5          1.8388   -1.8371   -3.2150 C.ar      1 <0>        -0.0358
      7 C6          1.2699   -2.6119   -2.2044 C.ar      1 <0>        -0.1316
      8 C7          0.6600   -1.9973   -1.1260 C.ar      1 <0>         0.0959
      9 O2          0.1090   -2.7500   -0.1364 O.3       1 <0>        -0.3037
     10 C8          0.2011   -4.1695   -0.2732 C.3       1 <0>         0.0232
     11 C9          2.4973   -2.4910   -4.3698 C.2       1 <0>         0.2197
     12 N1          2.6114   -3.7767   -4.5693 N.2       1 <0>        -0.2244
     13 N2          3.2885   -4.0467   -5.7579 N.am      1 <0>        -0.5506
     14 C10         3.6369   -2.8975   -6.3702 C.2       1 <0>         0.5156
     15 O3          4.2371   -2.7827   -7.4249 O.2       1 <0>        -0.5179
     16 C11         3.1409   -1.8092   -5.5122 C.2       1 <0>        -0.0973
     17 N3          3.2490   -0.5105   -5.7169 N.2       1 <0>        -0.0720
     18 N4          3.8453   -0.0715   -6.7732 N.pl3     1 <0>        -0.4645
     19 C12         3.9596    1.3020   -6.9898 C.ar      1 <0>         0.1608
     20 C13         3.4367    2.1990   -6.0657 C.ar      1 <0>        -0.1203
     21 C14         3.5516    3.5576   -6.2833 C.ar      1 <0>        -0.0836
     22 C15         4.1862    4.0272   -7.4192 C.ar      1 <0>        -0.1189
     23 C16         4.7076    3.1388   -8.3416 C.ar      1 <0>        -0.0778
     24 C17         4.6021    1.7774   -8.1281 C.ar      1 <0>        -0.0687
     25 Cl1         5.2642    0.6625   -9.2824 Cl        1 <0>        -0.0507
     26 H1          1.0053    1.8021    0.0021 H         1 <0>         0.0579
     27 H2         -0.5445    1.7859   -0.8732 H         1 <0>         0.0579
     28 H3         -0.5275    1.7763    0.9067 H         1 <0>         0.1028
     29 H4          1.1324    1.2401   -2.0020 H         1 <0>         0.1436
     30 H5          2.2258    0.1561   -3.9186 H         1 <0>         0.1438
     31 H6          1.3086   -3.6897   -2.2622 H         1 <0>         0.1481
     32 H7         -0.2766   -4.6486    0.5814 H         1 <0>         0.1026
     33 H8         -0.2998   -4.4794   -1.1904 H         1 <0>         0.0575
     34 H9          1.2499   -4.4632   -0.3150 H         1 <0>         0.0575
     35 H10         3.4814   -4.9352   -6.0960 H         1 <0>         0.4455
     36 H11         4.2141   -0.6964   -7.4170 H         1 <0>         0.4171
     37 H12         2.9407    1.8337   -5.1786 H         1 <0>         0.1480
     38 H13         3.1451    4.2548   -5.5656 H         1 <0>         0.1413
     39 H14         4.2744    5.0906   -7.5862 H         1 <0>         0.1404
     40 H15         5.2018    3.5092   -9.2276 H         1 <0>         0.1450
@<TRIPOS>BOND
     1    1    2 1
     2    1   26 1
     3    1   27 1
     4    1   28 1
     5    2    3 1
     6    3    8 ar
     7    3    4 ar
     8    4    5 ar
     9    4   29 1
    10    5    6 ar
    11    5   30 1
    12    6    7 ar
    13    6   11 1
    14    7    8 ar
    15    7   31 1
    16    8    9 1
    17    9   10 1
    18   10   32 1
    19   10   33 1
    20   10   34 1
    21   11   16 1
    22   11   12 2
    23   12   13 1
    24   13   14 am
    25   13   35 1
    26   14   15 2
    27   14   16 1
    28   16   17 2
    29   17   18 1
    30   18   19 1
    31   18   36 1
    32   19   24 ar
    33   19   20 ar
    34   20   21 ar
    35   20   37 1
    36   21   22 ar
    37   21   38 1
    38   22   23 ar
    39   22   39 1
    40   23   24 ar
    41   23   40 1
    42   24   25 1
@<TRIPOS>MOLECULE
ZINC39647302
   32    34     0     0     0
SMALL
USER_CHARGES

@<TRIPOS>ATOM
      1 C1         -0.0167    1.3792    0.0096 C.ar      1 <0>        -0.0979
      2 C2          1.1686    2.0926    0.0021 C.ar      1 <0>        -0.1249
      3 C3          2.3774    1.4274   -0.0134 C.ar      1 <0>        -0.0774
      4 C4          2.4027    0.0332   -0.0211 C.ar      1 <0>        -0.0372
      5 C5          1.2047   -0.6804   -0.0130 C.ar      1 <0>        -0.0822
      6 C6          0.0021   -0.0041    0.0020 C.ar      1 <0>        -0.1244
      7 C7          3.6975   -0.6871   -0.0382 C.2       1 <0>         0.2154
      8 N1          4.8850   -0.1440   -0.0418 N.2       1 <0>        -0.2250
      9 N2          5.8861   -1.1144   -0.0584 N.am      1 <0>        -0.5512
     10 C8          5.3427   -2.3479   -0.0662 C.2       1 <0>         0.5172
     11 O1          5.9394   -3.4107   -0.0803 O.2       1 <0>        -0.5249
     12 C9          3.8838   -2.1532   -0.0480 C.2       1 <0>        -0.1095
     13 N3          2.9481   -3.0831   -0.0440 N.2       1 <0>        -0.0682
     14 N4          3.2780   -4.3301   -0.0539 N.pl3     1 <0>        -0.4599
     15 C10         2.2885   -5.3134   -0.0497 C.ar      1 <0>         0.1461
     16 C11         0.9465   -4.9513   -0.0407 C.ar      1 <0>        -0.1296
     17 C12        -0.0301   -5.9274   -0.0370 C.ar      1 <0>        -0.0910
     18 C13         0.3255   -7.2640   -0.0423 C.ar      1 <0>        -0.1301
     19 C14         1.6598   -7.6281   -0.0514 C.ar      1 <0>        -0.0879
     20 C15         2.6420   -6.6577   -0.0604 C.ar      1 <0>        -0.1421
     21 H1         -0.9604    1.9042    0.0260 H         1 <0>         0.1269
     22 H2          1.1477    3.1724    0.0081 H         1 <0>         0.1297
     23 H3          3.3020    1.9854   -0.0199 H         1 <0>         0.1344
     24 H4          1.2181   -1.7603   -0.0192 H         1 <0>         0.1385
     25 H5         -0.9264   -0.5557    0.0082 H         1 <0>         0.1295
     26 H6          6.8380   -0.9282   -0.0637 H         1 <0>         0.4448
     27 H7          4.2141   -4.5841   -0.0643 H         1 <0>         0.4138
     28 H8          0.6680   -3.9078   -0.0361 H         1 <0>         0.1382
     29 H9         -1.0730   -5.6469   -0.0296 H         1 <0>         0.1336
     30 H10        -0.4405   -8.0252   -0.0391 H         1 <0>         0.1298
     31 H11         1.9337   -8.6728   -0.0555 H         1 <0>         0.1339
     32 H12         3.6836   -6.9427   -0.0715 H         1 <0>         0.1314
@<TRIPOS>BOND
     1    1    6 ar
     2    1    2 ar
     3    1   21 1
     4    2    3 ar
     5    2   22 1
     6    3    4 ar
     7    3   23 1
     8    4    5 ar
     9    4    7 1
    10    5    6 ar
    11    5   24 1
    12    6   25 1
    13    7   12 1
    14    7    8 2
    15    8    9 1
    16    9   10 am
    17    9   26 1
    18   10   11 2
    19   10   12 1
    20   12   13 2
    21   13   14 1
    22   14   15 1
    23   14   27 1
    24   15   20 ar
    25   15   16 ar
    26   16   17 ar
    27   16   28 1
    28   17   18 ar
    29   17   29 1
    30   18   19 ar
    31   18   30 1
    32   19   20 ar
    33   19   31 1
    34   20   32 1
@<TRIPOS>MOLECULE
ZINC49034254
   32    34     0     0     0
SMALL
USER_CHARGES

@<TRIPOS>ATOM
      1 C1         -0.0167    1.3792    0.0096 C.ar      1 <0>        -0.0974
      2 C2          1.1686    2.0926    0.0021 C.ar      1 <0>        -0.1245
      3 C3          2.3774    1.4274   -0.0135 C.ar      1 <0>        -0.0769
      4 C4          2.4027    0.0332   -0.0212 C.ar      1 <0>        -0.0378
      5 C5          1.2047   -0.6804   -0.0131 C.ar      1 <0>        -0.0823
      6 C6          0.0021   -0.0041    0.0020 C.ar      1 <0>        -0.1242
      7 C7          3.6975   -0.6871   -0.0384 C.2       1 <0>         0.2147
      8 N1          4.8850   -0.1440   -0.0421 N.2       1 <0>        -0.2221
      9 N2          5.8861   -1.1144   -0.0587 N.am      1 <0>        -0.5508
     10 C8          5.3427   -2.3479   -0.0665 C.2       1 <0>         0.5170
     11 O1          5.9394   -3.4107   -0.0805 O.2       1 <0>        -0.5219
     12 C9          3.8838   -2.1532   -0.0482 C.2       1 <0>        -0.1000
     13 N3          2.9481   -3.0831   -0.0438 N.2       1 <0>        -0.0701
     14 N4          3.2780   -4.3301   -0.0539 N.pl3     1 <0>        -0.4629
     15 C10         2.2885   -5.3134   -0.0492 C.ar      1 <0>         0.1647
     16 C11         0.9462   -4.9511   -0.0395 C.ar      1 <0>        -0.1267
     17 C12        -0.0308   -5.9265   -0.0349 C.ar      1 <0>        -0.0756
     18 C13         0.3238   -7.2634   -0.0394 C.ar      1 <0>        -0.1217
     19 C14         1.6588   -7.6285   -0.0491 C.ar      1 <0>        -0.0049
     20 C15         2.6421   -6.6572   -0.0601 C.ar      1 <0>        -0.1379
     21 Cl1         2.0985   -9.3079   -0.0542 Cl        1 <0>        -0.0533
     22 H1         -0.9604    1.9042    0.0260 H         1 <0>         0.1271
     23 H2          1.1477    3.1724    0.0082 H         1 <0>         0.1299
     24 H3          3.3020    1.9854   -0.0200 H         1 <0>         0.1346
     25 H4          1.2181   -1.7603   -0.0194 H         1 <0>         0.1382
     26 H5         -0.9264   -0.5557    0.0083 H         1 <0>         0.1298
     27 H6          6.8380   -0.9282   -0.0643 H         1 <0>         0.4457
     28 H7          4.2141   -4.5841   -0.0647 H         1 <0>         0.4154
     29 H8          0.6681   -3.9075   -0.0352 H         1 <0>         0.1452
     30 H9         -1.0735   -5.6453   -0.0273 H         1 <0>         0.1449
     31 H10        -0.4428   -8.0241   -0.0351 H         1 <0>         0.1414
     32 H11         3.6837   -6.9423   -0.0725 H         1 <0>         0.1425
@<TRIPOS>BOND
     1    1    6 ar
     2    1    2 ar
     3    1   22 1
     4    2    3 ar
     5    2   23 1
     6    3    4 ar
     7    3   24 1
     8    4    5 ar
     9    4    7 1
    10    5    6 ar
    11    5   25 1
    12    6   26 1
    13    7   12 1
    14    7    8 2
    15    8    9 1
    16    9   10 am
    17    9   27 1
    18   10   11 2
    19   10   12 1
    20   12   13 2
    21   13   14 1
    22   14   15 1
    23   14   28 1
    24   15   20 ar
    25   15   16 ar
    26   16   17 ar
    27   16   29 1
    28   17   18 ar
    29   17   30 1
    30   18   19 ar
    31   18   31 1
    32   19   20 ar
    33   19   21 1
    34   20   32 1
@<TRIPOS>MOLECULE
ZINC33848432
   32    34     0     0     0
SMALL
USER_CHARGES

@<TRIPOS>ATOM
      1 C1         -0.0167    1.3792    0.0096 C.ar      1 <0>        -0.0973
      2 C2          1.1686    2.0926    0.0021 C.ar      1 <0>        -0.1245
      3 C3          2.3774    1.4274   -0.0134 C.ar      1 <0>        -0.0770
      4 C4          2.4027    0.0332   -0.0211 C.ar      1 <0>        -0.0379
      5 C5          1.2047   -0.6804   -0.0130 C.ar      1 <0>        -0.0823
      6 C6          0.0021   -0.0041    0.0020 C.ar      1 <0>        -0.1242
      7 C7          3.6975   -0.6872   -0.0382 C.2       1 <0>         0.2147
      8 N1          4.8850   -0.1440   -0.0418 N.2       1 <0>        -0.2225
      9 N2          5.8860   -1.1144   -0.0588 N.am      1 <0>        -0.5509
     10 C8          5.3426   -2.3479   -0.0667 C.2       1 <0>         0.5173
     11 O1          5.9392   -3.4107   -0.0809 O.2       1 <0>        -0.5227
     12 C9          3.8838   -2.1532   -0.0480 C.2       1 <0>        -0.1006
     13 N3          2.9480   -3.0831   -0.0430 N.2       1 <0>        -0.0712
     14 N4          3.2778   -4.3301   -0.0530 N.pl3     1 <0>        -0.4626
     15 C10         2.2882   -5.3135   -0.0478 C.ar      1 <0>         0.1552
     16 C11         0.9462   -4.9511   -0.0374 C.ar      1 <0>        -0.1182
     17 C12        -0.0307   -5.9267   -0.0322 C.ar      1 <0>        -0.0797
     18 C13         0.3249   -7.2644   -0.0368 C.ar      1 <0>        -0.0495
     19 C14         1.6603   -7.6285   -0.0466 C.ar      1 <0>        -0.0768
     20 C15         2.6420   -6.6578   -0.0586 C.ar      1 <0>        -0.1304
     21 Cl1        -0.9065   -8.4880   -0.0296 Cl        1 <0>        -0.0598
     22 H1         -0.9604    1.9042    0.0260 H         1 <0>         0.1272
     23 H2          1.1477    3.1724    0.0081 H         1 <0>         0.1299
     24 H3          3.3020    1.9854   -0.0199 H         1 <0>         0.1345
     25 H4          1.2181   -1.7603   -0.0192 H         1 <0>         0.1380
     26 H5         -0.9264   -0.5557    0.0082 H         1 <0>         0.1298
     27 H6          6.8380   -0.9284   -0.0646 H         1 <0>         0.4456
     28 H7          4.2139   -4.5841   -0.0643 H         1 <0>         0.4153
     29 H8          0.6681   -3.9076   -0.0331 H         1 <0>         0.1479
     30 H9         -1.0735   -5.6458   -0.0241 H         1 <0>         0.1450
     31 H10         1.9346   -8.6731   -0.0495 H         1 <0>         0.1453
     32 H11         3.6837   -6.9425   -0.0715 H         1 <0>         0.1420
@<TRIPOS>BOND
     1    1    6 ar
     2    1    2 ar
     3    1   22 1
     4    2    3 ar
     5    2   23 1
     6    3    4 ar
     7    3   24 1
     8    4    5 ar
     9    4    7 1
    10    5    6 ar
    11    5   25 1
    12    6   26 1
    13    7   12 1
    14    7    8 2
    15    8    9 1
    16    9   10 am
    17    9   27 1
    18   10   11 2
    19   10   12 1
    20   12   13 2
    21   13   14 1
    22   14   15 1
    23   14   28 1
    24   15   20 ar
    25   15   16 ar
    26   16   17 ar
    27   16   29 1
    28   17   18 ar
    29   17   30 1
    30   18   19 ar
    31   18   21 1
    32   19   20 ar
    33   19   31 1
    34   20   32 1
@<TRIPOS>MOLECULE
ZINC49089294
   34    36     0     0     0
SMALL
USER_CHARGES

@<TRIPOS>ATOM
      1 C1         -0.0173    1.4248    0.0099 C.3       1 <0>         0.0283
      2 O1          0.0021   -0.0041    0.0020 O.3       1 <0>        -0.3199
      3 C2         -1.2003   -0.6375    0.0101 C.ar      1 <0>         0.0889
      4 C3         -2.3742    0.1032    0.0195 C.ar      1 <0>        -0.1744
      5 C4         -3.5956   -0.5386    0.0277 C.ar      1 <0>        -0.1239
      6 C5         -3.6502   -1.9281    0.0261 C.ar      1 <0>         0.1498
      7 C6         -2.4735   -2.6689    0.0162 C.ar      1 <0>        -0.1001
      8 C7         -1.2534   -2.0245    0.0032 C.ar      1 <0>        -0.1192
      9 N1         -4.8841   -2.5780    0.0348 N.pl3     1 <0>        -0.4850
     10 N2         -4.9341   -3.8670    0.0334 N.2       1 <0>        -0.0949
     11 C8         -6.1071   -4.4850    0.0417 C.2       1 <0>        -0.0456
     12 C9         -6.3769   -5.9371    0.0477 C.2       1 <0>        -0.0363
     13 N3         -7.6927   -6.0506    0.0552 N.2       1 <0>        -0.1647
     14 N4         -8.2663   -4.9065    0.0547 N.2       1 <0>        -0.4473
     15 C10        -7.4102   -3.9072    0.0532 C.2       1 <0>         0.3765
     16 O2         -7.7097   -2.5834    0.0585 O.3       1 <0>        -0.6627
     17 C11        -5.3839   -7.0321    0.0453 C.ar      1 <0>         0.2508
     18 C12        -5.8164   -8.3596    0.0461 C.ar      1 <0>        -0.1645
     19 C13        -4.8749   -9.3726    0.0438 C.ar      1 <0>        -0.0763
     20 C14        -3.5297   -9.0280    0.0408 C.ar      1 <0>        -0.2060
     21 C15        -3.1708   -7.6929    0.0401 C.ar      1 <0>         0.1024
     22 N5         -4.0867   -6.7457    0.0369 N.ar      1 <0>        -0.4713
     23 H1          1.0053    1.8021    0.0021 H         1 <0>         0.0959
     24 H2         -0.5445    1.7859   -0.8732 H         1 <0>         0.0532
     25 H3         -0.5275    1.7763    0.9067 H         1 <0>         0.0532
     26 H4         -2.3315    1.1824    0.0207 H         1 <0>         0.1305
     27 H5         -4.5089    0.0379    0.0357 H         1 <0>         0.1301
     28 H6         -2.5146   -3.7481    0.0150 H         1 <0>         0.1516
     29 H7         -0.3394   -2.5997   -0.0087 H         1 <0>         0.1339
     30 H8         -5.7046   -2.0609    0.0421 H         1 <0>         0.4100
     31 H9         -6.8711   -8.5920    0.0488 H         1 <0>         0.1384
     32 H10        -5.1792  -10.4088    0.0447 H         1 <0>         0.1269
     33 H11        -2.7706   -9.7962    0.0393 H         1 <0>         0.1238
     34 H12        -2.1252   -7.4226    0.0382 H         1 <0>         0.1478
@<TRIPOS>BOND
     1    1    2 1
     2    1   23 1
     3    1   24 1
     4    1   25 1
     5    2    3 1
     6    3    8 ar
     7    3    4 ar
     8    4    5 ar
     9    4   26 1
    10    5    6 ar
    11    5   27 1
    12    6    7 ar
    13    6    9 1
    14    7    8 ar
    15    7   28 1
    16    8   29 1
    17    9   10 1
    18    9   30 1
    19   10   11 2
    20   11   15 1
    21   11   12 1
    22   12   13 2
    23   12   17 1
    24   13   14 1
    25   14   15 2
    26   15   16 1
    27   17   22 ar
    28   17   18 ar
    29   18   19 ar
    30   18   31 1
    31   19   20 ar
    32   19   32 1
    33   20   21 ar
    34   20   33 1
    35   21   22 ar
    36   21   34 1
@<TRIPOS>MOLECULE
ZINC49089294
   35    37     0     0     0
SMALL
USER_CHARGES

@<TRIPOS>ATOM
      1 C1         -0.0173    1.4248    0.0099 C.3       1 <0>         0.0247
      2 O1          0.0021   -0.0041    0.0020 O.3       1 <0>        -0.3140
      3 C2          0.6259   -0.6185    1.0417 C.ar      1 <0>         0.1198
      4 C3          1.2020    0.1403    2.0509 C.ar      1 <0>        -0.1811
      5 C4          1.8357   -0.4823    3.1070 C.ar      1 <0>        -0.0988
      6 C5          1.8964   -1.8702    3.1599 C.ar      1 <0>         0.1071
      7 C6          1.3186   -2.6291    2.1486 C.ar      1 <0>        -0.0808
      8 C7          0.6813   -2.0042    1.0960 C.ar      1 <0>        -0.1251
      9 N1          2.5374   -2.5010    4.2271 N.pl3     1 <0>        -0.4546
     10 N2          2.5934   -3.7888    4.2757 N.2       1 <0>        -0.0307
     11 C8          3.1995   -4.3854    5.2849 C.2       1 <0>        -0.1218
     12 C9          3.3667   -5.8371    5.5047 C.2       1 <0>         0.2211
     13 N3          4.0247   -5.9882    6.6229 N.2       1 <0>        -0.2165
     14 N4          4.3300   -4.7567    7.2010 N.am      1 <0>        -0.5489
     15 C10         3.8627   -3.7509    6.4349 C.2       1 <0>         0.5167
     16 O2          3.9661   -2.5560    6.6525 O.2       1 <0>        -0.5274
     17 C11         2.8781   -6.9205    4.6207 C.ar      1 <0>         0.1802
     18 C12         3.1087   -8.2518    4.9658 C.ar      1 <0>        -0.1290
     19 C13         2.6457   -9.2527    4.1302 C.ar      1 <0>        -0.0774
     20 C14         1.9663   -8.8902    2.9751 C.ar      1 <0>        -0.1555
     21 C15         1.7727   -7.5504    2.6940 C.ar      1 <0>         0.1033
     22 N5          2.2194   -6.6166    3.5091 N.ar      1 <0>        -0.4449
     23 H1          1.0053    1.8021    0.0021 H         1 <0>         0.0573
     24 H2         -0.5445    1.7859   -0.8732 H         1 <0>         0.1027
     25 H3         -0.5275    1.7763    0.9067 H         1 <0>         0.0573
     26 H4          1.1547    1.2185    2.0096 H         1 <0>         0.1384
     27 H5          2.2845    0.1083    3.8919 H         1 <0>         0.1342
     28 H6          1.3655   -3.7073    2.1884 H         1 <0>         0.1540
     29 H7          0.2287   -2.5936    0.3124 H         1 <0>         0.1419
     30 H8          2.9407   -1.9710    4.9324 H         1 <0>         0.4101
     31 H9          3.6414   -8.4982    5.8724 H         1 <0>         0.1462
     32 H10         2.8095  -10.2927    4.3709 H         1 <0>         0.1420
     33 H11         1.5928   -9.6478    2.3021 H         1 <0>         0.1405
     34 H12         1.2448   -7.2655    1.7959 H         1 <0>         0.1640
     35 H13         4.8134   -4.6402    8.0339 H         1 <0>         0.4449
@<TRIPOS>BOND
     1    1    2 1
     2    1   23 1
     3    1   24 1
     4    1   25 1
     5    2    3 1
     6    3    8 ar
     7    3    4 ar
     8    4    5 ar
     9    4   26 1
    10    5    6 ar
    11    5   27 1
    12    6    7 ar
    13    6    9 1
    14    7    8 ar
    15    7   28 1
    16    8   29 1
    17    9   10 1
    18    9   30 1
    19   10   11 2
    20   11   15 1
    21   11   12 1
    22   12   13 2
    23   12   17 1
    24   13   14 1
    25   14   15 am
    26   14   35 1
    27   15   16 2
    28   17   22 ar
    29   17   18 ar
    30   18   19 ar
    31   18   31 1
    32   19   20 ar
    33   19   32 1
    34   20   21 ar
    35   20   33 1
    36   21   22 ar
    37   21   34 1
@<TRIPOS>MOLECULE
ZINC49034809
   34    36     0     0     0
SMALL
USER_CHARGES

@<TRIPOS>ATOM
      1 C1         -0.0173    1.4248    0.0099 C.3       1 <0>         0.0279
      2 O1          0.0021   -0.0041    0.0020 O.3       1 <0>        -0.3190
      3 C2         -1.2003   -0.6375    0.0101 C.ar      1 <0>         0.0912
      4 C3         -2.3742    0.1032    0.0195 C.ar      1 <0>        -0.1729
      5 C4         -3.5957   -0.5387    0.0277 C.ar      1 <0>        -0.1217
      6 C5         -3.6502   -1.9281    0.0261 C.ar      1 <0>         0.1471
      7 C6         -2.4736   -2.6689    0.0162 C.ar      1 <0>        -0.1033
      8 C7         -1.2535   -2.0245    0.0032 C.ar      1 <0>        -0.1167
      9 N1         -4.8842   -2.5781    0.0348 N.pl3     1 <0>        -0.4808
     10 N2         -4.9342   -3.8671    0.0334 N.2       1 <0>        -0.1309
     11 C8         -6.1068   -4.4848    0.0417 C.2       1 <0>        -0.0415
     12 C9         -6.3769   -5.9369    0.0477 C.2       1 <0>        -0.0399
     13 N3         -7.6921   -6.0498    0.0557 N.2       1 <0>        -0.1687
     14 N4         -8.2658   -4.9058    0.0555 N.2       1 <0>        -0.4491
     15 C10        -7.4109   -3.9069    0.0533 C.2       1 <0>         0.3769
     16 O2         -7.7109   -2.5829    0.0581 O.3       1 <0>        -0.6597
     17 C11        -5.3834   -7.0330    0.0453 C.ar      1 <0>        -0.0032
     18 C12        -5.7987   -8.3700    0.0461 C.ar      1 <0>        -0.0762
     19 C13        -4.8298   -9.3575    0.0438 C.ar      1 <0>        -0.1695
     20 C14        -3.4943   -8.9961    0.0409 C.ar      1 <0>         0.0639
     21 N5         -3.1321   -7.7277    0.0403 N.ar      1 <0>        -0.4826
     22 C15        -4.0167   -6.7518    0.0365 C.ar      1 <0>         0.0927
     23 H1          1.0053    1.8021    0.0021 H         1 <0>         0.0967
     24 H2         -0.5445    1.7859   -0.8732 H         1 <0>         0.0536
     25 H3         -0.5275    1.7763    0.9067 H         1 <0>         0.0536
     26 H4         -2.3315    1.1824    0.0207 H         1 <0>         0.1316
     27 H5         -4.5089    0.0378    0.0357 H         1 <0>         0.1312
     28 H6         -2.5146   -3.7481    0.0150 H         1 <0>         0.1450
     29 H7         -0.3394   -2.5996   -0.0087 H         1 <0>         0.1360
     30 H8         -5.7048   -2.0609    0.0421 H         1 <0>         0.4137
     31 H9         -6.8484   -8.6239    0.0487 H         1 <0>         0.1380
     32 H10        -5.1130  -10.3998    0.0446 H         1 <0>         0.1284
     33 H11        -2.7359   -9.7650    0.0395 H         1 <0>         0.1462
     34 H12        -3.6813   -5.7252    0.0314 H         1 <0>         0.1621
@<TRIPOS>BOND
     1    1    2 1
     2    1   23 1
     3    1   24 1
     4    1   25 1
     5    2    3 1
     6    3    8 ar
     7    3    4 ar
     8    4    5 ar
     9    4   26 1
    10    5    6 ar
    11    5   27 1
    12    6    7 ar
    13    6    9 1
    14    7    8 ar
    15    7   28 1
    16    8   29 1
    17    9   10 1
    18    9   30 1
    19   10   11 2
    20   11   15 1
    21   11   12 1
    22   12   13 2
    23   12   17 1
    24   13   14 1
    25   14   15 2
    26   15   16 1
    27   17   22 ar
    28   17   18 ar
    29   18   19 ar
    30   18   31 1
    31   19   20 ar
    32   19   32 1
    33   20   21 ar
    34   20   33 1
    35   21   22 ar
    36   22   34 1
@<TRIPOS>MOLECULE
ZINC49034809
   35    37     0     0     0
SMALL
USER_CHARGES

@<TRIPOS>ATOM
      1 C1         -0.0173    1.4248    0.0099 C.3       1 <0>         0.0242
      2 O1          0.0021   -0.0041    0.0020 O.3       1 <0>        -0.3128
      3 C2          0.6259   -0.6185    1.0417 C.ar      1 <0>         0.1225
      4 C3          1.2020    0.1403    2.0509 C.ar      1 <0>        -0.1795
      5 C4          1.8357   -0.4824    3.1070 C.ar      1 <0>        -0.0962
      6 C5          1.8964   -1.8702    3.1599 C.ar      1 <0>         0.1035
      7 C6          1.3186   -2.6291    2.1486 C.ar      1 <0>        -0.0839
      8 C7          0.6813   -2.0042    1.0960 C.ar      1 <0>        -0.1223
      9 N1          2.5374   -2.5010    4.2272 N.pl3     1 <0>        -0.4488
     10 N2          2.5935   -3.7889    4.2757 N.2       1 <0>        -0.0686
     11 C8          3.1995   -4.3854    5.2849 C.2       1 <0>        -0.1182
     12 C9          3.3667   -5.8370    5.5047 C.2       1 <0>         0.2170
     13 N3          4.0245   -5.9882    6.6227 N.2       1 <0>        -0.2224
     14 N4          4.3300   -4.7568    7.2010 N.am      1 <0>        -0.5500
     15 C10         3.8627   -3.7508    6.4350 C.2       1 <0>         0.5189
     16 O2          3.9662   -2.5559    6.6527 O.2       1 <0>        -0.5246
     17 C11         2.8778   -6.9209    4.6203 C.ar      1 <0>        -0.0875
     18 C12         3.0996   -8.2619    4.9501 C.ar      1 <0>        -0.0354
     19 C13         2.6225   -9.2364    4.0912 C.ar      1 <0>        -0.1752
     20 C14         1.9479   -8.8568    2.9447 C.ar      1 <0>         0.1164
     21 N5          1.7540   -7.5837    2.6595 N.ar      1 <0>        -0.4823
     22 C15         2.1842   -6.6208    3.4488 C.ar      1 <0>         0.1388
     23 H1          1.0053    1.8021    0.0021 H         1 <0>         0.0578
     24 H2         -0.5445    1.7859   -0.8732 H         1 <0>         0.1035
     25 H3         -0.5275    1.7763    0.9067 H         1 <0>         0.0577
     26 H4          1.1547    1.2185    2.0096 H         1 <0>         0.1397
     27 H5          2.2845    0.1083    3.8919 H         1 <0>         0.1355
     28 H6          1.3655   -3.7073    2.1884 H         1 <0>         0.1470
     29 H7          0.2287   -2.5936    0.3124 H         1 <0>         0.1442
     30 H8          2.9407   -1.9711    4.9324 H         1 <0>         0.4143
     31 H9          3.6300   -8.5300    5.8519 H         1 <0>         0.1465
     32 H10         2.7756  -10.2822    4.3133 H         1 <0>         0.1437
     33 H11         1.5742   -9.6149    2.2724 H         1 <0>         0.1621
     34 H12         2.0021   -5.5898    3.1837 H         1 <0>         0.1691
     35 H13         4.8138   -4.6405    8.0336 H         1 <0>         0.4452
@<TRIPOS>BOND
     1    1    2 1
     2    1   23 1
     3    1   24 1
     4    1   25 1
     5    2    3 1
     6    3    8 ar
     7    3    4 ar
     8    4    5 ar
     9    4   26 1
    10    5    6 ar
    11    5   27 1
    12    6    7 ar
    13    6    9 1
    14    7    8 ar
    15    7   28 1
    16    8   29 1
    17    9   10 1
    18    9   30 1
    19   10   11 2
    20   11   15 1
    21   11   12 1
    22   12   13 2
    23   12   17 1
    24   13   14 1
    25   14   15 am
    26   14   35 1
    27   15   16 2
    28   17   22 ar
    29   17   18 ar
    30   18   19 ar
    31   18   31 1
    32   19   20 ar
    33   19   32 1
    34   20   21 ar
    35   20   33 1
    36   21   22 ar
    37   22   34 1
@<TRIPOS>MOLECULE
ZINC49109881
   34    36     0     0     0
SMALL
USER_CHARGES

@<TRIPOS>ATOM
      1 C1         -0.0173    1.4248    0.0099 C.3       1 <0>         0.0278
      2 O1          0.0021   -0.0041    0.0020 O.3       1 <0>        -0.3190
      3 C2          0.6058   -0.6071   -1.0557 C.ar      1 <0>         0.0914
      4 C3          1.1727    0.1628   -2.0620 C.ar      1 <0>        -0.1723
      5 C4          1.7860   -0.4482   -3.1365 C.ar      1 <0>        -0.1215
      6 C5          1.8359   -1.8359   -3.2110 C.ar      1 <0>         0.1476
      7 C6          1.2677   -2.6059   -2.2022 C.ar      1 <0>        -0.1043
      8 C7          0.6600   -1.9924   -1.1260 C.ar      1 <0>        -0.1174
      9 N1          2.4551   -2.4547   -4.2966 N.pl3     1 <0>        -0.4815
     10 N2          2.5011   -3.7420   -4.3651 N.2       1 <0>        -0.1285
     11 C8          3.0897   -4.3304   -5.3973 C.2       1 <0>        -0.0405
     12 C9          3.2416   -5.7752   -5.6631 C.2       1 <0>        -0.0511
     13 N3          3.8945   -5.8557   -6.8081 N.2       1 <0>        -0.1599
     14 N4          4.1641   -4.6976   -7.2816 N.2       1 <0>        -0.4472
     15 C10         3.7222   -3.7200   -6.5196 C.2       1 <0>         0.3779
     16 O2          3.8475   -2.3892   -6.7548 O.3       1 <0>        -0.6571
     17 C11         2.7637   -6.8951   -4.8243 C.ar      1 <0>         0.0870
     18 C12         2.0752   -6.6558   -3.6286 C.ar      1 <0>        -0.1752
     19 C13         1.6474   -7.7299   -2.8774 C.ar      1 <0>         0.0934
     20 N5          1.8794   -8.9680   -3.2713 N.ar      1 <0>        -0.5092
     21 C14         2.5242   -9.2377   -4.3908 C.ar      1 <0>         0.0933
     22 C15         2.9818   -8.2245   -5.2063 C.ar      1 <0>        -0.1692
     23 H1          1.0053    1.8021    0.0021 H         1 <0>         0.0538
     24 H2         -0.5445    1.7859   -0.8732 H         1 <0>         0.0538
     25 H3         -0.5275    1.7763    0.9067 H         1 <0>         0.0970
     26 H4          1.1335    1.2405   -2.0042 H         1 <0>         0.1319
     27 H5          2.2267    0.1510   -3.9195 H         1 <0>         0.1313
     28 H6          1.3055   -3.6838   -2.2590 H         1 <0>         0.1441
     29 H7          0.2224   -2.5902   -0.3402 H         1 <0>         0.1358
     30 H8          2.8511   -1.9171   -5.0002 H         1 <0>         0.4134
     31 H9          1.8825   -5.6453   -3.2997 H         1 <0>         0.1398
     32 H10         1.1156   -7.5557   -1.9537 H         1 <0>         0.1481
     33 H11         2.6920  -10.2663   -4.6741 H         1 <0>         0.1491
     34 H12         3.5046   -8.4527   -6.1233 H         1 <0>         0.1375
@<TRIPOS>BOND
     1    1    2 1
     2    1   23 1
     3    1   24 1
     4    1   25 1
     5    2    3 1
     6    3    8 ar
     7    3    4 ar
     8    4    5 ar
     9    4   26 1
    10    5    6 ar
    11    5   27 1
    12    6    7 ar
    13    6    9 1
    14    7    8 ar
    15    7   28 1
    16    8   29 1
    17    9   10 1
    18    9   30 1
    19   10   11 2
    20   11   15 1
    21   11   12 1
    22   12   13 2
    23   12   17 1
    24   13   14 1
    25   14   15 2
    26   15   16 1
    27   17   22 ar
    28   17   18 ar
    29   18   19 ar
    30   18   31 1
    31   19   20 ar
    32   19   32 1
    33   20   21 ar
    34   21   22 ar
    35   21   33 1
    36   22   34 1
@<TRIPOS>MOLECULE
ZINC49109881
   35    37     0     0     0
SMALL
USER_CHARGES

@<TRIPOS>ATOM
      1 C1         -0.0173    1.4248    0.0099 C.3       1 <0>         0.0241
      2 O1          0.0021   -0.0041    0.0020 O.3       1 <0>        -0.3128
      3 C2         -1.2005   -0.6376    0.0101 C.ar      1 <0>         0.1228
      4 C3         -2.3742    0.1030    0.0196 C.ar      1 <0>        -0.1788
      5 C4         -3.5958   -0.5391    0.0282 C.ar      1 <0>        -0.0960
      6 C5         -3.6504   -1.9282    0.0270 C.ar      1 <0>         0.1039
      7 C6         -2.4740   -2.6688    0.0171 C.ar      1 <0>        -0.0849
      8 C7         -1.2537   -2.0244    0.0032 C.ar      1 <0>        -0.1232
      9 N1         -4.8851   -2.5786    0.0362 N.pl3     1 <0>        -0.4494
     10 N2         -4.9351   -3.8676    0.0351 N.2       1 <0>        -0.0656
     11 C8         -6.1027   -4.4827    0.0438 C.2       1 <0>        -0.1177
     12 C9         -6.3540   -5.9389    0.0502 C.2       1 <0>         0.2066
     13 N3         -7.6488   -6.1104    0.0586 N.2       1 <0>        -0.2116
     14 N4         -8.3213   -4.8890    0.0586 N.am      1 <0>        -0.5492
     15 C10        -7.4399   -3.8691    0.0559 C.2       1 <0>         0.5187
     16 O2         -7.6987   -2.6779    0.0595 O.2       1 <0>        -0.5233
     17 C11        -5.3272   -7.0068    0.0470 C.ar      1 <0>         0.0136
     18 C12        -3.9640   -6.6930    0.0431 C.ar      1 <0>        -0.1375
     19 C13        -3.0416   -7.7186    0.0402 C.ar      1 <0>         0.0999
     20 N5         -3.4304   -8.9794    0.0407 N.ar      1 <0>        -0.4735
     21 C14        -4.7054   -9.3185    0.0443 C.ar      1 <0>         0.0999
     22 C15        -5.6941   -8.3566    0.0537 C.ar      1 <0>        -0.1345
     23 H1          1.0053    1.8021    0.0021 H         1 <0>         0.1039
     24 H2         -0.5445    1.7859   -0.8732 H         1 <0>         0.0579
     25 H3         -0.5275    1.7763    0.9067 H         1 <0>         0.0580
     26 H4         -2.3316    1.1821    0.0205 H         1 <0>         0.1400
     27 H5         -4.5091    0.0374    0.0363 H         1 <0>         0.1356
     28 H6         -2.5151   -3.7480    0.0161 H         1 <0>         0.1460
     29 H7         -0.3396   -2.5996   -0.0090 H         1 <0>         0.1440
     30 H8         -5.7057   -2.0614    0.0435 H         1 <0>         0.4141
     31 H9         -3.6386   -5.6632    0.0419 H         1 <0>         0.1493
     32 H10        -1.9868   -7.4864    0.0371 H         1 <0>         0.1633
     33 H11        -4.9788  -10.3634    0.0446 H         1 <0>         0.1634
     34 H12        -6.7358   -8.6414    0.0618 H         1 <0>         0.1469
     35 H13        -9.2859   -4.7876    0.0637 H         1 <0>         0.4460
@<TRIPOS>BOND
     1    1    2 1
     2    1   23 1
     3    1   24 1
     4    1   25 1
     5    2    3 1
     6    3    8 ar
     7    3    4 ar
     8    4    5 ar
     9    4   26 1
    10    5    6 ar
    11    5   27 1
    12    6    7 ar
    13    6    9 1
    14    7    8 ar
    15    7   28 1
    16    8   29 1
    17    9   10 1
    18    9   30 1
    19   10   11 2
    20   11   15 1
    21   11   12 1
    22   12   13 2
    23   12   17 1
    24   13   14 1
    25   14   15 am
    26   14   35 1
    27   15   16 2
    28   17   22 ar
    29   17   18 ar
    30   18   19 ar
    31   18   31 1
    32   19   20 ar
    33   19   32 1
    34   20   21 ar
    35   21   22 ar
    36   21   33 1
    37   22   34 1
@<TRIPOS>MOLECULE
ZINC49035123
   40    42     0     0     0
SMALL
USER_CHARGES

@<TRIPOS>ATOM
      1 C1         -0.0173    1.4248    0.0099 C.3       1 <0>         0.0243
      2 O1          0.0021   -0.0041    0.0020 O.3       1 <0>        -0.3134
      3 C2          0.6259   -0.6185    1.0417 C.ar      1 <0>         0.1208
      4 C3          1.2021    0.1403    2.0509 C.ar      1 <0>        -0.1786
      5 C4          1.8358   -0.4824    3.1070 C.ar      1 <0>        -0.0976
      6 C5          1.8968   -1.8702    3.1597 C.ar      1 <0>         0.1072
      7 C6          1.3194   -2.6291    2.1482 C.ar      1 <0>        -0.0859
      8 C7          0.6813   -2.0042    1.0960 C.ar      1 <0>        -0.1232
      9 N1          2.5378   -2.5010    4.2269 N.pl3     1 <0>        -0.4535
     10 N2          2.5942   -3.7888    4.2753 N.2       1 <0>        -0.0664
     11 C8          3.2002   -4.3854    5.2845 C.2       1 <0>        -0.1135
     12 C9          3.3677   -5.8370    5.5041 C.2       1 <0>         0.2138
     13 N3          4.0254   -5.9882    6.6221 N.2       1 <0>        -0.2200
     14 N4          4.3305   -4.7568    7.2007 N.am      1 <0>        -0.5507
     15 C10         3.8631   -3.7508    6.4348 C.2       1 <0>         0.5178
     16 O2          3.9665   -2.5559    6.6526 O.2       1 <0>        -0.5262
     17 C11         2.8797   -6.9208    4.6192 C.ar      1 <0>         0.0046
     18 C12         2.1921   -6.6100    3.4461 C.ar      1 <0>        -0.1192
     19 C13         1.7387   -7.6213    2.6240 C.ar      1 <0>        -0.0825
     20 C14         1.9637   -8.9437    2.9595 C.ar      1 <0>        -0.1884
     21 C15         2.6471   -9.2620    4.1250 C.ar      1 <0>         0.1233
     22 C16         3.1111   -8.2536    4.9536 C.ar      1 <0>        -0.1113
     23 O3          2.8655  -10.5632    4.4507 O.3       1 <0>        -0.3150
     24 C17         2.3641  -11.5509    3.5478 C.3       1 <0>         0.0260
     25 H1          1.0053    1.8021    0.0021 H         1 <0>         0.0578
     26 H2         -0.5445    1.7859   -0.8732 H         1 <0>         0.1034
     27 H3         -0.5275    1.7763    0.9067 H         1 <0>         0.0577
     28 H4          1.1548    1.2185    2.0095 H         1 <0>         0.1395
     29 H5          2.2843    0.1083    3.8920 H         1 <0>         0.1354
     30 H6          1.3665   -3.7073    2.1879 H         1 <0>         0.1465
     31 H7          0.2287   -2.5936    0.3124 H         1 <0>         0.1429
     32 H8          2.9409   -1.9711    4.9323 H         1 <0>         0.4135
     33 H9          4.8142   -4.6405    8.0334 H         1 <0>         0.4449
     34 H10         2.0144   -5.5781    3.1814 H         1 <0>         0.1412
     35 H11         1.2061   -7.3793    1.7161 H         1 <0>         0.1334
     36 H12         1.6065   -9.7314    2.3128 H         1 <0>         0.1323
     37 H13         3.6467   -8.4998    5.8585 H         1 <0>         0.1429
     38 H14         2.6056  -12.5444    3.9254 H         1 <0>         0.1019
     39 H15         1.2824  -11.4482    3.4611 H         1 <0>         0.0570
     40 H16         2.8218  -11.4134    2.5681 H         1 <0>         0.0570
@<TRIPOS>BOND
     1    1    2 1
     2    1   25 1
     3    1   26 1
     4    1   27 1
     5    2    3 1
     6    3    8 ar
     7    3    4 ar
     8    4    5 ar
     9    4   28 1
    10    5    6 ar
    11    5   29 1
    12    6    7 ar
    13    6    9 1
    14    7    8 ar
    15    7   30 1
    16    8   31 1
    17    9   10 1
    18    9   32 1
    19   10   11 2
    20   11   15 1
    21   11   12 1
    22   12   13 2
    23   12   17 1
    24   13   14 1
    25   14   15 am
    26   14   33 1
    27   15   16 2
    28   17   22 ar
    29   17   18 ar
    30   18   19 ar
    31   18   34 1
    32   19   20 ar
    33   19   35 1
    34   20   21 ar
    35   20   36 1
    36   21   22 ar
    37   21   23 1
    38   22   37 1
    39   23   24 1
    40   24   38 1
    41   24   39 1
    42   24   40 1
@<TRIPOS>MOLECULE
ZINC49109883
   40    42     0     0     0
SMALL
USER_CHARGES

@<TRIPOS>ATOM
      1 C1         -0.0173    1.4248    0.0099 C.3       1 <0>         0.0241
      2 O1          0.0021   -0.0041    0.0020 O.3       1 <0>        -0.3139
      3 C2         -1.2000   -0.6373    0.0101 C.ar      1 <0>         0.1500
      4 C3         -2.3737    0.1046    0.0195 C.ar      1 <0>        -0.2146
      5 C4         -3.5952   -0.5347    0.0272 C.ar      1 <0>        -0.0341
      6 C5         -3.6511   -1.9285    0.0256 C.ar      1 <0>        -0.0760
      7 C6         -2.4701   -2.6707    0.0162 C.ar      1 <0>        -0.0405
      8 C7         -1.2520   -2.0249    0.0031 C.ar      1 <0>        -0.1558
      9 C8         -4.9618   -2.6190    0.0344 C.2       1 <0>         0.2233
     10 N1         -6.1368   -2.0487    0.0383 N.2       1 <0>        -0.2333
     11 N2         -7.1595   -2.9963    0.0458 N.am      1 <0>        -0.5517
     12 C9         -6.6441   -4.2418    0.0468 C.2       1 <0>         0.5170
     13 O2         -7.2648   -5.2910    0.0523 O.2       1 <0>        -0.5282
     14 C10        -5.1815   -4.0803    0.0340 C.2       1 <0>        -0.1141
     15 N3         -4.2670   -5.0316    0.0264 N.2       1 <0>        -0.0694
     16 N4         -4.6253   -6.2708    0.0272 N.pl3     1 <0>        -0.4543
     17 C11        -3.6580   -7.2769    0.0192 C.ar      1 <0>         0.1074
     18 C12        -2.3082   -6.9442    0.0162 C.ar      1 <0>        -0.0862
     19 C13        -1.3527   -7.9399    0.0088 C.ar      1 <0>        -0.1227
     20 C14        -1.7388   -9.2730    0.0038 C.ar      1 <0>         0.1206
     21 C15        -3.0860   -9.6064    0.0068 C.ar      1 <0>        -0.1786
     22 C16        -4.0434   -8.6125    0.0200 C.ar      1 <0>        -0.0980
     23 O3         -0.7968  -10.2528   -0.0044 O.3       1 <0>        -0.3133
     24 C17        -1.2650  -11.6029   -0.0091 C.3       1 <0>         0.0244
     25 H1          1.0053    1.8021    0.0021 H         1 <0>         0.1025
     26 H2         -0.5445    1.7859   -0.8732 H         1 <0>         0.0586
     27 H3         -0.5275    1.7763    0.9067 H         1 <0>         0.0587
     28 H4         -2.3297    1.1837    0.0211 H         1 <0>         0.1354
     29 H5         -4.5077    0.0429    0.0349 H         1 <0>         0.1379
     30 H6         -2.5098   -3.7500    0.0149 H         1 <0>         0.1457
     31 H7         -0.3372   -2.5989   -0.0087 H         1 <0>         0.1390
     32 H8         -8.1071   -2.7888    0.0499 H         1 <0>         0.4438
     33 H9         -5.5669   -6.5034    0.0333 H         1 <0>         0.4135
     34 H10        -2.0075   -5.9069    0.0193 H         1 <0>         0.1463
     35 H11        -0.3040   -7.6817    0.0064 H         1 <0>         0.1432
     36 H12        -3.3852  -10.6441    0.0030 H         1 <0>         0.1393
     37 H13        -5.0917   -8.8722    0.0269 H         1 <0>         0.1352
     38 H14        -1.8728  -11.7736   -0.8977 H         1 <0>         0.0576
     39 H15        -0.4131  -12.2829   -0.0156 H         1 <0>         0.1033
     40 H16        -1.8661  -11.7821    0.8823 H         1 <0>         0.0576
@<TRIPOS>BOND
     1    1    2 1
     2    1   25 1
     3    1   26 1
     4    1   27 1
     5    2    3 1
     6    3    8 ar
     7    3    4 ar
     8    4    5 ar
     9    4   28 1
    10    5    6 ar
    11    5   29 1
    12    6    7 ar
    13    6    9 1
    14    7    8 ar
    15    7   30 1
    16    8   31 1
    17    9   14 1
    18    9   10 2
    19   10   11 1
    20   11   12 am
    21   11   32 1
    22   12   13 2
    23   12   14 1
    24   14   15 2
    25   15   16 1
    26   16   17 1
    27   16   33 1
    28   17   22 ar
    29   17   18 ar
    30   18   19 ar
    31   18   34 1
    32   19   20 ar
    33   19   35 1
    34   20   21 ar
    35   20   23 1
    36   21   22 ar
    37   21   36 1
    38   22   37 1
    39   23   24 1
    40   24   38 1
    41   24   39 1
    42   24   40 1
@<TRIPOS>MOLECULE
ZINC49089740
   40    42     0     0     0
SMALL
USER_CHARGES

@<TRIPOS>ATOM
      1 C1         -0.0173    1.4248    0.0099 C.3       1 <0>         0.0260
      2 O1          0.0021   -0.0041    0.0020 O.3       1 <0>        -0.3149
      3 C2         -1.2003   -0.6375    0.0101 C.ar      1 <0>         0.1233
      4 C3         -2.3748    0.1030    0.0195 C.ar      1 <0>        -0.1879
      5 C4         -3.6002   -0.5365    0.0273 C.ar      1 <0>        -0.0825
      6 C5         -3.6636   -1.9154    0.0258 C.ar      1 <0>        -0.1189
      7 C6         -2.4890   -2.6669    0.0163 C.ar      1 <0>         0.0040
      8 C7         -1.2538   -2.0212    0.0032 C.ar      1 <0>        -0.1110
      9 C8         -2.5538   -4.1473    0.0152 C.2       1 <0>         0.2130
     10 N1         -1.5366   -4.9662    0.0125 N.2       1 <0>        -0.2167
     11 N2         -1.9564   -6.2958    0.0121 N.am      1 <0>        -0.5506
     12 C9         -3.3028   -6.3620    0.0146 C.2       1 <0>         0.5176
     13 O2         -3.9861   -7.3712    0.0150 O.2       1 <0>        -0.5214
     14 C10        -3.7815   -4.9700    0.0232 C.2       1 <0>        -0.1028
     15 N3         -5.0317   -4.5493    0.0328 N.2       1 <0>        -0.0658
     16 N4         -5.9992   -5.4025    0.0389 N.pl3     1 <0>        -0.4603
     17 C11        -7.3213   -4.9576    0.0490 C.ar      1 <0>         0.1892
     18 C12        -7.5976   -3.5947    0.0468 C.ar      1 <0>        -0.1663
     19 C13        -8.9065   -3.1550    0.0569 C.ar      1 <0>        -0.0497
     20 C14        -9.9451   -4.0672    0.0692 C.ar      1 <0>        -0.2195
     21 C15        -9.6759   -5.4287    0.0715 C.ar      1 <0>         0.1599
     22 C16        -8.3640   -5.8751    0.0556 C.ar      1 <0>        -0.1793
     23 O3        -10.6985   -6.3238    0.0836 O.3       1 <0>        -0.3136
     24 C17       -12.0252   -5.7930    0.0935 C.3       1 <0>         0.0259
     25 H1          1.0053    1.8021    0.0021 H         1 <0>         0.1020
     26 H2         -0.5445    1.7859   -0.8732 H         1 <0>         0.0570
     27 H3         -0.5275    1.7763    0.9067 H         1 <0>         0.0570
     28 H4         -2.3308    1.1821    0.0211 H         1 <0>         0.1324
     29 H5         -4.5107    0.0444    0.0349 H         1 <0>         0.1333
     30 H6         -4.6226   -2.4121    0.0322 H         1 <0>         0.1417
     31 H7         -0.3410   -2.5983   -0.0082 H         1 <0>         0.1431
     32 H8         -1.3640   -7.0638    0.0104 H         1 <0>         0.4457
     33 H9         -5.8075   -6.3533    0.0365 H         1 <0>         0.4149
     34 H10        -6.7880   -2.8799    0.0375 H         1 <0>         0.1411
     35 H11        -9.1192   -2.0961    0.0555 H         1 <0>         0.1372
     36 H12       -10.9677   -3.7198    0.0774 H         1 <0>         0.1349
     37 H13        -8.1528   -6.9343    0.0525 H         1 <0>         0.1399
     38 H14       -12.7442   -6.6121    0.1027 H         1 <0>         0.1037
     39 H15       -12.1638   -5.1779    0.9826 H         1 <0>         0.0590
     40 H16       -12.1796   -5.1840   -0.7972 H         1 <0>         0.0591
@<TRIPOS>BOND
     1    1    2 1
     2    1   25 1
     3    1   26 1
     4    1   27 1
     5    2    3 1
     6    3    8 ar
     7    3    4 ar
     8    4    5 ar
     9    4   28 1
    10    5    6 ar
    11    5   29 1
    12    6    7 ar
    13    6   30 1
    14    7    8 ar
    15    7    9 1
    16    8   31 1
    17    9   14 1
    18    9   10 2
    19   10   11 1
    20   11   12 am
    21   11   32 1
    22   12   13 2
    23   12   14 1
    24   14   15 2
    25   15   16 1
    26   16   17 1
    27   16   33 1
    28   17   22 ar
    29   17   18 ar
    30   18   19 ar
    31   18   34 1
    32   19   20 ar
    33   19   35 1
    34   20   21 ar
    35   20   36 1
    36   21   22 ar
    37   21   23 1
    38   22   37 1
    39   23   24 1
    40   24   38 1
    41   24   39 1
    42   24   40 1
@<TRIPOS>MOLECULE
ZINC49034827
   37    39     0     0     0
SMALL
USER_CHARGES

@<TRIPOS>ATOM
      1 C1         -0.0173    1.4248    0.0099 C.3       1 <0>         0.0258
      2 O1          0.0021   -0.0041    0.0020 O.3       1 <0>        -0.3147
      3 C2         -1.2003   -0.6375    0.0101 C.ar      1 <0>         0.1240
      4 C3         -2.3748    0.1030    0.0196 C.ar      1 <0>        -0.1872
      5 C4         -3.6002   -0.5365    0.0278 C.ar      1 <0>        -0.0822
      6 C5         -3.6636   -1.9154    0.0267 C.ar      1 <0>        -0.1191
      7 C6         -2.4890   -2.6669    0.0172 C.ar      1 <0>         0.0029
      8 C7         -1.2538   -2.0212    0.0032 C.ar      1 <0>        -0.1107
      9 C8         -2.5537   -4.1473    0.0164 C.2       1 <0>         0.2120
     10 N1         -1.5367   -4.9661    0.0138 N.2       1 <0>        -0.2137
     11 N2         -1.9561   -6.2958    0.0144 N.am      1 <0>        -0.5501
     12 C9         -3.3025   -6.3624    0.0175 C.2       1 <0>         0.5177
     13 O2         -3.9855   -7.3718    0.0191 O.2       1 <0>        -0.5194
     14 C10        -3.7816   -4.9701    0.0250 C.2       1 <0>        -0.0907
     15 N3         -5.0314   -4.5496    0.0344 N.2       1 <0>        -0.0721
     16 N4         -5.9989   -5.4028    0.0410 N.pl3     1 <0>        -0.4656
     17 C11        -7.3181   -4.9590    0.0509 C.ar      1 <0>         0.1828
     18 C12        -7.5918   -3.5941    0.0479 C.ar      1 <0>        -0.1337
     19 C13        -8.8956   -3.1520    0.0581 C.ar      1 <0>        -0.0384
     20 C14        -9.9450   -4.0753    0.0711 C.ar      1 <0>        -0.0425
     21 C15        -9.6669   -5.4451    0.0736 C.ar      1 <0>        -0.0353
     22 C16        -8.3610   -5.8810    0.0580 C.ar      1 <0>        -0.1452
     23 C17       -11.3022   -3.6187    0.0822 C.1       1 <0>         0.2502
     24 N5        -12.3789   -3.2565    0.0911 N.1       1 <0>        -0.4086
     25 H1          1.0053    1.8021    0.0021 H         1 <0>         0.1023
     26 H2         -0.5445    1.7859   -0.8732 H         1 <0>         0.0572
     27 H3         -0.5275    1.7763    0.9067 H         1 <0>         0.0573
     28 H4         -2.3308    1.1821    0.0208 H         1 <0>         0.1327
     29 H5         -4.5107    0.0444    0.0355 H         1 <0>         0.1339
     30 H6         -4.6226   -2.4121    0.0335 H         1 <0>         0.1412
     31 H7         -0.3410   -2.5983   -0.0087 H         1 <0>         0.1433
     32 H8         -1.3634   -7.0637    0.0128 H         1 <0>         0.4467
     33 H9         -5.8071   -6.3536    0.0390 H         1 <0>         0.4163
     34 H10        -6.7805   -2.8813    0.0379 H         1 <0>         0.1499
     35 H11        -9.1073   -2.0930    0.0565 H         1 <0>         0.1444
     36 H12       -10.4756   -6.1609    0.0839 H         1 <0>         0.1448
     37 H13        -8.1456   -6.9393    0.0558 H         1 <0>         0.1437
@<TRIPOS>BOND
     1    1    2 1
     2    1   25 1
     3    1   26 1
     4    1   27 1
     5    2    3 1
     6    3    8 ar
     7    3    4 ar
     8    4    5 ar
     9    4   28 1
    10    5    6 ar
    11    5   29 1
    12    6    7 ar
    13    6   30 1
    14    7    8 ar
    15    7    9 1
    16    8   31 1
    17    9   14 1
    18    9   10 2
    19   10   11 1
    20   11   12 am
    21   11   32 1
    22   12   13 2
    23   12   14 1
    24   14   15 2
    25   15   16 1
    26   16   17 1
    27   16   33 1
    28   17   22 ar
    29   17   18 ar
    30   18   19 ar
    31   18   34 1
    32   19   20 ar
    33   19   35 1
    34   20   21 ar
    35   20   23 1
    36   21   22 ar
    37   21   36 1
    38   22   37 1
    39   23   24 3
@<TRIPOS>MOLECULE
ZINC49089715
   35    37     0     0     0
SMALL
USER_CHARGES

@<TRIPOS>ATOM
      1 C1         -0.0173    1.4248    0.0099 C.3       1 <0>         0.0263
      2 O1          0.0021   -0.0041    0.0020 O.3       1 <0>        -0.3155
      3 C2          0.6058   -0.6071   -1.0557 C.ar      1 <0>         0.1201
      4 C3          1.1731    0.1626   -2.0626 C.ar      1 <0>        -0.1870
      5 C4          1.7887   -0.4460   -3.1402 C.ar      1 <0>        -0.0824
      6 C5          1.8431   -1.8229   -3.2219 C.ar      1 <0>        -0.1143
      7 C6          1.2760   -2.6036   -2.2152 C.ar      1 <0>        -0.0006
      8 C7          0.6601   -1.9890   -1.1262 C.ar      1 <0>        -0.1108
      9 C8          1.3324   -4.0819   -2.3003 C.2       1 <0>         0.2168
     10 N1          0.8392   -4.9258   -1.4348 N.2       1 <0>        -0.2182
     11 N2          1.0694   -6.2446   -1.8245 N.am      1 <0>        -0.5505
     12 C9          1.7408   -6.2778   -2.9929 C.2       1 <0>         0.5179
     13 O2          2.0965   -7.2697   -3.6050 O.2       1 <0>        -0.5235
     14 C10         1.9519   -4.8737   -3.3840 C.2       1 <0>        -0.1007
     15 N3          2.5618   -4.4222   -4.4620 N.2       1 <0>        -0.0438
     16 N4          3.0532   -5.2509   -5.3198 N.pl3     1 <0>        -0.4610
     17 C11         3.6969   -4.7745   -6.4576 C.ar      1 <0>         0.3579
     18 C12         4.2195   -5.6737   -7.3814 C.ar      1 <0>        -0.1891
     19 C13         4.8567   -5.1861   -8.5087 C.ar      1 <0>        -0.0416
     20 C14         4.9498   -3.8109   -8.6742 C.ar      1 <0>        -0.1892
     21 C15         4.4079   -2.9760   -7.7162 C.ar      1 <0>         0.1370
     22 N5          3.8017   -3.4691   -6.6540 N.ar      1 <0>        -0.4869
     23 H1          1.0053    1.8021    0.0021 H         1 <0>         0.0566
     24 H2         -0.5445    1.7859   -0.8732 H         1 <0>         0.0566
     25 H3         -0.5275    1.7763    0.9067 H         1 <0>         0.1014
     26 H4          1.1329    1.2403   -2.0037 H         1 <0>         0.1317
     27 H5          2.2280    0.1575   -3.9207 H         1 <0>         0.1331
     28 H6          2.3245   -2.2953   -4.0654 H         1 <0>         0.1502
     29 H7          0.2232   -2.5888   -0.3416 H         1 <0>         0.1423
     30 H8          0.7868   -7.0270   -1.3256 H         1 <0>         0.4456
     31 H9          2.9740   -6.2063   -5.1715 H         1 <0>         0.4200
     32 H10         4.1294   -6.7379   -7.2207 H         1 <0>         0.1430
     33 H11         5.2725   -5.8601   -9.2430 H         1 <0>         0.1465
     34 H12         5.4412   -3.3980   -9.5428 H         1 <0>         0.1439
     35 H13         4.4784   -1.9055   -7.8407 H         1 <0>         0.1683
@<TRIPOS>BOND
     1    1    2 1
     2    1   23 1
     3    1   24 1
     4    1   25 1
     5    2    3 1
     6    3    8 ar
     7    3    4 ar
     8    4    5 ar
     9    4   26 1
    10    5    6 ar
    11    5   27 1
    12    6    7 ar
    13    6   28 1
    14    7    8 ar
    15    7    9 1
    16    8   29 1
    17    9   14 1
    18    9   10 2
    19   10   11 1
    20   11   12 am
    21   11   30 1
    22   12   13 2
    23   12   14 1
    24   14   15 2
    25   15   16 1
    26   16   17 1
    27   16   31 1
    28   17   22 ar
    29   17   18 ar
    30   18   19 ar
    31   18   32 1
    32   19   20 ar
    33   19   33 1
    34   20   21 ar
    35   20   34 1
    36   21   22 ar
    37   21   35 1
@<TRIPOS>MOLECULE
ZINC49034829
   35    37     0     0     0
SMALL
USER_CHARGES

@<TRIPOS>ATOM
      1 C1         -0.0173    1.4248    0.0099 C.3       1 <0>         0.0258
      2 O1          0.0021   -0.0041    0.0020 O.3       1 <0>        -0.3149
      3 C2          0.6258   -0.6184    1.0415 C.ar      1 <0>         0.1236
      4 C3          1.2024    0.1404    2.0514 C.ar      1 <0>        -0.1870
      5 C4          1.8379   -0.4797    3.1108 C.ar      1 <0>        -0.0815
      6 C5          1.9036   -1.8572    3.1708 C.ar      1 <0>        -0.1185
      7 C6          1.3273   -2.6270    2.1609 C.ar      1 <0>         0.0026
      8 C7          0.6813   -2.0009    1.0961 C.ar      1 <0>        -0.1109
      9 C8          1.3966   -4.1059    2.2223 C.2       1 <0>         0.2137
     10 N1          0.9066   -4.9403    1.3455 N.2       1 <0>        -0.2155
     11 N2          1.1510   -6.2630    1.7130 N.am      1 <0>        -0.5500
     12 C9          1.8286   -6.3081    2.8774 C.2       1 <0>         0.5181
     13 O2          2.1972   -7.3063    3.4718 O.2       1 <0>        -0.5223
     14 C10         2.0386   -4.9090    3.2839 C.2       1 <0>        -0.0972
     15 N3          2.6611   -4.4688    4.3604 N.2       1 <0>        -0.0710
     16 N4          3.1721   -5.3064    5.1978 N.pl3     1 <0>        -0.4588
     17 C11         3.8305   -4.8408    6.3363 C.ar      1 <0>         0.0981
     18 C12         4.3917   -5.7367    7.2452 C.ar      1 <0>        -0.0992
     19 C13         5.0352   -5.2259    8.3598 C.ar      1 <0>        -0.1378
     20 C14         5.0999   -3.8554    8.5339 C.ar      1 <0>         0.0861
     21 N5          4.5584   -3.0340    7.6558 N.ar      1 <0>        -0.4555
     22 C15         3.9418   -3.4768    6.5785 C.ar      1 <0>         0.0966
     23 H1          1.0053    1.8021    0.0021 H         1 <0>         0.0572
     24 H2         -0.5445    1.7859   -0.8732 H         1 <0>         0.1021
     25 H3         -0.5275    1.7763    0.9067 H         1 <0>         0.0572
     26 H4          1.1544    1.2185    2.0089 H         1 <0>         0.1330
     27 H5          2.2847    0.1153    3.8936 H         1 <0>         0.1346
     28 H6          2.4015   -2.3387    3.9995 H         1 <0>         0.1401
     29 H7          0.2294   -2.5924    0.3136 H         1 <0>         0.1432
     30 H8          0.8730   -7.0400    1.2033 H         1 <0>         0.4462
     31 H9          3.0987   -6.2600    5.0359 H         1 <0>         0.4149
     32 H10         4.3258   -6.8025    7.0842 H         1 <0>         0.1446
     33 H11         5.4812   -5.8902    9.0852 H         1 <0>         0.1479
     34 H12         5.6007   -3.4522    9.4017 H         1 <0>         0.1650
     35 H13         3.5146   -2.7730    5.8795 H         1 <0>         0.1693
@<TRIPOS>BOND
     1    1    2 1
     2    1   23 1
     3    1   24 1
     4    1   25 1
     5    2    3 1
     6    3    8 ar
     7    3    4 ar
     8    4    5 ar
     9    4   26 1
    10    5    6 ar
    11    5   27 1
    12    6    7 ar
    13    6   28 1
    14    7    8 ar
    15    7    9 1
    16    8   29 1
    17    9   14 1
    18    9   10 2
    19   10   11 1
    20   11   12 am
    21   11   30 1
    22   12   13 2
    23   12   14 1
    24   14   15 2
    25   15   16 1
    26   16   17 1
    27   16   31 1
    28   17   22 ar
    29   17   18 ar
    30   18   19 ar
    31   18   32 1
    32   19   20 ar
    33   19   33 1
    34   20   21 ar
    35   20   34 1
    36   21   22 ar
    37   22   35 1
@<TRIPOS>MOLECULE
ZINC05932684
   50    53     0     0     0
SMALL
USER_CHARGES
3-[3-[[(2S)-2,3-dihydroxypropyl]amino]phenyl]-4-(5-fluoro-1-methyl-indol-3-yl)pyrrole-2,5-dione
@<TRIPOS>ATOM
      1 C1          1.8520    4.5431    0.0093 C.3       1 <0>         0.0726
      2 N1          0.8716    3.4545    0.0123 N.pl3     1 <0>        -0.4693
      3 C2         -0.4742    3.6256    0.0261 C.2       1 <0>         0.1108
      4 C3         -1.0941    2.3952    0.0195 C.2       1 <0>        -0.1478
      5 C4         -0.0168    1.3885    0.0097 C.ar      1 <0>        -0.0457
      6 C5          1.1878    2.1100    0.0020 C.ar      1 <0>         0.0816
      7 C6          2.3956    1.4207   -0.0137 C.ar      1 <0>        -0.0897
      8 C7          2.4023    0.0424   -0.0211 C.ar      1 <0>        -0.1331
      9 C8          1.2107   -0.6707   -0.0131 C.ar      1 <0>         0.0833
     10 C9          0.0021   -0.0041    0.0020 C.ar      1 <0>        -0.1096
     11 F1          1.2344   -2.0214   -0.0206 F         1 <0>        -0.1388
     12 C10        -2.5397    2.1376    0.0230 C.2       1 <0>        -0.0174
     13 C11        -3.4166    2.2800   -1.0445 C.2       1 <0>        -0.0749
     14 C12        -4.7473    1.9011   -0.5367 C.2       1 <0>         0.5603
     15 O1         -5.7765    1.8987   -1.1830 O.2       1 <0>        -0.4467
     16 N2         -4.6360    1.5589    0.7576 N.am      1 <0>        -0.6894
     17 C13        -3.3599    1.6660    1.1659 C.2       1 <0>         0.5550
     18 O2         -2.9485    1.4209    2.2815 O.2       1 <0>        -0.4424
     19 C14        -3.0827    2.7229   -2.4137 C.ar      1 <0>         0.0137
     20 C15        -2.6250    4.0243   -2.6378 C.ar      1 <0>        -0.1476
     21 C16        -2.3089    4.4333   -3.9167 C.ar      1 <0>        -0.0706
     22 C17        -2.4532    3.5632   -4.9818 C.ar      1 <0>        -0.1871
     23 C18        -2.9132    2.2681   -4.7706 C.ar      1 <0>         0.2196
     24 C19        -3.2287    1.8450   -3.4888 C.ar      1 <0>        -0.1595
     25 N3         -3.0580    1.3936   -5.8502 N.pl3     1 <0>        -0.7407
     26 C20        -2.7246    1.8408   -7.2049 C.3       1 <0>         0.0967
     27 C21        -2.9706    0.6995   -8.1937 C.3       1 <0>         0.0964
     28 H1         -4.0196    0.4058   -8.1559 H         1 <0>         0.1125
     29 C22        -2.6224    1.1665   -9.6085 C.3       1 <0>         0.0474
     30 O3         -2.9614    0.1420  -10.5452 O.3       1 <0>        -0.5627
     31 O4         -2.1503   -0.4176   -7.8455 O.3       1 <0>        -0.5474
     32 H2          2.0857    4.8187   -1.0191 H         1 <0>         0.0769
     33 H3          1.4386    5.4058    0.5316 H         1 <0>         0.0888
     34 H4          2.7611    4.2147    0.5130 H         1 <0>         0.0861
     35 H5         -0.9814    4.5791    0.0355 H         1 <0>         0.1794
     36 H6          3.3282    1.9653   -0.0204 H         1 <0>         0.1325
     37 H7          3.3430   -0.4880   -0.0330 H         1 <0>         0.1410
     38 H8         -0.9241   -0.5595    0.0075 H         1 <0>         0.1323
     39 H9         -5.3732    1.2709    1.3184 H         1 <0>         0.4305
     40 H10        -2.5152    4.7084   -1.8094 H         1 <0>         0.1196
     41 H11        -1.9514    5.4381   -4.0874 H         1 <0>         0.1254
     42 H12        -2.2080    3.8907   -5.9813 H         1 <0>         0.1211
     43 H13        -3.5865    0.8396   -3.3228 H         1 <0>         0.1231
     44 H14        -3.3792    0.4903   -5.7030 H         1 <0>         0.4066
     45 H15        -3.3503    2.6929   -7.4705 H         1 <0>         0.0722
     46 H16        -1.6756    2.1345   -7.2427 H         1 <0>         0.0652
     47 H17        -3.1838    2.0715   -9.8408 H         1 <0>         0.0584
     48 H18        -1.5544    1.3757   -9.6695 H         1 <0>         0.0524
     49 H19        -2.7674    0.3699  -11.4648 H         1 <0>         0.3833
     50 H20        -1.2021   -0.2285   -7.8583 H         1 <0>         0.3759
@<TRIPOS>BOND
     1    1    2 1
     2    1   32 1
     3    1   33 1
     4    1   34 1
     5    2    6 1
     6    2    3 1
     7    3    4 2
     8    3   35 1
     9    4    5 1
    10    4   12 1
    11    5   10 ar
    12    5    6 ar
    13    6    7 ar
    14    7    8 ar
    15    7   36 1
    16    8    9 ar
    17    8   37 1
    18    9   10 ar
    19    9   11 1
    20   10   38 1
    21   12   17 1
    22   12   13 2
    23   13   14 1
    24   13   19 1
    25   14   15 2
    26   14   16 am
    27   16   17 am
    28   16   39 1
    29   17   18 2
    30   19   24 ar
    31   19   20 ar
    32   20   21 ar
    33   20   40 1
    34   21   22 ar
    35   21   41 1
    36   22   23 ar
    37   22   42 1
    38   23   24 ar
    39   23   25 1
    40   24   43 1
    41   25   26 1
    42   25   44 1
    43   26   27 1
    44   26   45 1
    45   26   46 1
    46   27   28 1
    47   27   29 1
    48   27   31 1
    49   29   30 1
    50   29   47 1
    51   29   48 1
    52   30   49 1
    53   31   50 1
@<TRIPOS>MOLECULE
ZINC12501080
   50    53     0     0     0
SMALL
USER_CHARGES
3-[3-[[(2R)-2,3-dihydroxypropyl]amino]phenyl]-4-(5-fluoro-1-methyl-indol-3-yl)pyrrole-2,5-dione
@<TRIPOS>ATOM
      1 C1          7.9960    8.6641    5.2309 C.3       1 <0>         0.0725
      2 N1          6.7497    9.1520    4.6353 N.pl3     1 <0>        -0.4693
      3 C2          6.6022    9.5111    3.3353 C.2       1 <0>         0.1109
      4 C3          5.3062    9.9245    3.1168 C.2       1 <0>        -0.1479
      5 C4          4.6061    9.7932    4.4078 C.ar      1 <0>        -0.0456
      6 C5          5.5586    9.3064    5.3175 C.ar      1 <0>         0.0816
      7 C6          5.1867    9.0788    6.6381 C.ar      1 <0>        -0.0896
      8 C7          3.8932    9.3299    7.0426 C.ar      1 <0>        -0.1332
      9 C8          2.9516    9.8113    6.1425 C.ar      1 <0>         0.0831
     10 C9          3.3022   10.0438    4.8279 C.ar      1 <0>        -0.1098
     11 F1          1.6878   10.0524    6.5549 F         1 <0>        -0.1389
     12 C10         4.7345   10.3959    1.8492 C.2       1 <0>        -0.0174
     13 C11         4.3897    9.6221    0.7487 C.2       1 <0>        -0.0750
     14 C12         3.8564   10.5555   -0.2594 C.2       1 <0>         0.5602
     15 O1          3.4446   10.2476   -1.3606 O.2       1 <0>        -0.4463
     16 N2          3.8999   11.8025    0.2386 N.am      1 <0>        -0.6894
     17 C13         4.4103   11.7964    1.4819 C.2       1 <0>         0.5551
     18 O2          4.5743   12.7713    2.1867 O.2       1 <0>        -0.4425
     19 C14         4.5245    8.1568    0.6175 C.ar      1 <0>         0.0137
     20 C15         5.7914    7.5666    0.6147 C.ar      1 <0>        -0.1477
     21 C16         5.9142    6.1981    0.4924 C.ar      1 <0>        -0.0706
     22 C17         4.7870    5.4053    0.3777 C.ar      1 <0>        -0.1870
     23 C18         3.5222    5.9828    0.3740 C.ar      1 <0>         0.2196
     24 C19         3.3872    7.3570    0.4963 C.ar      1 <0>        -0.1595
     25 N3          2.3871    5.1776    0.2529 N.pl3     1 <0>        -0.7410
     26 C20         2.5297    3.7253    0.1236 C.3       1 <0>         0.0972
     27 C21         1.1449    3.0852    0.0077 C.3       1 <0>         0.0964
     28 H1          0.5324    3.3879    0.8570 H         1 <0>         0.1122
     29 C22         1.2864    1.5618   -0.0018 C.3       1 <0>         0.0474
     30 O3         -0.0110    0.9628    0.0073 O.3       1 <0>        -0.5628
     31 O4          0.5223    3.5133   -1.2052 O.3       1 <0>        -0.5475
     32 H2          8.0425    7.5790    5.1383 H         1 <0>         0.0768
     33 H3          8.8452    9.1096    4.7126 H         1 <0>         0.0889
     34 H4          8.0278    8.9405    6.2848 H         1 <0>         0.0863
     35 H5          7.3811    9.4801    2.5878 H         1 <0>         0.1794
     36 H6          5.9110    8.7045    7.3464 H         1 <0>         0.1325
     37 H7          3.6094    9.1511    8.0692 H         1 <0>         0.1410
     38 H8          2.5690   10.4178    4.1286 H         1 <0>         0.1323
     39 H9          3.6042   12.5966   -0.2335 H         1 <0>         0.4306
     40 H10         6.6741    8.1818    0.7086 H         1 <0>         0.1196
     41 H11         6.8941    5.7438    0.4905 H         1 <0>         0.1255
     42 H12         4.8896    4.3340    0.2864 H         1 <0>         0.1211
     43 H13         2.4055    7.8070    0.4981 H         1 <0>         0.1231
     44 H14         1.5046    5.5800    0.2544 H         1 <0>         0.4060
     45 H15         3.0400    3.3307    1.0023 H         1 <0>         0.0714
     46 H16         3.1121    3.4953   -0.7686 H         1 <0>         0.0663
     47 H17         1.8401    1.2428    0.8812 H         1 <0>         0.0582
     48 H18         1.8231    1.2523   -0.8987 H         1 <0>         0.0528
     49 H19         0.0021   -0.0041    0.0020 H         1 <0>         0.3833
     50 H20         1.0134    3.2774   -2.0040 H         1 <0>         0.3762
@<TRIPOS>BOND
     1    1    2 1
     2    1   32 1
     3    1   33 1
     4    1   34 1
     5    2    6 1
     6    2    3 1
     7    3    4 2
     8    3   35 1
     9    4    5 1
    10    4   12 1
    11    5   10 ar
    12    5    6 ar
    13    6    7 ar
    14    7    8 ar
    15    7   36 1
    16    8    9 ar
    17    8   37 1
    18    9   10 ar
    19    9   11 1
    20   10   38 1
    21   12   17 1
    22   12   13 2
    23   13   14 1
    24   13   19 1
    25   14   15 2
    26   14   16 am
    27   16   17 am
    28   16   39 1
    29   17   18 2
    30   19   24 ar
    31   19   20 ar
    32   20   21 ar
    33   20   40 1
    34   21   22 ar
    35   21   41 1
    36   22   23 ar
    37   22   42 1
    38   23   24 ar
    39   23   25 1
    40   24   43 1
    41   25   26 1
    42   25   44 1
    43   26   27 1
    44   26   45 1
    45   26   46 1
    46   27   28 1
    47   27   29 1
    48   27   31 1
    49   29   30 1
    50   29   47 1
    51   29   48 1
    52   30   49 1
    53   31   50 1
@<TRIPOS>MOLECULE
ZINC49036660
   44    46     0     0     0
SMALL
USER_CHARGES

@<TRIPOS>ATOM
      1 C1         -0.0173    1.4248    0.0099 C.3       1 <0>         0.0243
      2 O1          0.0021   -0.0041    0.0020 O.3       1 <0>        -0.3134
      3 C2          0.6059   -0.6072   -1.0559 C.ar      1 <0>         0.1208
      4 C3          1.1728    0.1625   -2.0620 C.ar      1 <0>        -0.1784
      5 C4          1.7861   -0.4487   -3.1367 C.ar      1 <0>        -0.0976
      6 C5          1.8364   -1.8359   -3.2109 C.ar      1 <0>         0.1075
      7 C6          1.2686   -2.6058   -2.2022 C.ar      1 <0>        -0.0864
      8 C7          0.6601   -1.9922   -1.1262 C.ar      1 <0>        -0.1232
      9 N1          2.4560   -2.4552   -4.2974 N.pl3     1 <0>        -0.4540
     10 N2          2.5024   -3.7426   -4.3657 N.2       1 <0>        -0.0682
     11 C8          3.0882   -4.3281   -5.3929 C.2       1 <0>        -0.1134
     12 C9          3.2314   -5.7776   -5.6426 C.2       1 <0>         0.2214
     13 N3          3.8738   -5.9165   -6.7713 N.2       1 <0>        -0.2301
     14 N4          4.1905   -4.6787   -7.3294 N.am      1 <0>        -0.5510
     15 C10         3.7367   -3.6811   -6.5446 C.2       1 <0>         0.5175
     16 O2          3.8443   -2.4838   -6.7468 O.2       1 <0>        -0.5270
     17 C11         2.7376   -6.8709   -4.7734 C.ar      1 <0>        -0.0354
     18 C12         2.0586   -6.5719   -3.5924 C.ar      1 <0>        -0.0733
     19 C13         1.5991   -7.5908   -2.7835 C.ar      1 <0>        -0.1784
     20 C14         1.8109   -8.9137   -3.1421 C.ar      1 <0>         0.1236
     21 C15         2.4882   -9.2186   -4.3203 C.ar      1 <0>         0.0952
     22 C16         2.9458   -8.2011   -5.1376 C.ar      1 <0>        -0.1321
     23 O3          2.6950  -10.5166   -4.6696 O.3       1 <0>        -0.3040
     24 C17         3.3969  -10.7558   -5.8911 C.3       1 <0>         0.0234
     25 O4          1.3568   -9.9147   -2.3420 O.3       1 <0>        -0.3026
     26 C18         0.6709   -9.5308   -1.1486 C.3       1 <0>         0.0231
     27 H1          1.0053    1.8021    0.0021 H         1 <0>         0.0578
     28 H2         -0.5445    1.7859   -0.8732 H         1 <0>         0.0578
     29 H3         -0.5275    1.7763    0.9067 H         1 <0>         0.1034
     30 H4          1.1336    1.2402   -2.0042 H         1 <0>         0.1395
     31 H5          2.2266    0.1505   -3.9199 H         1 <0>         0.1354
     32 H6          1.3067   -3.6837   -2.2590 H         1 <0>         0.1460
     33 H7          0.2225   -2.5901   -0.3404 H         1 <0>         0.1428
     34 H8          2.8518   -1.9177   -5.0011 H         1 <0>         0.4136
     35 H9          4.6666   -4.5532   -8.1651 H         1 <0>         0.4442
     36 H10         1.8928   -5.5425   -3.3107 H         1 <0>         0.1445
     37 H11         1.0738   -7.3578   -1.8691 H         1 <0>         0.1436
     38 H12         3.4670   -8.4360   -6.0538 H         1 <0>         0.1477
     39 H13         3.4936  -11.8297   -6.0503 H         1 <0>         0.1023
     40 H14         2.8443  -10.3138   -6.7202 H         1 <0>         0.0573
     41 H15         4.3883  -10.3062   -5.8345 H         1 <0>         0.0573
     42 H16         1.3355   -8.9346   -0.5233 H         1 <0>         0.0580
     43 H17        -0.2087   -8.9418   -1.4086 H         1 <0>         0.0580
     44 H18         0.3626  -10.4230   -0.6036 H         1 <0>         0.1026
@<TRIPOS>BOND
     1    1    2 1
     2    1   27 1
     3    1   28 1
     4    1   29 1
     5    2    3 1
     6    3    8 ar
     7    3    4 ar
     8    4    5 ar
     9    4   30 1
    10    5    6 ar
    11    5   31 1
    12    6    7 ar
    13    6    9 1
    14    7    8 ar
    15    7   32 1
    16    8   33 1
    17    9   10 1
    18    9   34 1
    19   10   11 2
    20   11   15 1
    21   11   12 1
    22   12   13 2
    23   12   17 1
    24   13   14 1
    25   14   15 am
    26   14   35 1
    27   15   16 2
    28   17   22 ar
    29   17   18 ar
    30   18   19 ar
    31   18   36 1
    32   19   20 ar
    33   19   37 1
    34   20   21 ar
    35   20   25 1
    36   21   22 ar
    37   21   23 1
    38   22   38 1
    39   23   24 1
    40   24   39 1
    41   24   40 1
    42   24   41 1
    43   25   26 1
    44   26   42 1
    45   26   43 1
    46   26   44 1
@<TRIPOS>MOLECULE
ZINC49089638
   35    37     0     0     0
SMALL
USER_CHARGES

@<TRIPOS>ATOM
      1 C1         -0.0173    1.4248    0.0099 C.3       1 <0>         0.0258
      2 O1          0.0021   -0.0041    0.0020 O.3       1 <0>        -0.3146
      3 C2         -1.2003   -0.6375    0.0101 C.ar      1 <0>         0.1241
      4 C3         -2.3748    0.1030    0.0195 C.ar      1 <0>        -0.1868
      5 C4         -3.6003   -0.5365    0.0277 C.ar      1 <0>        -0.0820
      6 C5         -3.6636   -1.9154    0.0262 C.ar      1 <0>        -0.1192
      7 C6         -2.4890   -2.6669    0.0163 C.ar      1 <0>         0.0025
      8 C7         -1.2538   -2.0212    0.0032 C.ar      1 <0>        -0.1104
      9 C8         -2.5538   -4.1473    0.0148 C.2       1 <0>         0.2125
     10 N1         -1.5368   -4.9660    0.0117 N.2       1 <0>        -0.2128
     11 N2         -1.9561   -6.2958    0.0110 N.am      1 <0>        -0.5497
     12 C9         -3.3024   -6.3627    0.0137 C.2       1 <0>         0.5178
     13 O2         -3.9853   -7.3721    0.0145 O.2       1 <0>        -0.5190
     14 C10        -3.7817   -4.9701    0.0228 C.2       1 <0>        -0.0894
     15 N3         -5.0312   -4.5499    0.0331 N.2       1 <0>        -0.0709
     16 N4         -5.9987   -5.4031    0.0391 N.pl3     1 <0>        -0.4656
     17 C11        -7.3186   -4.9592    0.0500 C.ar      1 <0>         0.1967
     18 C12        -7.6153   -3.5962    0.0488 C.ar      1 <0>        -0.1872
     19 C13        -8.9361   -3.1979    0.0599 C.ar      1 <0>         0.1299
     20 N5         -9.9109   -4.0872    0.0720 N.ar      1 <0>        -0.4944
     21 C14        -9.6716   -5.3849    0.0736 C.ar      1 <0>         0.1339
     22 C15        -8.3786   -5.8658    0.0567 C.ar      1 <0>        -0.2003
     23 H1          1.0053    1.8021    0.0021 H         1 <0>         0.1024
     24 H2         -0.5445    1.7859   -0.8732 H         1 <0>         0.0573
     25 H3         -0.5275    1.7763    0.9067 H         1 <0>         0.0573
     26 H4         -2.3308    1.1821    0.0207 H         1 <0>         0.1332
     27 H5         -4.5107    0.0444    0.0357 H         1 <0>         0.1341
     28 H6         -4.6226   -2.4121    0.0330 H         1 <0>         0.1404
     29 H7         -0.3410   -2.5983   -0.0082 H         1 <0>         0.1435
     30 H8         -1.3633   -7.0635    0.0088 H         1 <0>         0.4469
     31 H9         -5.8068   -6.3539    0.0360 H         1 <0>         0.4162
     32 H10        -6.8223   -2.8632    0.0397 H         1 <0>         0.1500
     33 H11        -9.1753   -2.1447    0.0591 H         1 <0>         0.1667
     34 H12       -10.4985   -6.0794    0.0840 H         1 <0>         0.1672
     35 H13        -8.1898   -6.9291    0.0530 H         1 <0>         0.1442
@<TRIPOS>BOND
     1    1    2 1
     2    1   23 1
     3    1   24 1
     4    1   25 1
     5    2    3 1
     6    3    8 ar
     7    3    4 ar
     8    4    5 ar
     9    4   26 1
    10    5    6 ar
    11    5   27 1
    12    6    7 ar
    13    6   28 1
    14    7    8 ar
    15    7    9 1
    16    8   29 1
    17    9   14 1
    18    9   10 2
    19   10   11 1
    20   11   12 am
    21   11   30 1
    22   12   13 2
    23   12   14 1
    24   14   15 2
    25   15   16 1
    26   16   17 1
    27   16   31 1
    28   17   22 ar
    29   17   18 ar
    30   18   19 ar
    31   18   32 1
    32   19   20 ar
    33   19   33 1
    34   20   21 ar
    35   21   22 ar
    36   21   34 1
    37   22   35 1
@<TRIPOS>MOLECULE
ZINC49110004
   38    40     0     0     0
SMALL
USER_CHARGES

@<TRIPOS>ATOM
      1 C1         -0.0173    1.4248    0.0099 C.3       1 <0>         0.0269
      2 O1          0.0021   -0.0041    0.0020 O.3       1 <0>        -0.3170
      3 C2         -1.2003   -0.6375    0.0101 C.ar      1 <0>         0.1182
      4 C3         -2.3748    0.1030    0.0196 C.ar      1 <0>        -0.1890
      5 C4         -3.6003   -0.5365    0.0283 C.ar      1 <0>        -0.0815
      6 C5         -3.6636   -1.9154    0.0271 C.ar      1 <0>        -0.1151
      7 C6         -2.4890   -2.6669    0.0172 C.ar      1 <0>         0.0059
      8 C7         -1.2538   -2.0212    0.0032 C.ar      1 <0>        -0.1130
      9 C8         -2.5538   -4.1473    0.0160 C.2       1 <0>         0.2189
     10 N1         -1.5368   -4.9660    0.0129 N.2       1 <0>        -0.2320
     11 N2         -1.9559   -6.2958    0.0131 N.am      1 <0>        -0.5532
     12 C9         -3.3022   -6.3629    0.0164 C.2       1 <0>         0.5175
     13 O2         -3.9850   -7.3723    0.0175 O.2       1 <0>        -0.5302
     14 C10        -3.7817   -4.9701    0.0245 C.2       1 <0>        -0.1398
     15 N3         -5.0311   -4.5499    0.0342 N.2       1 <0>        -0.0572
     16 N4         -5.9986   -5.4032    0.0408 N.pl3     1 <0>        -0.4355
     17 C11        -7.3164   -4.9600    0.0510 C.ar      1 <0>         0.1164
     18 C12        -7.5902   -3.5944    0.0485 C.ar      1 <0>        -0.1366
     19 C13        -8.8932   -3.1523    0.0586 C.ar      1 <0>        -0.0623
     20 C14        -9.9436   -4.0764    0.0711 C.ar      1 <0>        -0.1323
     21 C15        -9.6650   -5.4474    0.0732 C.ar      1 <0>        -0.0594
     22 C16        -8.3597   -5.8826    0.0581 C.ar      1 <0>        -0.1494
     23 C17       -11.3396   -3.6069    0.0825 C.2       1 <0>         0.5190
     24 O3        -11.5817   -2.4078    0.0811 O.co2     1 <0>        -0.6835
     25 O4        -12.2570   -4.4161    0.0934 O.co2     1 <0>        -0.6843
     26 H1          1.0053    1.8021    0.0021 H         1 <0>         0.0992
     27 H2         -0.5445    1.7859   -0.8732 H         1 <0>         0.0561
     28 H3         -0.5275    1.7763    0.9067 H         1 <0>         0.0562
     29 H4         -2.3308    1.1822    0.0205 H         1 <0>         0.1309
     30 H5         -4.5107    0.0444    0.0363 H         1 <0>         0.1352
     31 H6         -4.6226   -2.4121    0.0343 H         1 <0>         0.1453
     32 H7         -0.3410   -2.5983   -0.0086 H         1 <0>         0.1411
     33 H8         -1.3630   -7.0635    0.0111 H         1 <0>         0.4410
     34 H9         -5.8067   -6.3540    0.0385 H         1 <0>         0.4109
     35 H10        -6.7789   -2.8817    0.0389 H         1 <0>         0.1317
     36 H11        -9.1048   -2.0933    0.0574 H         1 <0>         0.1380
     37 H12       -10.4735   -6.1634    0.0831 H         1 <0>         0.1385
     38 H13        -8.1439   -6.9408    0.0559 H         1 <0>         0.1245
@<TRIPOS>BOND
     1    1    2 1
     2    1   26 1
     3    1   27 1
     4    1   28 1
     5    2    3 1
     6    3    8 ar
     7    3    4 ar
     8    4    5 ar
     9    4   29 1
    10    5    6 ar
    11    5   30 1
    12    6    7 ar
    13    6   31 1
    14    7    8 ar
    15    7    9 1
    16    8   32 1
    17    9   14 1
    18    9   10 2
    19   10   11 1
    20   11   12 am
    21   11   33 1
    22   12   13 2
    23   12   14 1
    24   14   15 2
    25   15   16 1
    26   16   17 1
    27   16   34 1
    28   17   22 ar
    29   17   18 ar
    30   18   19 ar
    31   18   35 1
    32   19   20 ar
    33   19   36 1
    34   20   21 ar
    35   20   23 1
    36   21   22 ar
    37   21   37 1
    38   22   38 1
    39   23   24 2
    40   23   25 1
@<TRIPOS>MOLECULE
ZINC38816494
   28    29     0     0     0
SMALL
USER_CHARGES

@<TRIPOS>ATOM
      1 C1         -0.0187    1.5258    0.0104 C.3       1 <0>        -0.1539
      2 C2          0.0021   -0.0041    0.0020 C.3       1 <0>        -0.1118
      3 C3         -1.4333   -0.5336    0.0129 C.3       1 <0>        -0.1354
      4 C4         -1.4129   -2.0405    0.0046 C.2       1 <0>         0.5043
      5 O1         -0.3544   -2.6326   -0.0087 O.2       1 <0>        -0.4849
      6 N1         -2.5708   -2.7302    0.0119 N.am      1 <0>        -0.6373
      7 C5         -2.5518   -4.1294    0.0042 C.2       1 <0>         0.3162
      8 C6         -3.7216   -5.0093    0.0048 C.ar      1 <0>        -0.1727
      9 C7         -5.1019   -4.7874    0.0127 C.ar      1 <0>        -0.0296
     10 C8         -5.9595   -5.8489    0.0113 C.ar      1 <0>        -0.1358
     11 C9         -5.4735   -7.1517    0.0020 C.ar      1 <0>        -0.0366
     12 C10        -4.1185   -7.3950   -0.0054 C.ar      1 <0>        -0.1129
     13 C11        -3.2248   -6.3263   -0.0046 C.ar      1 <0>         0.1488
     14 N2         -1.8573   -6.2347   -0.0104 N.pl3     1 <0>        -0.4988
     15 H1         -1.2437   -6.9859   -0.0173 H         1 <0>         0.4467
     16 N3         -1.4869   -4.8860   -0.0104 N.2       1 <0>        -0.2269
     17 Br1        -6.6855   -8.6032    0.0002 Br        1 <0>        -0.0349
     18 H2          1.0039    1.9031    0.0027 H         1 <0>         0.0600
     19 H3         -0.5459    1.8868   -0.8726 H         1 <0>         0.0559
     20 H4         -0.5289    1.8773    0.9072 H         1 <0>         0.0559
     21 H5          0.5123   -0.3556   -0.8948 H         1 <0>         0.0712
     22 H6          0.5293   -0.3651    0.8851 H         1 <0>         0.0712
     23 H7         -1.9435   -0.1821    0.9097 H         1 <0>         0.1000
     24 H8         -1.9605   -0.1726   -0.8702 H         1 <0>         0.1000
     25 H9         -3.4173   -2.2567    0.0226 H         1 <0>         0.4230
     26 H10        -5.4884   -3.7789    0.0203 H         1 <0>         0.1368
     27 H11        -7.0255   -5.6755    0.0178 H         1 <0>         0.1404
     28 H12        -3.7499   -8.4101   -0.0119 H         1 <0>         0.1410
@<TRIPOS>BOND
     1    1    2 1
     2    1   18 1
     3    1   19 1
     4    1   20 1
     5    2    3 1
     6    2   21 1
     7    2   22 1
     8    3    4 1
     9    3   23 1
    10    3   24 1
    11    4    5 2
    12    4    6 am
    13    6    7 1
    14    6   25 1
    15    7   16 2
    16    7    8 1
    17    8   13 ar
    18    8    9 ar
    19    9   10 ar
    20    9   26 1
    21   10   11 ar
    22   10   27 1
    23   11   12 ar
    24   11   17 1
    25   12   13 ar
    26   12   28 1
    27   13   14 1
    28   14   15 1
    29   14   16 1
