@<TRIPOS>MOLECULE
ZINC03805768
   71    74     0     0     0
SMALL
USER_CHARGES

@<TRIPOS>ATOM
      1 C1         -0.0178    1.4648    0.0101 C.3       1 <0>        -0.0612
      2 N1          0.0021   -0.0041    0.0020 N.4       1 <0>        -0.3845
      3 C2          0.7126   -0.4907    1.1921 C.3       1 <0>        -0.0057
      4 C3         -0.0711   -0.1034    2.4478 C.3       1 <0>        -0.1630
      5 C4          0.6689   -0.6103    3.6874 C.3       1 <0>         0.0942
      6 N2         -0.0815   -0.2395    4.8897 N.am      1 <0>        -0.5887
      7 C5          0.2863    1.0526    5.4322 C.3       1 <0>         0.1237
      8 C6         -0.2568    1.2805    6.8297 C.3       1 <0>        -0.0940
      9 C7         -1.7559    1.3334    6.8341 C.ar      1 <0>        -0.0832
     10 C8         -2.3771    2.5585    7.0589 C.ar      1 <0>        -0.1691
     11 C9         -3.7579    2.6457    7.0406 C.ar      1 <0>         0.1083
     12 C10        -4.5260    1.5113    6.7944 C.ar      1 <0>         0.1090
     13 C11        -3.8984    0.2935    6.5825 C.ar      1 <0>        -0.1627
     14 C12        -2.5166    0.2229    6.6207 C.ar      1 <0>        -0.0813
     15 C13        -1.8325   -1.1131    6.4702 C.3       1 <0>        -0.0917
     16 C14        -0.9581   -1.1380    5.2628 C.2       1 <0>         0.5312
     17 O1         -1.0685   -2.1077    4.5429 O.2       1 <0>        -0.5576
     18 O2         -5.8829    1.5969    6.7625 O.3       1 <0>        -0.3024
     19 C15        -6.6032    0.3901    6.5041 C.3       1 <0>         0.0243
     20 O3         -4.3655    3.8417    7.2640 O.3       1 <0>        -0.3037
     21 C16        -3.5167    4.9646    7.5104 C.3       1 <0>         0.0249
     22 C17         0.6897   -0.4778   -1.2066 C.3       1 <0>         0.0028
     23 C18        -0.1178   -0.0772   -2.4429 C.3       1 <0>        -0.0561
     24 H1         -1.1831   -0.2773   -2.3284 H         1 <0>         0.1149
     25 C19         0.1791    1.3444   -2.9204 C.3       1 <0>        -0.0798
     26 C20         0.7236    0.6655   -4.1599 C.ar      1 <0>        -0.1211
     27 C21         0.4536   -0.6229   -3.7271 C.ar      1 <0>        -0.1431
     28 C22         0.7666   -1.7117   -4.5194 C.ar      1 <0>        -0.1328
     29 C23         1.3557   -1.5235   -5.7589 C.ar      1 <0>         0.1115
     30 C24         1.6299   -0.2329   -6.2006 C.ar      1 <0>         0.1221
     31 C25         1.3146    0.8567   -5.4028 C.ar      1 <0>        -0.1501
     32 O4          2.2085   -0.0391   -7.4160 O.3       1 <0>        -0.2986
     33 C26         2.4616    1.3122   -7.8059 C.3       1 <0>         0.0225
     34 O5          1.6645   -2.5936   -6.5391 O.3       1 <0>        -0.2975
     35 C27         1.3537   -3.8875   -6.0182 C.3       1 <0>         0.0234
     36 H2          1.0047    1.8421    0.0024 H         1 <0>         0.1245
     37 H3         -0.5450    1.8259   -0.8730 H         1 <0>         0.1280
     38 H4         -0.5280    1.8163    0.9069 H         1 <0>         0.1245
     39 H5          0.8051   -1.5756    1.1418 H         1 <0>         0.1344
     40 H6          1.7055   -0.0428    1.2310 H         1 <0>         0.1317
     41 H7         -0.1636    0.9815    2.4982 H         1 <0>         0.0869
     42 H8         -1.0641   -0.5514    2.4090 H         1 <0>         0.0928
     43 H9          0.7614   -1.6952    3.6370 H         1 <0>         0.1044
     44 H10         1.6618   -0.1623    3.7262 H         1 <0>         0.0870
     45 H11         1.3735    1.1249    5.4616 H         1 <0>         0.0847
     46 H12        -0.0978    1.8322    4.7744 H         1 <0>         0.0682
     47 H13         0.0730    0.4680    7.4771 H         1 <0>         0.0846
     48 H14         0.1341    2.2223    7.2147 H         1 <0>         0.0980
     49 H15        -1.7821    3.4398    7.2477 H         1 <0>         0.1396
     50 H16        -4.4833   -0.5935    6.3886 H         1 <0>         0.1409
     51 H17        -1.2280   -1.3063    7.3564 H         1 <0>         0.1093
     52 H18        -2.5886   -1.8928    6.3784 H         1 <0>         0.1109
     53 H19        -7.6732    0.5981    6.5060 H         1 <0>         0.1056
     54 H20        -6.3118   -0.0057    5.5312 H         1 <0>         0.0547
     55 H21        -6.3741   -0.3425    7.2779 H         1 <0>         0.0584
     56 H22        -4.1272    5.8530    7.6722 H         1 <0>         0.1050
     57 H23        -2.9103    4.7743    8.3959 H         1 <0>         0.0577
     58 H24        -2.8651    5.1231    6.6510 H         1 <0>         0.0545
     59 H25         1.6817   -0.0294   -1.2596 H         1 <0>         0.1353
     60 H26         0.7830   -1.5632   -1.1697 H         1 <0>         0.1360
     61 H27        -0.7115    1.9466   -3.1001 H         1 <0>         0.1083
     62 H28         0.9355    1.8613   -2.3298 H         1 <0>         0.0999
     63 H29         0.5518   -2.7112   -4.1710 H         1 <0>         0.1372
     64 H30         1.5279    1.8575   -5.7481 H         1 <0>         0.1384
     65 H31         2.9239    1.3250   -8.7930 H         1 <0>         0.1085
     66 H32         1.5217    1.8633   -7.8378 H         1 <0>         0.0588
     67 H33         3.1323    1.7790   -7.0845 H         1 <0>         0.0581
     68 H34         1.6505   -4.6500   -6.7383 H         1 <0>         0.1083
     69 H35         1.8921   -4.0417   -5.0831 H         1 <0>         0.0565
     70 H36         0.2813   -3.9578   -5.8358 H         1 <0>         0.0577
     71 H37        -0.9445   -0.3533    0.0092 H         1 <0>         0.4260
@<TRIPOS>BOND
     1    1    2 1
     2    1   36 1
     3    1   37 1
     4    1   38 1
     5    2    3 1
     6    2   22 1
     7    2   71 1
     8    3    4 1
     9    3   39 1
    10    3   40 1
    11    4    5 1
    12    4   41 1
    13    4   42 1
    14    5    6 1
    15    5   43 1
    16    5   44 1
    17    6   16 am
    18    6    7 1
    19    7    8 1
    20    7   45 1
    21    7   46 1
    22    8    9 1
    23    8   47 1
    24    8   48 1
    25    9   14 ar
    26    9   10 ar
    27   10   11 ar
    28   10   49 1
    29   11   12 ar
    30   11   20 1
    31   12   13 ar
    32   12   18 1
    33   13   14 ar
    34   13   50 1
    35   14   15 1
    36   15   16 1
    37   15   51 1
    38   15   52 1
    39   16   17 2
    40   18   19 1
    41   19   53 1
    42   19   54 1
    43   19   55 1
    44   20   21 1
    45   21   56 1
    46   21   57 1
    47   21   58 1
    48   22   23 1
    49   22   59 1
    50   22   60 1
    51   23   24 1
    52   23   27 1
    53   23   25 1
    54   25   26 1
    55   25   61 1
    56   25   62 1
    57   26   31 ar
    58   26   27 ar
    59   27   28 ar
    60   28   29 ar
    61   28   63 1
    62   29   30 ar
    63   29   34 1
    64   30   31 ar
    65   30   32 1
    66   31   64 1
    67   32   33 1
    68   33   65 1
    69   33   66 1
    70   33   67 1
    71   34   35 1
    72   35   68 1
    73   35   69 1
    74   35   70 1
