@<TRIPOS>MOLECULE
ZINC13476440
   34    36     0     0     0
SMALL
USER_CHARGES
6-chloro-N-[2-(4-chlorophenyl)ethyl]quinazolin-4-amine
@<TRIPOS>ATOM
      1 C1         -0.0167    1.3779    0.0096 C.ar      1 <0>        -0.0996
      2 C2          0.0021   -0.0041    0.0020 C.ar      1 <0>        -0.1077
      3 C3          1.2096   -0.6792   -0.0131 C.ar      1 <0>        -0.0344
      4 C4          2.3977    0.0297   -0.0206 C.ar      1 <0>        -0.1077
      5 C5          2.3777    1.4116   -0.0130 C.ar      1 <0>        -0.0996
      6 C6          1.1708    2.0856    0.0021 C.ar      1 <0>        -0.0795
      7 C7          1.1497    3.5925    0.0098 C.3       1 <0>        -0.0954
      8 C8          1.1560    4.0952    1.4549 C.3       1 <0>         0.1308
      9 N1          1.1355    5.5600    1.4624 N.pl3     1 <0>        -0.6961
     10 C9          1.1370    6.2432    2.6599 C.ar      1 <0>         0.4793
     11 C10         1.1233    7.6594    2.6896 C.ar      1 <0>        -0.1922
     12 C11         1.0962    8.4277    1.5206 C.ar      1 <0>        -0.0591
     13 C12         1.0783    9.7895    1.6117 C.ar      1 <0>        -0.0503
     14 C13         1.0812   10.4230    2.8525 C.ar      1 <0>        -0.0687
     15 C14         1.1020    9.7020    4.0090 C.ar      1 <0>        -0.0933
     16 C15         1.1209    8.3017    3.9516 C.ar      1 <0>         0.1921
     17 N2          1.1418    7.5457    5.0596 N.ar      1 <0>        -0.5523
     18 C16         1.1589    6.2371    4.9716 C.ar      1 <0>         0.3557
     19 N3          1.1568    5.5928    3.8153 N.ar      1 <0>        -0.5927
     20 Cl1         1.0509   10.7447    0.1624 Cl        1 <0>        -0.0607
     21 Cl2         1.2340   -2.4150   -0.0221 Cl        1 <0>        -0.0672
     22 H1         -0.9593    1.9051    0.0169 H         1 <0>         0.1329
     23 H2         -0.9257   -0.5569    0.0082 H         1 <0>         0.1352
     24 H3          3.3407   -0.4968   -0.0321 H         1 <0>         0.1352
     25 H4          3.3051    1.9651   -0.0192 H         1 <0>         0.1329
     26 H5          2.0297    3.9709   -0.5103 H         1 <0>         0.0837
     27 H6          0.2499    3.9458   -0.4938 H         1 <0>         0.0836
     28 H7          0.2761    3.7168    1.9751 H         1 <0>         0.0770
     29 H8          2.0558    3.7418    1.9586 H         1 <0>         0.0770
     30 H9          1.1208    6.0492    0.6250 H         1 <0>         0.4123
     31 H10         1.0938    7.9470    0.5535 H         1 <0>         0.1354
     32 H11         1.0671   11.5019    2.8987 H         1 <0>         0.1447
     33 H12         1.1044   10.2066    4.9638 H         1 <0>         0.1508
     34 H13         1.1759    5.6592    5.8838 H         1 <0>         0.1977
@<TRIPOS>BOND
     1    1    6 ar
     2    1    2 ar
     3    1   22 1
     4    2    3 ar
     5    2   23 1
     6    3    4 ar
     7    3   21 1
     8    4    5 ar
     9    4   24 1
    10    5    6 ar
    11    5   25 1
    12    6    7 1
    13    7    8 1
    14    7   26 1
    15    7   27 1
    16    8    9 1
    17    8   28 1
    18    8   29 1
    19    9   10 1
    20    9   30 1
    21   10   19 ar
    22   10   11 ar
    23   11   16 ar
    24   11   12 ar
    25   12   13 ar
    26   12   31 1
    27   13   14 ar
    28   13   20 1
    29   14   15 ar
    30   14   32 1
    31   15   16 ar
    32   15   33 1
    33   16   17 ar
    34   17   18 ar
    35   18   19 ar
    36   18   34 1
@<TRIPOS>MOLECULE
ZINC01778621
   27    28     0     0     0
SMALL
USER_CHARGES
6-bromo-N-propyl-quinazolin-4-amine
@<TRIPOS>ATOM
      1 C1          3.7807   -6.3480   -0.0677 C.3       1 <0>        -0.1495
      2 C2          3.8143   -4.8184   -0.0603 C.3       1 <0>        -0.1396
      3 C3          2.3835   -4.2769   -0.0431 C.3       1 <0>         0.1233
      4 N1          2.4157   -2.8123   -0.0361 N.pl3     1 <0>        -0.6946
      5 C4          1.2374   -2.0969   -0.0205 C.ar      1 <0>         0.4804
      6 C5          1.2460   -0.6804   -0.0135 C.ar      1 <0>        -0.1999
      7 C6          2.4356    0.0561   -0.0209 C.ar      1 <0>        -0.0341
      8 C7          2.3817    1.4197   -0.0131 C.ar      1 <0>        -0.1083
      9 C8          1.1590    2.0866    0.0022 C.ar      1 <0>        -0.0538
     10 C9         -0.0169    1.3973    0.0097 C.ar      1 <0>        -0.0997
     11 C10         0.0021   -0.0041    0.0020 C.ar      1 <0>         0.2011
     12 N2         -1.1261   -0.7300    0.0093 N.ar      1 <0>        -0.5555
     13 C11        -1.0737   -2.0406    0.0023 C.ar      1 <0>         0.3589
     14 N3          0.0646   -2.7160   -0.0122 N.ar      1 <0>        -0.5953
     15 Br1         3.9883    2.4170   -0.0231 Br        1 <0>        -0.0407
     16 H1          3.2680   -6.7045    0.8258 H         1 <0>         0.0595
     17 H2          3.2500   -6.6955   -0.9541 H         1 <0>         0.0595
     18 H3          4.8000   -6.7339   -0.0800 H         1 <0>         0.0621
     19 H4          4.3270   -4.4620   -0.9538 H         1 <0>         0.0696
     20 H5          4.3450   -4.4710    0.8261 H         1 <0>         0.0696
     21 H6          1.8708   -4.6333    0.8503 H         1 <0>         0.0744
     22 H7          1.8528   -4.6244   -0.9295 H         1 <0>         0.0744
     23 H8          3.2662   -2.3458   -0.0423 H         1 <0>         0.4118
     24 H9          3.3893   -0.4507   -0.0331 H         1 <0>         0.1344
     25 H10         1.1423    3.1664    0.0082 H         1 <0>         0.1435
     26 H11        -0.9576    1.9278    0.0171 H         1 <0>         0.1500
     27 H12        -2.0013   -2.5936    0.0089 H         1 <0>         0.1981
@<TRIPOS>BOND
     1    1    2 1
     2    1   16 1
     3    1   17 1
     4    1   18 1
     5    2    3 1
     6    2   19 1
     7    2   20 1
     8    3    4 1
     9    3   21 1
    10    3   22 1
    11    4    5 1
    12    4   23 1
    13    5   14 ar
    14    5    6 ar
    15    6   11 ar
    16    6    7 ar
    17    7    8 ar
    18    7   24 1
    19    8    9 ar
    20    8   15 1
    21    9   10 ar
    22    9   25 1
    23   10   11 ar
    24   10   26 1
    25   11   12 ar
    26   12   13 ar
    27   13   14 ar
    28   13   27 1
@<TRIPOS>MOLECULE
ZINC01766166
   25    26     0     0     0
SMALL
USER_CHARGES

@<TRIPOS>ATOM
      1 C1         -0.0157    1.3058    0.0092 C.2       1 <0>        -0.1542
      2 C2          0.0021   -0.0041    0.0020 C.2       1 <0>        -0.1886
      3 C3         -1.2926   -0.7753    0.0102 C.3       1 <0>         0.1536
      4 N1         -1.3176   -1.6997   -1.1260 N.pl3     1 <0>        -0.6910
      5 C4         -2.4101   -2.5163   -1.3263 C.ar      1 <0>         0.4806
      6 C5         -2.4521   -3.4215   -2.4151 C.ar      1 <0>        -0.1995
      7 C6         -1.4004   -3.5324   -3.3313 C.ar      1 <0>        -0.0339
      8 C7         -1.4973   -4.4229   -4.3608 C.ar      1 <0>        -0.1082
      9 C8         -2.6286   -5.2214   -4.5112 C.ar      1 <0>        -0.0536
     10 C9         -3.6695   -5.1367   -3.6353 C.ar      1 <0>        -0.0998
     11 C10        -3.6027   -4.2329   -2.5662 C.ar      1 <0>         0.2012
     12 N2         -4.5990   -4.1106   -1.6761 N.ar      1 <0>        -0.5552
     13 C11        -4.5053   -3.2548   -0.6865 C.ar      1 <0>         0.3591
     14 N3         -3.4481   -2.4800   -0.5018 N.ar      1 <0>        -0.5960
     15 Br1        -0.0770   -4.5744   -5.6001 Br        1 <0>        -0.0406
     16 H1          0.9122    1.8585    0.0033 H         1 <0>         0.1063
     17 H2         -0.9582    1.8330    0.0166 H         1 <0>         0.1023
     18 H3          0.9446   -0.5313   -0.0098 H         1 <0>         0.1168
     19 H4         -1.3737   -1.3393    0.9394 H         1 <0>         0.0825
     20 H5         -2.1295   -0.0812   -0.0676 H         1 <0>         0.0782
     21 H6         -0.5655   -1.7372   -1.7373 H         1 <0>         0.4130
     22 H7         -0.5189   -2.9176   -3.2247 H         1 <0>         0.1347
     23 H8         -2.6820   -5.9182   -5.3346 H         1 <0>         0.1435
     24 H9         -4.5406   -5.7619   -3.7646 H         1 <0>         0.1501
     25 H10        -5.3262   -3.1821    0.0116 H         1 <0>         0.1983
@<TRIPOS>BOND
     1    1    2 2
     2    1   16 1
     3    1   17 1
     4    2    3 1
     5    2   18 1
     6    3    4 1
     7    3   19 1
     8    3   20 1
     9    4    5 1
    10    4   21 1
    11    5   14 ar
    12    5    6 ar
    13    6   11 ar
    14    6    7 ar
    15    7    8 ar
    16    7   22 1
    17    8    9 ar
    18    8   15 1
    19    9   10 ar
    20    9   23 1
    21   10   11 ar
    22   10   24 1
    23   11   12 ar
    24   12   13 ar
    25   13   14 ar
    26   13   25 1
@<TRIPOS>MOLECULE
ZINC00122248
   31    33     0     0     0
SMALL
USER_CHARGES

@<TRIPOS>ATOM
      1 C1         -0.0167    1.3781    0.0096 C.ar      1 <0>        -0.1078
      2 C2          1.1709    2.0855    0.0021 C.ar      1 <0>        -0.1214
      3 C3          2.3773    1.4107   -0.0130 C.ar      1 <0>        -0.0986
      4 C4          2.3960    0.0285   -0.0201 C.ar      1 <0>        -0.1186
      5 C5          1.2084   -0.6789   -0.0117 C.ar      1 <0>        -0.0986
      6 C6          0.0021   -0.0041    0.0020 C.ar      1 <0>        -0.1214
      7 C7          3.7112   -0.7071   -0.0376 C.3       1 <0>         0.1690
      8 N1          4.1518   -0.9524    1.3379 N.pl3     1 <0>        -0.6895
      9 C8          5.3373   -1.6153    1.5741 C.ar      1 <0>         0.4811
     10 C9          5.7788   -1.8679    2.8961 C.ar      1 <0>        -0.1989
     11 C10         5.0439   -1.4635    4.0159 C.ar      1 <0>        -0.0337
     12 C11         5.5196   -1.7352    5.2658 C.ar      1 <0>        -0.1081
     13 C12         6.7262   -2.4088    5.4406 C.ar      1 <0>        -0.0535
     14 C13         7.4649   -2.8156    4.3698 C.ar      1 <0>        -0.1000
     15 C14         7.0054   -2.5533    3.0720 C.ar      1 <0>         0.2015
     16 N2          7.6935   -2.9324    1.9846 N.ar      1 <0>        -0.5552
     17 C15         7.2358   -2.6714    0.7835 C.ar      1 <0>         0.3591
     18 N3          6.0928   -2.0388    0.5698 N.ar      1 <0>        -0.5954
     19 Br1         4.5278   -1.1894    6.7806 Br        1 <0>        -0.0407
     20 H1         -0.9591    1.9053    0.0259 H         1 <0>         0.1251
     21 H2          1.1563    3.1654    0.0076 H         1 <0>         0.1258
     22 H3          3.3051    1.9634   -0.0196 H         1 <0>         0.1246
     23 H4          1.2231   -1.7588   -0.0176 H         1 <0>         0.1245
     24 H5         -0.9258   -0.5567    0.0082 H         1 <0>         0.1258
     25 H6          3.5884   -1.6586   -0.5549 H         1 <0>         0.0830
     26 H7          4.4573   -0.1052   -0.5563 H         1 <0>         0.0831
     27 H8          3.6095   -0.6484    2.0824 H         1 <0>         0.4129
     28 H9          4.1075   -0.9399    3.8921 H         1 <0>         0.1342
     29 H10         7.0820   -2.6115    6.4399 H         1 <0>         0.1434
     30 H11         8.3988   -3.3367    4.5205 H         1 <0>         0.1500
     31 H12         7.8156   -2.9907   -0.0699 H         1 <0>         0.1982
@<TRIPOS>BOND
     1    1    6 ar
     2    1    2 ar
     3    1   20 1
     4    2    3 ar
     5    2   21 1
     6    3    4 ar
     7    3   22 1
     8    4    5 ar
     9    4    7 1
    10    5    6 ar
    11    5   23 1
    12    6   24 1
    13    7    8 1
    14    7   25 1
    15    7   26 1
    16    8    9 1
    17    8   27 1
    18    9   18 ar
    19    9   10 ar
    20   10   15 ar
    21   10   11 ar
    22   11   12 ar
    23   11   28 1
    24   12   13 ar
    25   12   19 1
    26   13   14 ar
    27   13   29 1
    28   14   15 ar
    29   14   30 1
    30   15   16 ar
    31   16   17 ar
    32   17   18 ar
    33   17   31 1
@<TRIPOS>MOLECULE
ZINC00122268
   37    39     0     0     0
SMALL
USER_CHARGES

@<TRIPOS>ATOM
      1 C1          0.0291    1.6564    0.1287 C.3       1 <0>        -0.1891
      2 C2         -0.0533    0.1290    0.0959 C.3       1 <0>        -0.0102
      3 N1          0.6856   -0.4260    1.2378 N.4       1 <0>        -0.3819
      4 C3          0.0307   -0.0182    2.4871 C.3       1 <0>        -0.0269
      5 C4          0.8635   -0.4994    3.6799 C.3       1 <0>         0.1222
      6 N2          1.0714   -1.9498    3.5487 N.pl3     1 <0>        -0.6657
      7 C5          1.5734   -2.4648    2.2653 C.3       1 <0>         0.1217
      8 C6          0.7071   -1.8909    1.1394 C.3       1 <0>        -0.0217
      9 C7          0.8031   -2.8022    4.5984 C.ar      1 <0>         0.4574
     10 C8          1.8033   -3.1238    5.5485 C.ar      1 <0>        -0.1551
     11 C9          3.0982   -2.5994    5.4720 C.ar      1 <0>        -0.0458
     12 C10         4.0201   -2.9451    6.4169 C.ar      1 <0>        -0.0850
     13 C11         3.6888   -3.8128    7.4550 C.ar      1 <0>        -0.0573
     14 C12         2.4361   -4.3402    7.5567 C.ar      1 <0>        -0.0836
     15 C13         1.4647   -4.0056    6.6035 C.ar      1 <0>         0.1732
     16 N3          0.2173   -4.4964    6.6580 N.ar      1 <0>        -0.4915
     17 C14        -0.6686   -4.1635    5.7498 C.ar      1 <0>         0.3197
     18 N4         -0.4000   -3.3392    4.7494 N.ar      1 <0>        -0.5314
     19 Br1         5.7707   -2.2374    6.3153 Br        1 <0>        -0.0236
     20 H1          1.0729    1.9652    0.0708 H         1 <0>         0.0810
     21 H2         -0.5192    2.0681   -0.7186 H         1 <0>         0.1071
     22 H3         -0.4075    2.0239    1.0573 H         1 <0>         0.0802
     23 H4         -1.0971   -0.1799    0.1538 H         1 <0>         0.1289
     24 H5          0.3833   -0.2386   -0.8327 H         1 <0>         0.1315
     25 H6         -0.0521    1.0682    2.5163 H         1 <0>         0.1420
     26 H7         -0.9645   -0.4601    2.5368 H         1 <0>         0.1355
     27 H8          1.8271    0.0100    3.6830 H         1 <0>         0.0901
     28 H9          0.3312   -0.2881    4.6073 H         1 <0>         0.1169
     29 H10         2.6087   -2.1539    2.1257 H         1 <0>         0.0904
     30 H11         1.5104   -3.5530    2.2576 H         1 <0>         0.1173
     31 H12        -0.3086   -2.2761    1.2298 H         1 <0>         0.1352
     32 H13         1.1227   -2.1843    0.1754 H         1 <0>         0.1408
     33 H14         3.3661   -1.9263    4.6710 H         1 <0>         0.1421
     34 H15         4.4362   -4.0720    8.1903 H         1 <0>         0.1513
     35 H16         2.1936   -5.0120    8.3668 H         1 <0>         0.1571
     36 H17        -1.6634   -4.5773    5.8239 H         1 <0>         0.2056
     37 H18         1.6317   -0.0755    1.2270 H         1 <0>         0.4217
@<TRIPOS>BOND
     1    1    2 1
     2    1   20 1
     3    1   21 1
     4    1   22 1
     5    2    3 1
     6    2   23 1
     7    2   24 1
     8    3    8 1
     9    3    4 1
    10    3   37 1
    11    4    5 1
    12    4   25 1
    13    4   26 1
    14    5    6 1
    15    5   27 1
    16    5   28 1
    17    6    7 1
    18    6    9 1
    19    7    8 1
    20    7   29 1
    21    7   30 1
    22    8   31 1
    23    8   32 1
    24    9   18 ar
    25    9   10 ar
    26   10   15 ar
    27   10   11 ar
    28   11   12 ar
    29   11   33 1
    30   12   13 ar
    31   12   19 1
    32   13   14 ar
    33   13   34 1
    34   14   15 ar
    35   14   35 1
    36   15   16 ar
    37   16   17 ar
    38   17   18 ar
    39   17   36 1
@<TRIPOS>MOLECULE
ZINC00122268
   36    38     0     0     0
SMALL
USER_CHARGES

@<TRIPOS>ATOM
      1 C1          0.0562    1.6533   -0.0816 C.3       1 <0>        -0.1499
      2 C2          0.1133    0.1270    0.0079 C.3       1 <0>         0.0507
      3 N1          0.7461   -0.4113   -1.2036 N.3       1 <0>        -0.5359
      4 C3          2.1557   -0.0059   -1.2857 C.3       1 <0>         0.0368
      5 C4          2.7277   -0.4307   -2.6424 C.3       1 <0>         0.1526
      6 N2          2.4829   -1.8697   -2.8228 N.pl3     1 <0>        -0.6671
      7 C5          1.1160   -2.3737   -2.6211 C.3       1 <0>         0.1528
      8 C6          0.6074   -1.8724   -1.2653 C.3       1 <0>         0.0398
      9 C7          3.5075   -2.7234   -3.1720 C.ar      1 <0>         0.4864
     10 C8          3.8054   -2.9846   -4.5320 C.ar      1 <0>        -0.1647
     11 C9          3.0850   -2.3967   -5.5775 C.ar      1 <0>        -0.0265
     12 C10         3.4182   -2.6859   -6.8689 C.ar      1 <0>        -0.0990
     13 C11         4.4647   -3.5582   -7.1589 C.ar      1 <0>        -0.0579
     14 C12         5.1852   -4.1465   -6.1626 C.ar      1 <0>        -0.0942
     15 C13         4.8700   -3.8711   -4.8251 C.ar      1 <0>         0.1741
     16 N3          5.5478   -4.4231   -3.8074 N.ar      1 <0>        -0.5119
     17 C14         5.2275   -4.1445   -2.5663 C.ar      1 <0>         0.3217
     18 N4          4.2447   -3.3184   -2.2440 N.ar      1 <0>        -0.5411
     19 Br1         2.4458   -1.8925   -8.2834 Br        1 <0>        -0.0355
     20 H1          1.0675    2.0501   -0.1702 H         1 <0>         0.0544
     21 H2         -0.5262    1.9444   -0.9558 H         1 <0>         0.0641
     22 H3         -0.4134    2.0527    0.8173 H         1 <0>         0.0597
     23 H4          0.6957   -0.1642    0.8820 H         1 <0>         0.0328
     24 H5         -0.8981   -0.2699    0.0965 H         1 <0>         0.0754
     25 H6          2.2294    1.0767   -1.1828 H         1 <0>         0.0876
     26 H7          2.7196   -0.4869   -0.4865 H         1 <0>         0.0404
     27 H8          2.2347    0.1272   -3.4385 H         1 <0>         0.0709
     28 H9          3.7999   -0.2360   -2.6649 H         1 <0>         0.0724
     29 H10         0.4680   -2.0026   -3.4152 H         1 <0>         0.0711
     30 H11         1.1226   -3.4637   -2.6294 H         1 <0>         0.0728
     31 H12         1.1929   -2.3274   -0.4663 H         1 <0>         0.0407
     32 H13        -0.4418   -2.1435   -1.1475 H         1 <0>         0.0845
     33 H14         2.2712   -1.7195   -5.3641 H         1 <0>         0.1469
     34 H15         4.7088   -3.7718   -8.1890 H         1 <0>         0.1452
     35 H16         5.9938   -4.8211   -6.4025 H         1 <0>         0.1509
     36 H17         5.7939   -4.6069   -1.7715 H         1 <0>         0.1991
@<TRIPOS>BOND
     1    1    2 1
     2    1   20 1
     3    1   21 1
     4    1   22 1
     5    2    3 1
     6    2   23 1
     7    2   24 1
     8    3    8 1
     9    3    4 1
    10    4    5 1
    11    4   25 1
    12    4   26 1
    13    5    6 1
    14    5   27 1
    15    5   28 1
    16    6    7 1
    17    6    9 1
    18    7    8 1
    19    7   29 1
    20    7   30 1
    21    8   31 1
    22    8   32 1
    23    9   18 ar
    24    9   10 ar
    25   10   15 ar
    26   10   11 ar
    27   11   12 ar
    28   11   33 1
    29   12   13 ar
    30   12   19 1
    31   13   14 ar
    32   13   34 1
    33   14   15 ar
    34   14   35 1
    35   15   16 ar
    36   16   17 ar
    37   17   18 ar
    38   17   36 1
@<TRIPOS>MOLECULE
ZINC00122260
   34    36     0     0     0
SMALL
USER_CHARGES

@<TRIPOS>ATOM
      1 C1         -0.0256    1.4604   -0.1622 C.3       1 <0>        -0.0463
      2 N1         -0.0017   -0.0062   -0.0818 N.4       1 <0>        -0.3827
      3 C2          0.5998   -0.5519   -1.3050 C.3       1 <0>        -0.0227
      4 C3          0.5213   -2.0819   -1.2730 C.3       1 <0>         0.1209
      5 N2          1.1441   -2.5548   -0.0269 N.pl3     1 <0>        -0.6659
      6 C4          0.7146   -1.9409    1.2391 C.3       1 <0>         0.1210
      7 C5          0.7840   -0.4177    1.0885 C.3       1 <0>        -0.0225
      8 C6          2.1026   -3.5454   -0.0451 C.ar      1 <0>         0.4571
      9 C7          1.7400   -4.9108    0.0587 C.ar      1 <0>        -0.1552
     10 C8          0.4076   -5.3193    0.1828 C.ar      1 <0>        -0.0460
     11 C9          0.1187   -6.6496    0.2786 C.ar      1 <0>        -0.0849
     12 C10         1.1323   -7.6046    0.2550 C.ar      1 <0>        -0.0573
     13 C11         2.4397   -7.2383    0.1351 C.ar      1 <0>        -0.0835
     14 C12         2.7717   -5.8805    0.0339 C.ar      1 <0>         0.1732
     15 N3          4.0422   -5.4668   -0.0864 N.ar      1 <0>        -0.4913
     16 C13         4.3193   -4.1881   -0.1789 C.ar      1 <0>         0.3197
     17 N4          3.3890   -3.2465   -0.1658 N.ar      1 <0>        -0.5315
     18 Br1        -1.6815   -7.2037    0.4465 Br        1 <0>        -0.0234
     19 H1          0.9933    1.8357   -0.2576 H         1 <0>         0.1220
     20 H2         -0.6086    1.7672   -1.0306 H         1 <0>         0.1251
     21 H3         -0.4792    1.8665    0.7419 H         1 <0>         0.1251
     22 H4          0.0584   -0.1784   -2.1742 H         1 <0>         0.1413
     23 H5          1.6433   -0.2428   -1.3661 H         1 <0>         0.1353
     24 H6         -0.5221   -2.3958   -1.3031 H         1 <0>         0.0905
     25 H7          1.0557   -2.4940   -2.1289 H         1 <0>         0.1171
     26 H8         -0.3093   -2.2406    1.4627 H         1 <0>         0.0906
     27 H9          1.3768   -2.2599    2.0440 H         1 <0>         0.1171
     28 H10         1.8219   -0.1125    0.9549 H         1 <0>         0.1353
     29 H11         0.3784    0.0549    1.9830 H         1 <0>         0.1413
     30 H12        -0.3863   -4.5873    0.2030 H         1 <0>         0.1421
     31 H13         0.8785   -8.6514    0.3331 H         1 <0>         0.1513
     32 H14         3.2152   -7.9899    0.1185 H         1 <0>         0.1572
     33 H15         5.3530   -3.8902   -0.2742 H         1 <0>         0.2057
     34 H16        -0.9451   -0.3522    0.0095 H         1 <0>         0.4243
@<TRIPOS>BOND
     1    1    2 1
     2    1   19 1
     3    1   20 1
     4    1   21 1
     5    2    7 1
     6    2    3 1
     7    2   34 1
     8    3    4 1
     9    3   22 1
    10    3   23 1
    11    4    5 1
    12    4   24 1
    13    4   25 1
    14    5    6 1
    15    5    8 1
    16    6    7 1
    17    6   26 1
    18    6   27 1
    19    7   28 1
    20    7   29 1
    21    8   17 ar
    22    8    9 ar
    23    9   14 ar
    24    9   10 ar
    25   10   11 ar
    26   10   30 1
    27   11   12 ar
    28   11   18 1
    29   12   13 ar
    30   12   31 1
    31   13   14 ar
    32   13   32 1
    33   14   15 ar
    34   15   16 ar
    35   16   17 ar
    36   16   33 1
@<TRIPOS>MOLECULE
ZINC00122260
   33    35     0     0     0
SMALL
USER_CHARGES

@<TRIPOS>ATOM
      1 C1         -0.0316    1.4606   -0.1612 C.3       1 <0>         0.0248
      2 N1         -0.0049   -0.0062   -0.0850 N.3       1 <0>        -0.5407
      3 C2          0.5047   -0.5891   -1.3334 C.3       1 <0>         0.0389
      4 C3          0.3477   -2.1126   -1.2833 C.3       1 <0>         0.1521
      5 N2          0.9912   -2.6085   -0.0572 N.pl3     1 <0>        -0.6674
      6 C4          0.6317   -1.9772    1.2216 C.3       1 <0>         0.1522
      7 C5          0.7776   -0.4590    1.0729 C.3       1 <0>         0.0390
      8 C6          1.9066   -3.6382   -0.1054 C.ar      1 <0>         0.4862
      9 C7          1.4914   -4.9872    0.0139 C.ar      1 <0>        -0.1647
     10 C8          0.1481   -5.3398    0.1839 C.ar      1 <0>        -0.0267
     11 C9         -0.1923   -6.6569    0.2927 C.ar      1 <0>        -0.0989
     12 C10         0.7795   -7.6533    0.2371 C.ar      1 <0>        -0.0579
     13 C11         2.0961   -7.3417    0.0722 C.ar      1 <0>        -0.0942
     14 C12         2.4805   -5.9989   -0.0434 C.ar      1 <0>         0.1741
     15 N3          3.7623   -5.6386   -0.2075 N.ar      1 <0>        -0.5117
     16 C13         4.0890   -4.3726   -0.3123 C.ar      1 <0>         0.3217
     17 N4          3.1995   -3.3931   -0.2701 N.ar      1 <0>        -0.5411
     18 Br1        -2.0072   -7.1355    0.5225 Br        1 <0>        -0.0354
     19 H1          0.9864    1.8379   -0.2582 H         1 <0>         0.0259
     20 H2         -0.6173    1.7688   -1.0273 H         1 <0>         0.0699
     21 H3         -0.4836    1.8634    0.7451 H         1 <0>         0.0703
     22 H4         -0.0603   -0.1927   -2.1771 H         1 <0>         0.0849
     23 H5          1.5585   -0.3356   -1.4495 H         1 <0>         0.0412
     24 H6         -0.7111   -2.3714   -1.2715 H         1 <0>         0.0713
     25 H7          0.8270   -2.5589   -2.1546 H         1 <0>         0.0731
     26 H8         -0.3997   -2.2229    1.4741 H         1 <0>         0.0714
     27 H9          1.2988   -2.3340    2.0063 H         1 <0>         0.0732
     28 H10         1.8275   -0.2074    0.9232 H         1 <0>         0.0413
     29 H11         0.4105    0.0317    1.9743 H         1 <0>         0.0850
     30 H12        -0.6135   -4.5755    0.2291 H         1 <0>         0.1470
     31 H13         0.4852   -8.6886    0.3264 H         1 <0>         0.1453
     32 H14         2.8387   -8.1249    0.0313 H         1 <0>         0.1510
     33 H15         5.1303   -4.1180   -0.4432 H         1 <0>         0.1992
@<TRIPOS>BOND
     1    1    2 1
     2    1   19 1
     3    1   20 1
     4    1   21 1
     5    2    7 1
     6    2    3 1
     7    3    4 1
     8    3   22 1
     9    3   23 1
    10    4    5 1
    11    4   24 1
    12    4   25 1
    13    5    6 1
    14    5    8 1
    15    6    7 1
    16    6   26 1
    17    6   27 1
    18    7   28 1
    19    7   29 1
    20    8   17 ar
    21    8    9 ar
    22    9   14 ar
    23    9   10 ar
    24   10   11 ar
    25   10   30 1
    26   11   12 ar
    27   11   18 1
    28   12   13 ar
    29   12   31 1
    30   13   14 ar
    31   13   32 1
    32   14   15 ar
    33   15   16 ar
    34   16   17 ar
    35   16   33 1
@<TRIPOS>MOLECULE
ZINC04226385
   31    33     0     0     0
SMALL
USER_CHARGES
6-bromo-4-piperazin-1-yl-quinazoline
@<TRIPOS>ATOM
      1 C1         -0.3292    1.7416   -2.3348 C.ar      1 <0>        -0.0536
      2 C2          0.5603    1.0732   -1.5468 C.ar      1 <0>        -0.0860
      3 C3          1.4702    1.7958   -0.7638 C.ar      1 <0>         0.1745
      4 C4          1.4459    3.2114   -0.8011 C.ar      1 <0>        -0.1372
      5 C5          0.5174    3.8675   -1.6160 C.ar      1 <0>        -0.0399
      6 C6         -0.3552    3.1334   -2.3664 C.ar      1 <0>        -0.0877
      7 Br1        -1.6116    4.0184   -3.4683 Br        1 <0>        -0.0220
      8 C7          2.3761    3.9178    0.0004 C.ar      1 <0>         0.3795
      9 N1          3.2213    3.2169    0.7440 N.ar      1 <0>        -0.5524
     10 C8          3.2065    1.8932    0.7462 C.ar      1 <0>         0.3226
     11 N2          2.3687    1.1873    0.0251 N.ar      1 <0>        -0.4913
     12 N3          2.4017    5.2961    0.0076 N.pl3     1 <0>        -0.4846
     13 C9          1.5618    5.8329    1.0874 C.3       1 <0>         0.0274
     14 C10         1.5537    7.3615    1.0119 C.3       1 <0>         0.0040
     15 C11         3.7710    7.3253    0.0417 C.3       1 <0>         0.0019
     16 C12         3.7791    5.7967    0.1172 C.3       1 <0>         0.0286
     17 H1         -1.0268    1.1829   -2.9411 H         1 <0>         0.1520
     18 H2          0.5664   -0.0066   -1.5296 H         1 <0>         0.1576
     19 H3          0.4914    4.9466   -1.6515 H         1 <0>         0.1499
     20 H4          3.9164    1.3709    1.3705 H         1 <0>         0.2061
     21 H5          0.5443    5.4580    0.9772 H         1 <0>         0.1277
     22 H6          1.9632    5.5185    2.0508 H         1 <0>         0.0787
     23 H7          0.9548    7.7628    1.8294 H         1 <0>         0.1457
     24 H8          1.1272    7.6763    0.0595 H         1 <0>         0.1435
     25 H9          4.7885    7.7002    0.1520 H         1 <0>         0.1445
     26 H10         3.3700    7.6397   -0.9218 H         1 <0>         0.1413
     27 H11         4.2056    5.4819    1.0696 H         1 <0>         0.0878
     28 H12         4.3780    5.3954   -0.7003 H         1 <0>         0.1254
     29 N4          2.9343    7.8682    1.1286 N.4       1 <0>        -0.5193
     30 H13         3.3255    7.5808    2.0334 H         1 <0>         0.4334
     31 H14         2.9252    8.8933    1.0697 H         1 <0>         0.4420
@<TRIPOS>BOND
     1    1    6 ar
     2    1    2 ar
     3    1   17 1
     4    2    3 ar
     5    2   18 1
     6    3   11 ar
     7    3    4 ar
     8    4    5 ar
     9    4    8 ar
    10    5    6 ar
    11    5   19 1
    12    6    7 1
    13    8    9 ar
    14    8   12 1
    15    9   10 ar
    16   10   11 ar
    17   10   20 1
    18   12   16 1
    19   12   13 1
    20   13   14 1
    21   13   21 1
    22   13   22 1
    23   14   23 1
    24   14   24 1
    25   14   29 1
    26   15   16 1
    27   15   25 1
    28   15   26 1
    29   15   29 1
    30   16   27 1
    31   16   28 1
    32   29   30 1
    33   29   31 1
