@<TRIPOS>MOLECULE
ZINC03820616
   59    61     0     0     0
SMALL
USER_CHARGES
[6-(diethylaminomethyl)-2-naphthyl]methyl [4-(hydroxycarbamoyl)phenyl]aminoformate
@<TRIPOS>ATOM
      1 C1         -2.0072    1.5391   -0.8062 C.3       1 <0>        -0.1893
      2 C2         -1.5931    0.4421    0.1767 C.3       1 <0>        -0.0124
      3 C3          0.3117   -0.3881    1.4197 C.3       1 <0>        -0.0114
      4 C4         -0.0697    0.3776    2.6882 C.3       1 <0>        -0.1882
      5 C5          0.4246   -0.2094   -0.9923 C.3       1 <0>         0.0435
      6 C6          1.9003    0.0865   -1.0692 C.ar      1 <0>        -0.1511
      7 C7          2.3296    1.3059   -1.5900 C.ar      1 <0>        -0.1197
      8 C8          3.6546    1.6064   -1.6692 C.ar      1 <0>        -0.0785
      9 C9          4.6071    0.6713   -1.2294 C.ar      1 <0>        -0.0393
     10 C10         5.9840    0.9439   -1.3000 C.ar      1 <0>        -0.0772
     11 C11         6.8777    0.0142   -0.8651 C.ar      1 <0>        -0.0736
     12 C12         6.4485   -1.2072   -0.3487 C.ar      1 <0>        -0.0828
     13 C13         5.1234   -1.5061   -0.2657 C.ar      1 <0>        -0.1043
     14 C14         4.1708   -0.5708   -0.7047 C.ar      1 <0>        -0.0491
     15 C15         2.7939   -0.8432   -0.6341 C.ar      1 <0>        -0.0655
     16 C16         8.3533    0.3099   -0.9424 C.3       1 <0>         0.1215
     17 O1          8.7838    0.9502    0.2876 O.3       1 <0>        -0.3605
     18 C17        10.0852    1.2824    0.3808 C.2       1 <0>         0.6519
     19 O2         10.8406    1.0438   -0.5405 O.2       1 <0>        -0.5452
     20 N1         10.5501    1.8796    1.4960 N.am      1 <0>        -0.6482
     21 C18        11.8738    2.3142    1.5541 C.ar      1 <0>         0.1811
     22 C19        12.8755    1.5732    0.9351 C.ar      1 <0>        -0.1241
     23 C20        14.1826    2.0020    0.9863 C.ar      1 <0>        -0.0663
     24 C21        14.5044    3.1775    1.6703 C.ar      1 <0>        -0.1353
     25 C22        13.4965    3.9166    2.2955 C.ar      1 <0>        -0.0324
     26 C23        12.1907    3.4850    2.2359 C.ar      1 <0>        -0.1427
     27 C24        15.9054    3.6375    1.7318 C.2       1 <0>         0.5723
     28 O3         16.1838    4.6606    2.3268 O.2       1 <0>        -0.5137
     29 N2         16.8762    2.9235    1.1283 N.am      1 <0>        -0.5932
     30 O4         18.2204    3.3648    1.1873 O.3       1 <0>        -0.3113
     31 H1         -1.5238    2.4761   -0.5298 H         1 <0>         0.0793
     32 H2         -1.7035    1.2571   -1.8144 H         1 <0>         0.0801
     33 H3         -3.0894    1.6655   -0.7748 H         1 <0>         0.1064
     34 H4         -1.9905   -0.5157   -0.1592 H         1 <0>         0.1316
     35 H5         -1.9885    0.6726    1.1660 H         1 <0>         0.1311
     36 H6         -0.1725   -1.3647    1.4254 H         1 <0>         0.1308
     37 H7          1.3933   -0.5190    1.3856 H         1 <0>         0.1268
     38 H8          0.2560   -0.1843    3.5636 H         1 <0>         0.1057
     39 H9          0.4144    1.3542    2.6825 H         1 <0>         0.0793
     40 H10        -1.1513    0.5085    2.7222 H         1 <0>         0.0803
     41 H11         0.2702   -1.2884   -0.9880 H         1 <0>         0.1365
     42 H12        -0.0787    0.2262   -1.8555 H         1 <0>         0.1374
     43 H13         1.5998    2.0246   -1.9325 H         1 <0>         0.1308
     44 H14         3.9725    2.5570   -2.0713 H         1 <0>         0.1401
     45 H15         6.3312    1.8863   -1.6972 H         1 <0>         0.1393
     46 H16         7.1784   -1.9277   -0.0103 H         1 <0>         0.1358
     47 H17         4.8055   -2.4567    0.1365 H         1 <0>         0.1378
     48 H18         2.4467   -1.7854   -0.2363 H         1 <0>         0.1368
     49 H19         8.9037   -0.6209   -1.0794 H         1 <0>         0.0905
     50 H20         8.5471    0.9739   -1.7848 H         1 <0>         0.0895
     51 H21         9.9639    2.0071    2.2583 H         1 <0>         0.4213
     52 H22        12.6267    0.6625    0.4105 H         1 <0>         0.1487
     53 H23        14.9591    1.4286    0.5018 H         1 <0>         0.1323
     54 H24        13.7417    4.8257    2.8246 H         1 <0>         0.1483
     55 H25        11.4112    4.0559    2.7185 H         1 <0>         0.1401
     56 H26        16.6541    2.1073    0.6535 H         1 <0>         0.4078
     57 H27        18.8443    2.7881    0.7257 H         1 <0>         0.3909
     58 N3         -0.1172    0.3959    0.2424 N.4       1 <0>        -0.3957
     59 H28         0.2428    1.3535    0.3302 H         1 <0>         0.4255
@<TRIPOS>BOND
     1    1    2 1
     2    1   31 1
     3    1   32 1
     4    1   33 1
     5    2   34 1
     6    2   35 1
     7    2   58 1
     8    3    4 1
     9    3   36 1
    10    3   37 1
    11    3   58 1
    12    4   38 1
    13    4   39 1
    14    4   40 1
    15    5    6 1
    16    5   41 1
    17    5   42 1
    18    5   58 1
    19    6   15 ar
    20    6    7 ar
    21    7    8 ar
    22    7   43 1
    23    8    9 ar
    24    8   44 1
    25    9   14 ar
    26    9   10 ar
    27   10   11 ar
    28   10   45 1
    29   11   12 ar
    30   11   16 1
    31   12   13 ar
    32   12   46 1
    33   13   14 ar
    34   13   47 1
    35   14   15 ar
    36   15   48 1
    37   16   17 1
    38   16   49 1
    39   16   50 1
    40   17   18 1
    41   18   19 2
    42   18   20 am
    43   20   21 1
    44   20   51 1
    45   21   26 ar
    46   21   22 ar
    47   22   23 ar
    48   22   52 1
    49   23   24 ar
    50   23   53 1
    51   24   25 ar
    52   24   27 1
    53   25   26 ar
    54   25   54 1
    55   26   55 1
    56   27   28 2
    57   27   29 am
    58   29   30 1
    59   29   56 1
    60   30   57 1
    61   58   59 1
@<TRIPOS>MOLECULE
ZINC13493184
   37    38     0     0     0
SMALL
USER_CHARGES
(E)-3-[1-methyl-4-(2-phenylacetyl)pyrrol-2-yl]prop-2-enehydroxamic acid
@<TRIPOS>ATOM
      1 C1          7.9370   -3.0869   -3.9119 C.3       1 <0>         0.0578
      2 N1          7.0712   -2.5884   -2.8405 N.pl3     1 <0>        -0.4211
      3 C2          5.9111   -1.9364   -3.0191 C.2       1 <0>         0.0969
      4 C3          5.3857   -1.6289   -1.7734 C.2       1 <0>        -0.2631
      5 C4          6.2939   -2.1245   -0.8073 C.2       1 <0>        -0.0995
      6 C5          7.3191   -2.7156   -1.4903 C.2       1 <0>        -0.0044
      7 C6          8.4831   -3.3655   -0.8918 C.2       1 <0>         0.0324
      8 C7          8.5599   -3.5128    0.4529 C.2       1 <0>        -0.2192
      9 C8          9.7344   -4.0422    1.0413 C.2       1 <0>         0.5673
     10 O1         10.6751   -4.3649    0.3387 O.2       1 <0>        -0.5316
     11 N2          9.8108   -4.1888    2.3789 N.am      1 <0>        -0.5942
     12 O2         10.9851   -4.7181    2.9672 O.3       1 <0>        -0.3162
     13 C9          4.1307   -0.9193   -1.5072 C.2       1 <0>         0.4262
     14 O3          3.4411   -0.5393   -2.4303 O.2       1 <0>        -0.4571
     15 C10         3.6971   -0.6619   -0.0871 C.3       1 <0>        -0.1125
     16 C11         2.3842    0.0779   -0.0889 C.ar      1 <0>        -0.0769
     17 C12         1.1943   -0.6258   -0.0801 C.ar      1 <0>        -0.1080
     18 C13        -0.0100    0.0527   -0.0823 C.ar      1 <0>        -0.1188
     19 C14        -0.0245    1.4350   -0.0932 C.ar      1 <0>        -0.1204
     20 C15         1.1653    2.1387   -0.1015 C.ar      1 <0>        -0.1185
     21 C16         2.3696    1.4601   -0.0998 C.ar      1 <0>        -0.1086
     22 H1          8.5999   -2.2883   -4.2446 H         1 <0>         0.0861
     23 H2          8.5316   -3.9214   -3.5400 H         1 <0>         0.0939
     24 H3          7.3237   -3.4222   -4.7483 H         1 <0>         0.0938
     25 H4          5.4633   -1.6928   -3.9712 H         1 <0>         0.1822
     26 H5          6.1939   -2.0519    0.2656 H         1 <0>         0.1541
     27 H6          9.2821   -3.7283   -1.5213 H         1 <0>         0.1378
     28 H7          7.7255   -3.2266    1.0761 H         1 <0>         0.1358
     29 H8          9.0614   -3.9317    2.9386 H         1 <0>         0.4099
     30 H9         10.9461   -4.7854    3.9311 H         1 <0>         0.3888
     31 H10         4.3897   -0.1106    0.3781 H         1 <0>         0.0962
     32 H11         3.5783   -1.6117    0.4343 H         1 <0>         0.1066
     33 H12         1.2057   -1.7057   -0.0720 H         1 <0>         0.1198
     34 H13        -0.9396   -0.4970   -0.0758 H         1 <0>         0.1219
     35 H14        -0.9655    1.9651   -0.0998 H         1 <0>         0.1212
     36 H15         1.1539    3.2186   -0.1103 H         1 <0>         0.1219
     37 H16         3.2992    2.0099   -0.1070 H         1 <0>         0.1194
@<TRIPOS>BOND
     1    1    2 1
     2    1   22 1
     3    1   23 1
     4    1   24 1
     5    2    6 1
     6    2    3 1
     7    3    4 2
     8    3   25 1
     9    4    5 1
    10    4   13 1
    11    5    6 2
    12    5   26 1
    13    6    7 1
    14    7    8 2
    15    7   27 1
    16    8    9 1
    17    8   28 1
    18    9   10 2
    19    9   11 am
    20   11   12 1
    21   11   29 1
    22   12   30 1
    23   13   14 2
    24   13   15 1
    25   15   16 1
    26   15   31 1
    27   15   32 1
    28   16   21 ar
    29   16   17 ar
    30   17   18 ar
    31   17   33 1
    32   18   19 ar
    33   18   34 1
    34   19   20 ar
    35   19   35 1
    36   20   21 ar
    37   20   36 1
    38   21   37 1
@<TRIPOS>MOLECULE
ZINC12502280
   47    47     0     0     0
SMALL
USER_CHARGES

@<TRIPOS>ATOM
      1 C1         -0.0178    1.4608    0.0101 C.3       1 <0>         0.0875
      2 N1          0.0021   -0.0041    0.0020 N.pl3     1 <0>        -0.6298
      3 C2          0.0241   -0.7433    1.2666 C.3       1 <0>         0.0868
      4 C3          0.0000   -0.6928   -1.2059 C.ar      1 <0>         0.2420
      5 C4          0.0132   -2.0849   -1.2118 C.ar      1 <0>        -0.2094
      6 C5          0.0112   -2.7693   -2.4056 C.ar      1 <0>        -0.0062
      7 C6         -0.0041   -2.0653   -3.6133 C.ar      1 <0>        -0.2028
      8 C7         -0.0173   -0.6674   -3.6040 C.ar      1 <0>        -0.0337
      9 C8         -0.0210    0.0112   -2.4068 C.ar      1 <0>        -0.2095
     10 C9         -0.0058   -2.7960   -4.8948 C.2       1 <0>         0.5639
     11 O1          0.0061   -4.0119   -4.9015 O.2       1 <0>        -0.5440
     12 N2         -0.0205   -2.1158   -6.0583 N.am      1 <0>        -0.7322
     13 C10        -0.0222   -2.8414   -7.3310 C.3       1 <0>         0.1179
     14 C11        -0.0401   -1.8410   -8.4884 C.3       1 <0>        -0.1311
     15 C12        -0.0418   -2.5988   -9.8176 C.3       1 <0>        -0.1181
     16 C13        -0.0597   -1.5983  -10.9750 C.3       1 <0>        -0.1181
     17 C14        -0.0614   -2.3561  -12.3041 C.3       1 <0>        -0.1075
     18 C15        -0.0793   -1.3557  -13.4616 C.3       1 <0>        -0.1263
     19 C16        -0.0810   -2.1021  -14.7708 C.2       1 <0>         0.5205
     20 O2         -0.0692   -3.3148  -14.7774 O.2       1 <0>        -0.5182
     21 N3         -0.0957   -1.4220  -15.9342 N.am      1 <0>        -0.6003
     22 O3         -0.0974   -2.1233  -17.1643 O.3       1 <0>        -0.3205
     23 H1          1.0048    1.8381    0.0023 H         1 <0>         0.0528
     24 H2         -0.5450    1.8219   -0.8730 H         1 <0>         0.0718
     25 H3         -0.5280    1.8123    0.9069 H         1 <0>         0.0701
     26 H4         -0.9979   -0.9406    1.5900 H         1 <0>         0.0533
     27 H5          0.5496   -1.6879    1.1262 H         1 <0>         0.0727
     28 H6          0.5371   -0.1514    2.0246 H         1 <0>         0.0702
     29 H7          0.0253   -2.6282   -0.2785 H         1 <0>         0.1298
     30 H8          0.0217   -3.8493   -2.4096 H         1 <0>         0.1352
     31 H9         -0.0287   -0.1208   -4.5353 H         1 <0>         0.1233
     32 H10        -0.0359    1.0910   -2.3989 H         1 <0>         0.1287
     33 H11        -0.0300   -1.1459   -6.0530 H         1 <0>         0.3981
     34 H12         0.8734   -3.4590   -7.3983 H         1 <0>         0.0684
     35 H13        -0.9064   -3.4765   -7.3860 H         1 <0>         0.0684
     36 H14        -0.9357   -1.2234   -8.4211 H         1 <0>         0.0693
     37 H15         0.8441   -1.2060   -8.4334 H         1 <0>         0.0693
     38 H16         0.8538   -3.2164   -9.8849 H         1 <0>         0.0684
     39 H17        -0.9260   -3.2338   -9.8726 H         1 <0>         0.0683
     40 H18        -0.9553   -0.9808  -10.9077 H         1 <0>         0.0648
     41 H19         0.8245   -0.9633  -10.9200 H         1 <0>         0.0648
     42 H20         0.8342   -2.9737  -12.3715 H         1 <0>         0.0738
     43 H21        -0.9456   -2.9912  -12.3591 H         1 <0>         0.0738
     44 H22        -0.9749   -0.7381  -13.3943 H         1 <0>         0.0991
     45 H23         0.8049   -0.7207  -13.4066 H         1 <0>         0.0991
     46 H24        -0.1052   -0.4520  -15.9289 H         1 <0>         0.4079
     47 H25        -0.1084   -1.5507  -17.9435 H         1 <0>         0.3876
@<TRIPOS>BOND
     1    1    2 1
     2    1   23 1
     3    1   24 1
     4    1   25 1
     5    2    3 1
     6    2    4 1
     7    3   26 1
     8    3   27 1
     9    3   28 1
    10    4    9 ar
    11    4    5 ar
    12    5    6 ar
    13    5   29 1
    14    6    7 ar
    15    6   30 1
    16    7    8 ar
    17    7   10 1
    18    8    9 ar
    19    8   31 1
    20    9   32 1
    21   10   11 2
    22   10   12 am
    23   12   13 1
    24   12   33 1
    25   13   14 1
    26   13   34 1
    27   13   35 1
    28   14   15 1
    29   14   36 1
    30   14   37 1
    31   15   16 1
    32   15   38 1
    33   15   39 1
    34   16   17 1
    35   16   40 1
    36   16   41 1
    37   17   18 1
    38   17   42 1
    39   17   43 1
    40   18   19 1
    41   18   44 1
    42   18   45 1
    43   19   20 2
    44   19   21 am
    45   21   22 1
    46   21   46 1
    47   22   47 1
@<TRIPOS>MOLECULE
ZINC04698480
   36    37     0     0     0
SMALL
USER_CHARGES
6-(1,3-dioxoisoindolin-2-yl)hexanehydroxamic acid
@<TRIPOS>ATOM
      1 C1          0.0686   -4.5872    0.6679 C.ar      1 <0>        -0.0946
      2 C2          0.0549   -4.5798   -0.7143 C.ar      1 <0>        -0.0946
      3 C3          0.0324   -3.3813   -1.4103 C.ar      1 <0>        -0.0441
      4 C4          0.0235   -2.1830   -0.7147 C.ar      1 <0>        -0.1421
      5 C5          0.0375   -2.1906    0.6947 C.ar      1 <0>        -0.1421
      6 C6          0.0600   -3.3963    1.3771 C.ar      1 <0>        -0.0441
      7 C7          0.0230   -0.7711    1.1069 C.2       1 <0>         0.5747
      8 O1          0.0289   -0.3653    2.2516 O.2       1 <0>        -0.4596
      9 N1          0.0021   -0.0041    0.0020 N.am      1 <0>        -0.5768
     10 C8         -0.0040   -0.7593   -1.1112 C.2       1 <0>         0.5747
     11 O2         -0.0260   -0.3413   -2.2513 O.2       1 <0>        -0.4596
     12 C9         -0.0178    1.4608    0.0101 C.3       1 <0>         0.1103
     13 C10         1.4176    1.9904   -0.0008 C.3       1 <0>        -0.1378
     14 C11         1.3968    3.5202    0.0076 C.3       1 <0>        -0.1149
     15 C12         2.8322    4.0498   -0.0032 C.3       1 <0>        -0.1058
     16 C13         2.8115    5.5796    0.0052 C.3       1 <0>        -0.1263
     17 C14         4.2253    6.1012   -0.0055 C.2       1 <0>         0.5210
     18 O3          5.1577    5.3257   -0.0186 O.2       1 <0>        -0.5186
     19 N2          4.4536    7.4295   -0.0006 N.am      1 <0>        -0.6000
     20 O4          5.7820    7.9196   -0.0106 O.3       1 <0>        -0.3204
     21 H1          0.0858   -5.5275    1.1990 H         1 <0>         0.1439
     22 H2          0.0614   -5.5143   -1.2556 H         1 <0>         0.1439
     23 H3          0.0214   -3.3816   -2.4903 H         1 <0>         0.1432
     24 H4          0.0711   -3.4081    2.4570 H         1 <0>         0.1432
     25 H5         -0.5450    1.8219   -0.8730 H         1 <0>         0.0981
     26 H6         -0.5280    1.8123    0.9069 H         1 <0>         0.0980
     27 H7          1.9448    1.6293    0.8823 H         1 <0>         0.0723
     28 H8          1.9278    1.6388   -0.8976 H         1 <0>         0.0722
     29 H9          0.8697    3.8813   -0.8754 H         1 <0>         0.0701
     30 H10         0.8867    3.8717    0.9044 H         1 <0>         0.0701
     31 H11         3.3594    3.6887    0.8798 H         1 <0>         0.0744
     32 H12         3.3424    3.6983   -0.9000 H         1 <0>         0.0744
     33 H13         2.2843    5.9407   -0.8779 H         1 <0>         0.1005
     34 H14         2.3013    5.9311    0.9020 H         1 <0>         0.1005
     35 H15         3.7078    8.0497    0.0099 H         1 <0>         0.4082
     36 H16         5.8453    8.8846   -0.0060 H         1 <0>         0.3878
@<TRIPOS>BOND
     1    1    6 ar
     2    1    2 ar
     3    1   21 1
     4    2    3 ar
     5    2   22 1
     6    3    4 ar
     7    3   23 1
     8    4   10 1
     9    4    5 ar
    10    5    6 ar
    11    5    7 1
    12    6   24 1
    13    7    8 2
    14    7    9 am
    15    9   10 am
    16    9   12 1
    17   10   11 2
    18   12   13 1
    19   12   25 1
    20   12   26 1
    21   13   14 1
    22   13   27 1
    23   13   28 1
    24   14   15 1
    25   14   29 1
    26   14   30 1
    27   15   16 1
    28   15   31 1
    29   15   32 1
    30   16   17 1
    31   16   33 1
    32   16   34 1
    33   17   18 2
    34   17   19 am
    35   19   20 1
    36   19   35 1
    37   20   36 1
@<TRIPOS>MOLECULE
ZINC02168376
   34    34     0     0     0
SMALL
USER_CHARGES
8-oxo-8-phenyl-octanoic acid
@<TRIPOS>ATOM
      1 C1         -0.0555    4.2372    0.0248 C.ar      1 <0>        -0.0914
      2 C2          1.1544    3.5653    0.0097 C.ar      1 <0>        -0.1343
      3 C3          1.1815    2.1867    0.0025 C.ar      1 <0>        -0.0639
      4 C4         -0.0179    1.4674    0.0101 C.ar      1 <0>        -0.1692
      5 C5         -1.2364    2.1538    0.0196 C.ar      1 <0>        -0.0725
      6 C6         -1.2467    3.5326    0.0320 C.ar      1 <0>        -0.1336
      7 C7          0.0021   -0.0041    0.0020 C.2       1 <0>         0.3931
      8 O1          1.0602   -0.5960   -0.0113 O.2       1 <0>        -0.4490
      9 C8         -1.2926   -0.7753    0.0102 C.3       1 <0>        -0.1579
     10 C9         -0.9927   -2.2755   -0.0007 C.3       1 <0>        -0.1122
     11 C10        -2.3072   -3.0585    0.0077 C.3       1 <0>        -0.1190
     12 C11        -2.0072   -4.5588   -0.0033 C.3       1 <0>        -0.1201
     13 C12        -3.3217   -5.3417    0.0051 C.3       1 <0>        -0.0984
     14 C13        -3.0217   -6.8420   -0.0058 C.3       1 <0>        -0.1587
     15 C14        -4.3164   -7.6132    0.0024 C.2       1 <0>         0.4571
     16 O2         -5.3709   -7.0233    0.0156 O.co2     1 <0>        -0.6431
     17 H1         -0.0701    5.3171    0.0308 H         1 <0>         0.1262
     18 H2          2.0798    4.1222    0.0039 H         1 <0>         0.1279
     19 H3          2.1264    1.6638   -0.0093 H         1 <0>         0.1329
     20 H4         -2.1667    1.6054    0.0214 H         1 <0>         0.1342
     21 H5         -2.1868    4.0641    0.0431 H         1 <0>         0.1293
     22 H6         -1.8124   -0.5453    0.8330 H         1 <0>         0.0902
     23 H7         -1.8762   -0.5150   -0.8728 H         1 <0>         0.0994
     24 H8         -0.4261   -2.5263   -0.8975 H         1 <0>         0.0674
     25 H9         -0.4091   -2.5358    0.8824 H         1 <0>         0.0671
     26 H10        -2.8737   -2.8077    0.9045 H         1 <0>         0.0617
     27 H11        -2.8907   -2.7982   -0.8754 H         1 <0>         0.0620
     28 H12        -1.4407   -4.8095   -0.9000 H         1 <0>         0.0571
     29 H13        -1.4237   -4.8190    0.8798 H         1 <0>         0.0569
     30 H14        -3.8882   -5.0910    0.9019 H         1 <0>         0.0586
     31 H15        -3.9052   -5.0814   -0.8780 H         1 <0>         0.0587
     32 H16        -2.4552   -7.0927   -0.9026 H         1 <0>         0.0616
     33 H17        -2.4382   -7.1023    0.8772 H         1 <0>         0.0615
     34 O3         -4.2982   -8.9553   -0.0050 O.co2     1 <0>        -0.7798
@<TRIPOS>BOND
     1    1    6 ar
     2    1    2 ar
     3    1   17 1
     4    2    3 ar
     5    2   18 1
     6    3    4 ar
     7    3   19 1
     8    4    5 ar
     9    4    7 1
    10    5    6 ar
    11    5   20 1
    12    6   21 1
    13    7    8 2
    14    7    9 1
    15    9   10 1
    16    9   22 1
    17    9   23 1
    18   10   11 1
    19   10   24 1
    20   10   25 1
    21   11   12 1
    22   11   26 1
    23   11   27 1
    24   12   13 1
    25   12   28 1
    26   12   29 1
    27   13   14 1
    28   13   30 1
    29   13   31 1
    30   14   15 1
    31   14   32 1
    32   14   33 1
    33   15   16 2
    34   15   34 1
@<TRIPOS>MOLECULE
ZINC43152558
   57    58     0     0     0
SMALL
USER_CHARGES

@<TRIPOS>ATOM
      1 C1         -0.0547    1.6647    1.0116 C.3       1 <0>        -0.1573
      2 C2         -0.0113    0.1924    0.5977 C.3       1 <0>        -0.1225
      3 C3          0.7748    0.0525   -0.7075 C.3       1 <0>        -0.1176
      4 C4          0.8183   -1.4198   -1.1214 C.3       1 <0>        -0.0454
      5 C5          1.5925   -1.5576   -2.4069 C.2       1 <0>         0.2877
      6 N1          1.0755   -1.4903   -3.5986 N.2       1 <0>        -0.4645
      7 C6          2.0524   -1.6550   -4.5285 C.ar      1 <0>         0.0502
      8 C7          2.0572   -1.6722   -5.9222 C.ar      1 <0>        -0.0246
      9 C8          3.2580   -1.8691   -6.6017 C.ar      1 <0>        -0.0765
     10 C9          4.4518   -2.0485   -5.8855 C.ar      1 <0>        -0.0728
     11 C10         4.4485   -2.0319   -4.5218 C.ar      1 <0>        -0.1181
     12 C11         3.2589   -1.8365   -3.8277 C.ar      1 <0>         0.0536
     13 N2          2.9349   -1.7646   -2.4897 N.pl3     1 <0>        -0.4944
     14 C12         3.8641   -1.8911   -1.3642 C.3       1 <0>         0.0918
     15 C13         3.9690   -3.3609   -0.9522 C.3       1 <0>        -0.0366
     16 N3          4.9007   -3.4877    0.1764 N.4       1 <0>        -0.3827
     17 C14         4.3483   -2.7942    1.3477 C.3       1 <0>        -0.0203
     18 C15         5.3789   -2.8030    2.4786 C.3       1 <0>        -0.1875
     19 C16         5.0937   -4.9088    0.4947 C.3       1 <0>        -0.0142
     20 C17         5.7995   -5.6016   -0.6727 C.3       1 <0>        -0.1896
     21 C18         3.2743   -1.8895   -8.0723 C.2       1 <0>        -0.0082
     22 C19         4.4360   -2.0801   -8.7315 C.2       1 <0>        -0.2003
     23 C20         4.4522   -2.1004  -10.1943 C.2       1 <0>         0.5574
     24 O1          3.4177   -1.9454  -10.8165 O.2       1 <0>        -0.5196
     25 N4          5.6126   -2.2907  -10.8528 N.am      1 <0>        -0.5929
     26 O2          5.6282   -2.3103  -12.2686 O.3       1 <0>        -0.3132
     27 H1          0.9613    2.0310    1.1583 H         1 <0>         0.0528
     28 H2         -0.5418    2.2476    0.2298 H         1 <0>         0.0591
     29 H3         -0.6147    1.7643    1.9414 H         1 <0>         0.0602
     30 H4          0.4758   -0.3906    1.3794 H         1 <0>         0.0596
     31 H5         -1.0273   -0.1740    0.4509 H         1 <0>         0.0704
     32 H6          0.2877    0.6354   -1.4892 H         1 <0>         0.0794
     33 H7          1.7908    0.4188   -0.5608 H         1 <0>         0.0596
     34 H8          1.3053   -2.0028   -0.3397 H         1 <0>         0.0761
     35 H9         -0.1978   -1.7861   -1.2681 H         1 <0>         0.1105
     36 H10         1.1375   -1.5343   -6.4713 H         1 <0>         0.1447
     37 H11         5.3790   -2.2010   -6.4179 H         1 <0>         0.1404
     38 H12         5.3720   -2.1707   -3.9793 H         1 <0>         0.1230
     39 H13         4.8471   -1.5262   -1.6618 H         1 <0>         0.1124
     40 H14         3.4977   -1.3031   -0.5227 H         1 <0>         0.1149
     41 H15         2.9859   -3.7258   -0.6546 H         1 <0>         0.1380
     42 H16         4.3354   -3.9488   -1.7937 H         1 <0>         0.1409
     43 H17         4.1100   -1.7645    1.0814 H         1 <0>         0.1299
     44 H18         3.4426   -3.3031    1.6776 H         1 <0>         0.1337
     45 H19         5.5380   -3.8268    2.8172 H         1 <0>         0.0830
     46 H20         6.3201   -2.3900    2.1156 H         1 <0>         0.0812
     47 H21         5.0129   -2.1986    3.3085 H         1 <0>         0.1090
     48 H22         5.7032   -5.0003    1.3937 H         1 <0>         0.1370
     49 H23         4.1245   -5.3782    0.6635 H         1 <0>         0.1313
     50 H24         5.1427   -5.6074   -1.5425 H         1 <0>         0.0795
     51 H25         6.7166   -5.0640   -0.9135 H         1 <0>         0.0809
     52 H26         6.0420   -6.6270   -0.3937 H         1 <0>         0.1092
     53 H27         2.3564   -1.7520   -8.6244 H         1 <0>         0.1443
     54 H28         5.3539   -2.2176   -8.1793 H         1 <0>         0.1341
     55 H29         6.4370   -2.4142  -10.3569 H         1 <0>         0.4087
     56 H30         6.5052   -2.4528  -12.6503 H         1 <0>         0.3907
     57 H31         5.7875   -3.0751   -0.0715 H         1 <0>         0.4236
@<TRIPOS>BOND
     1    1    2 1
     2    1   27 1
     3    1   28 1
     4    1   29 1
     5    2    3 1
     6    2   30 1
     7    2   31 1
     8    3    4 1
     9    3   32 1
    10    3   33 1
    11    4    5 1
    12    4   34 1
    13    4   35 1
    14    5   13 1
    15    5    6 2
    16    6    7 1
    17    7   12 ar
    18    7    8 ar
    19    8    9 ar
    20    8   36 1
    21    9   10 ar
    22    9   21 1
    23   10   11 ar
    24   10   37 1
    25   11   12 ar
    26   11   38 1
    27   12   13 1
    28   13   14 1
    29   14   15 1
    30   14   39 1
    31   14   40 1
    32   15   16 1
    33   15   41 1
    34   15   42 1
    35   16   17 1
    36   16   19 1
    37   16   57 1
    38   17   18 1
    39   17   43 1
    40   17   44 1
    41   18   45 1
    42   18   46 1
    43   18   47 1
    44   19   20 1
    45   19   48 1
    46   19   49 1
    47   20   50 1
    48   20   51 1
    49   20   52 1
    50   21   22 2
    51   21   53 1
    52   22   23 1
    53   22   54 1
    54   23   24 2
    55   23   25 am
    56   25   26 1
    57   25   55 1
    58   26   56 1
@<TRIPOS>MOLECULE
ZINC13671719
   43    44     0     0     0
SMALL
USER_CHARGES
(2R)-N-[4-(hydroxycarbamoyl)phenyl]-3-methyl-2-phenyl-butanamide
@<TRIPOS>ATOM
      1 C1          0.2416   -4.2536    0.9860 C.3       1 <0>        -0.1660
      2 C2          1.6478   -4.8529    0.9199 C.3       1 <0>        -0.0819
      3 C3          1.5491   -6.3586    0.6670 C.3       1 <0>        -0.1460
      4 C4          2.4297   -4.1946   -0.2186 C.3       1 <0>        -0.0601
      5 H1          1.8692   -4.2925   -1.1484 H         1 <0>         0.1048
      6 C5          3.7683   -4.8711   -0.3655 C.ar      1 <0>        -0.0750
      7 C6          4.6614   -4.8724    0.6896 C.ar      1 <0>        -0.0802
      8 C7          5.8876   -5.4967    0.5564 C.ar      1 <0>        -0.1229
      9 C8          6.2242   -6.1118   -0.6349 C.ar      1 <0>        -0.1154
     10 C9          5.3332   -6.1059   -1.6918 C.ar      1 <0>        -0.1231
     11 C10         4.1053   -5.4853   -1.5571 C.ar      1 <0>        -0.1105
     12 C11         2.6361   -2.7345    0.0922 C.2       1 <0>         0.5219
     13 O1          3.7158   -2.3445    0.4830 O.2       1 <0>        -0.5022
     14 N1          1.6207   -1.8622   -0.0642 N.am      1 <0>        -0.6747
     15 C12         1.8223   -0.5054    0.1865 C.ar      1 <0>         0.1760
     16 C13         1.1783    0.4482   -0.5956 C.ar      1 <0>        -0.1509
     17 C14         1.3751    1.7885   -0.3508 C.ar      1 <0>        -0.0324
     18 C15         2.2230    2.1909    0.6848 C.ar      1 <0>        -0.1441
     19 C16         2.8686    1.2305    1.4681 C.ar      1 <0>        -0.0667
     20 C17         2.6674   -0.1082    1.2179 C.ar      1 <0>        -0.1264
     21 C18         2.4367    3.6270    0.9498 C.2       1 <0>         0.5743
     22 O2          1.8749    4.4615    0.2669 O.2       1 <0>        -0.5170
     23 N2          3.2547    4.0134    1.9489 N.am      1 <0>        -0.5941
     24 O3          3.4598    5.3912    2.2032 O.3       1 <0>        -0.3131
     25 H2         -0.3199   -4.5455    0.0985 H         1 <0>         0.0637
     26 H3         -0.2688   -4.6216    1.8761 H         1 <0>         0.0675
     27 H4          0.3115   -3.1668    1.0305 H         1 <0>         0.0588
     28 H5          2.1628   -4.6760    1.8641 H         1 <0>         0.0791
     29 H6          1.0341   -6.5354   -0.2772 H         1 <0>         0.0584
     30 H7          2.5509   -6.7855    0.6199 H         1 <0>         0.0625
     31 H8          0.9921   -6.8275    1.4781 H         1 <0>         0.0607
     32 H9          4.3999   -4.3887    1.6191 H         1 <0>         0.1211
     33 H10         6.5836   -5.5016    1.3822 H         1 <0>         0.1218
     34 H11         7.1833   -6.5972   -0.7399 H         1 <0>         0.1213
     35 H12         5.5962   -6.5864   -2.6225 H         1 <0>         0.1224
     36 H13         3.4091   -5.4807   -2.3828 H         1 <0>         0.1203
     37 H14         0.7496   -2.1782   -0.3512 H         1 <0>         0.4153
     38 H15         0.5229    0.1365   -1.3955 H         1 <0>         0.1372
     39 H16         0.8784    2.5282   -0.9611 H         1 <0>         0.1445
     40 H17         3.5245    1.5381    2.2692 H         1 <0>         0.1288
     41 H18         3.1658   -0.8510    1.8232 H         1 <0>         0.1450
     42 H19         3.7029    3.3477    2.4937 H         1 <0>         0.4078
     43 H20         4.0620    5.5701    2.9384 H         1 <0>         0.3895
@<TRIPOS>BOND
     1    1    2 1
     2    1   25 1
     3    1   26 1
     4    1   27 1
     5    2    3 1
     6    2    4 1
     7    2   28 1
     8    3   29 1
     9    3   30 1
    10    3   31 1
    11    4    5 1
    12    4    6 1
    13    4   12 1
    14    6   11 ar
    15    6    7 ar
    16    7    8 ar
    17    7   32 1
    18    8    9 ar
    19    8   33 1
    20    9   10 ar
    21    9   34 1
    22   10   11 ar
    23   10   35 1
    24   11   36 1
    25   12   13 2
    26   12   14 am
    27   14   15 1
    28   14   37 1
    29   15   20 ar
    30   15   16 ar
    31   16   17 ar
    32   16   38 1
    33   17   18 ar
    34   17   39 1
    35   18   19 ar
    36   18   21 1
    37   19   20 ar
    38   19   40 1
    39   20   41 1
    40   21   22 2
    41   21   23 am
    42   23   24 1
    43   23   42 1
    44   24   43 1
@<TRIPOS>MOLECULE
ZINC13671721
   43    44     0     0     0
SMALL
USER_CHARGES
(2S)-N-[4-(hydroxycarbamoyl)phenyl]-3-methyl-2-phenyl-butanamide
@<TRIPOS>ATOM
      1 C1         -8.2220    6.4735    1.7792 C.3       1 <0>        -0.1458
      2 C2         -6.9495    5.6440    1.5964 C.3       1 <0>        -0.0814
      3 C3         -7.3101    4.1575    1.5618 C.3       1 <0>        -0.1603
      4 C4         -6.2704    6.0348    0.2822 C.3       1 <0>        -0.0579
      5 H1         -6.9534    5.8531   -0.5477 H         1 <0>         0.1015
      6 C5         -5.9045    7.4962    0.3210 C.ar      1 <0>        -0.0793
      7 C6         -5.0484    7.9686    1.2980 C.ar      1 <0>        -0.0806
      8 C7         -4.7093    9.3084    1.3309 C.ar      1 <0>        -0.1227
      9 C8         -5.2339   10.1773    0.3926 C.ar      1 <0>        -0.1150
     10 C9         -6.0939    9.7057   -0.5816 C.ar      1 <0>        -0.1241
     11 C10        -6.4295    8.3652   -0.6171 C.ar      1 <0>        -0.1107
     12 C11        -5.0233    5.2095    0.0964 C.2       1 <0>         0.5225
     13 O1         -3.9504    5.6413    0.4612 O.2       1 <0>        -0.5003
     14 N1         -5.1003    3.9914   -0.4753 N.am      1 <0>        -0.6735
     15 C12        -3.9584    3.1982   -0.5829 C.ar      1 <0>         0.1801
     16 C13        -2.9783    3.2553    0.4030 C.ar      1 <0>        -0.1284
     17 C14        -1.8500    2.4733    0.3001 C.ar      1 <0>        -0.0311
     18 C15        -1.6897    1.6214   -0.7961 C.ar      1 <0>        -0.1457
     19 C16        -2.6737    1.5705   -1.7872 C.ar      1 <0>        -0.0650
     20 C17        -3.8020    2.3513   -1.6755 C.ar      1 <0>        -0.1537
     21 C18        -0.4811    0.7819   -0.9100 C.2       1 <0>         0.5739
     22 O2          0.3764    0.8310   -0.0494 O.2       1 <0>        -0.5155
     23 N2         -0.3307   -0.0432   -1.9650 N.am      1 <0>        -0.5946
     24 O3          0.8261   -0.8529   -2.0712 O.3       1 <0>        -0.3131
     25 H2         -7.9651    7.5324    1.8039 H         1 <0>         0.0617
     26 H3         -8.9019    6.2838    0.9486 H         1 <0>         0.0578
     27 H4         -8.7058    6.1951    2.7155 H         1 <0>         0.0611
     28 H5         -6.2697    5.8337    2.4270 H         1 <0>         0.0810
     29 H6         -6.3975    3.5631    1.5193 H         1 <0>         0.0579
     30 H7         -7.8709    3.8987    2.4599 H         1 <0>         0.0667
     31 H8         -7.9190    3.9518    0.6814 H         1 <0>         0.0595
     32 H9         -4.6417    7.2904    2.0336 H         1 <0>         0.1246
     33 H10        -4.0372    9.6767    2.0918 H         1 <0>         0.1224
     34 H11        -4.9717   11.2247    0.4203 H         1 <0>         0.1215
     35 H12        -6.5038   10.3847   -1.3147 H         1 <0>         0.1224
     36 H13        -7.1017    7.9968   -1.3780 H         1 <0>         0.1202
     37 H14        -5.9500    3.6664   -0.8120 H         1 <0>         0.4139
     38 H15        -3.1029    3.9136    1.2500 H         1 <0>         0.1457
     39 H16        -1.0897    2.5177    1.0658 H         1 <0>         0.1434
     40 H17        -2.5509    0.9162   -2.6377 H         1 <0>         0.1297
     41 H18        -4.5647    2.3093   -2.4391 H         1 <0>         0.1353
     42 H19        -1.0148   -0.0824   -2.6515 H         1 <0>         0.4070
     43 H20         0.8447   -1.4106   -2.8609 H         1 <0>         0.3891
@<TRIPOS>BOND
     1    1    2 1
     2    1   25 1
     3    1   26 1
     4    1   27 1
     5    2    3 1
     6    2    4 1
     7    2   28 1
     8    3   29 1
     9    3   30 1
    10    3   31 1
    11    4    5 1
    12    4    6 1
    13    4   12 1
    14    6   11 ar
    15    6    7 ar
    16    7    8 ar
    17    7   32 1
    18    8    9 ar
    19    8   33 1
    20    9   10 ar
    21    9   34 1
    22   10   11 ar
    23   10   35 1
    24   11   36 1
    25   12   13 2
    26   12   14 am
    27   14   15 1
    28   14   37 1
    29   15   20 ar
    30   15   16 ar
    31   16   17 ar
    32   16   38 1
    33   17   18 ar
    34   17   39 1
    35   18   19 ar
    36   18   21 1
    37   19   20 ar
    38   19   40 1
    39   20   41 1
    40   21   22 2
    41   21   23 am
    42   23   24 1
    43   23   42 1
    44   24   43 1
@<TRIPOS>MOLECULE
ZINC13679864
   29    29     0     0     0
SMALL
USER_CHARGES
(2E,4E)-6-(4-chlorophenyl)sulfanylhexa-2,4-dienehydroxamic acid
@<TRIPOS>ATOM
      1 C1          0.0021   -0.0041    0.0020 C.ar      1 <0>        -0.0874
      2 C2         -0.0167    1.3766    0.0096 C.ar      1 <0>        -0.0891
      3 C3          1.1715    2.0863    0.0021 C.ar      1 <0>        -0.0410
      4 C4          2.3817    1.4149   -0.0132 C.ar      1 <0>        -0.0890
      5 C5          2.4069    0.0343   -0.0208 C.ar      1 <0>        -0.1233
      6 C6          1.2156   -0.6810   -0.0133 C.ar      1 <0>        -0.0835
      7 S1          1.2436   -2.4427   -0.0224 S.3       1 <0>        -0.0927
      8 C7          3.0104   -2.8534   -0.0417 C.3       1 <0>        -0.0872
      9 C8          3.1779   -4.3510   -0.0509 C.2       1 <0>        -0.1040
     10 C9          3.7270   -4.9544   -1.1065 C.2       1 <0>        -0.1214
     11 C10         3.8897   -6.4087   -1.1154 C.2       1 <0>        -0.0212
     12 C11         4.4462   -7.0200   -2.1849 C.2       1 <0>        -0.2008
     13 C12         4.6087   -8.4735   -2.1938 C.2       1 <0>         0.5581
     14 O1          4.2430   -9.1327   -1.2382 O.2       1 <0>        -0.5245
     15 N1          5.1635   -9.0830   -3.2602 N.am      1 <0>        -0.5933
     16 O2          5.3209  -10.4902   -3.2689 O.3       1 <0>        -0.3159
     17 Cl1         1.1439    3.8220    0.0111 Cl        1 <0>        -0.0645
     18 H1         -0.9254   -0.5573    0.0083 H         1 <0>         0.1389
     19 H2         -0.9595    1.9033    0.0169 H         1 <0>         0.1407
     20 H3          3.3072    1.9714   -0.0187 H         1 <0>         0.1379
     21 H4          3.3515   -0.4890   -0.0323 H         1 <0>         0.1323
     22 H5          3.4719   -2.4307   -0.9341 H         1 <0>         0.0973
     23 H6          3.4893   -2.4397    0.8457 H         1 <0>         0.1054
     24 H7          2.8534   -4.9359    0.7970 H         1 <0>         0.1312
     25 H8          4.0515   -4.3695   -1.9544 H         1 <0>         0.1265
     26 H9          3.5652   -6.9936   -0.2674 H         1 <0>         0.1362
     27 H10         4.7706   -6.4351   -3.0329 H         1 <0>         0.1352
     28 H11         5.4550   -8.5577   -4.0218 H         1 <0>         0.4100
     29 H12         5.7278  -10.8355   -4.0753 H         1 <0>         0.3892
@<TRIPOS>BOND
     1    1    6 ar
     2    1    2 ar
     3    1   18 1
     4    2    3 ar
     5    2   19 1
     6    3    4 ar
     7    3   17 1
     8    4    5 ar
     9    4   20 1
    10    5    6 ar
    11    5   21 1
    12    6    7 1
    13    7    8 1
    14    8    9 1
    15    8   22 1
    16    8   23 1
    17    9   10 2
    18    9   24 1
    19   10   11 1
    20   10   25 1
    21   11   12 2
    22   11   26 1
    23   12   13 1
    24   12   27 1
    25   13   14 2
    26   13   15 am
    27   15   16 1
    28   15   28 1
    29   16   29 1
@<TRIPOS>MOLECULE
ZINC01488870
   48    50     0     0     0
SMALL
USER_CHARGES

@<TRIPOS>ATOM
      1 C1         -0.0187    1.3748   -0.0241 C.ar      1 <0>        -0.0854
      2 C2          1.0867    1.9474   -0.6261 C.ar      1 <0>        -0.1553
      3 C3          2.2982    1.2818   -0.6319 C.ar      1 <0>        -0.0833
      4 C4          2.4078    0.0361   -0.0323 C.ar      1 <0>         0.0679
      5 C5          1.2931   -0.5414    0.5754 C.ar      1 <0>         0.1915
      6 C6          0.0812    0.1336    0.5760 C.ar      1 <0>        -0.1796
      7 N1          1.3966   -1.7979    1.1817 N.pl3     1 <0>        -0.8806
      8 N2          3.6344   -0.6404   -0.0373 N.am      1 <0>        -0.6607
      9 C7          4.7855    0.0520   -0.1472 C.2       1 <0>         0.5565
     10 O1          4.7666    1.2676   -0.1407 O.2       1 <0>        -0.5108
     11 C8          6.0709   -0.6665   -0.2756 C.ar      1 <0>        -0.1236
     12 C9          6.0955   -2.0621   -0.2893 C.ar      1 <0>        -0.0892
     13 C10         7.2985   -2.7265   -0.4099 C.ar      1 <0>        -0.1018
     14 C11         8.4788   -2.0126   -0.5172 C.ar      1 <0>        -0.0864
     15 C12         8.4614   -0.6291   -0.5044 C.ar      1 <0>        -0.1009
     16 C13         7.2648    0.0476   -0.3897 C.ar      1 <0>        -0.0571
     17 C14         9.7893   -2.7451   -0.6481 C.3       1 <0>         0.1758
     18 N3         10.0825   -2.9719   -2.0655 N.am      1 <0>        -0.7057
     19 C15        11.2113   -3.6141   -2.4258 C.2       1 <0>         0.6491
     20 O2         11.9858   -4.0050   -1.5750 O.2       1 <0>        -0.5667
     21 O3         11.4808   -3.8225   -3.7283 O.3       1 <0>        -0.3603
     22 C16        12.6949   -4.5097   -4.0378 C.3       1 <0>         0.1337
     23 C17        12.8257   -4.6499   -5.5325 C.ar      1 <0>        -0.1541
     24 C18        12.3023   -5.7575   -6.1823 C.ar      1 <0>        -0.0489
     25 C19        12.4462   -5.8443   -7.5584 C.ar      1 <0>        -0.1753
     26 C20        13.1021   -4.8312   -8.2322 C.ar      1 <0>         0.1111
     27 N4         13.5877   -3.7925   -7.5813 N.ar      1 <0>        -0.4858
     28 C21        13.4639   -3.6737   -6.2736 C.ar      1 <0>         0.1269
     29 H1         -0.9619    1.9009   -0.0188 H         1 <0>         0.1238
     30 H2          1.0031    2.9174   -1.0935 H         1 <0>         0.1240
     31 H3          3.1592    1.7317   -1.1037 H         1 <0>         0.1448
     32 H4         -0.7841   -0.3105    1.0455 H         1 <0>         0.1250
     33 H5          2.2446   -2.2689    1.1799 H         1 <0>         0.3907
     34 H6          0.6204   -2.1981    1.6039 H         1 <0>         0.4028
     35 H7          3.6554   -1.6072    0.0383 H         1 <0>         0.4029
     36 H8          5.1749   -2.6205   -0.2052 H         1 <0>         0.1271
     37 H9          7.3190   -3.8062   -0.4202 H         1 <0>         0.1348
     38 H10         9.3863   -0.0779   -0.5885 H         1 <0>         0.1368
     39 H11         7.2522    1.1276   -0.3840 H         1 <0>         0.1427
     40 H12        10.5854   -2.1480   -0.2034 H         1 <0>         0.0862
     41 H13         9.7229   -3.7034   -0.1330 H         1 <0>         0.0854
     42 H14         9.4642   -2.6598   -2.7446 H         1 <0>         0.4098
     43 H15        13.5418   -3.9433   -3.6505 H         1 <0>         0.0837
     44 H16        12.6793   -5.4988   -3.5800 H         1 <0>         0.0817
     45 H17        11.7948   -6.5342   -5.6294 H         1 <0>         0.1376
     46 H18        12.0512   -6.6930   -8.0970 H         1 <0>         0.1404
     47 H19        13.2184   -4.8913   -9.3043 H         1 <0>         0.1603
     48 H20        13.8700   -2.8057   -5.7757 H         1 <0>         0.1583
@<TRIPOS>BOND
     1    1    6 ar
     2    1    2 ar
     3    1   29 1
     4    2    3 ar
     5    2   30 1
     6    3    4 ar
     7    3   31 1
     8    4    5 ar
     9    4    8 1
    10    5    6 ar
    11    5    7 1
    12    6   32 1
    13    7   33 1
    14    7   34 1
    15    8    9 am
    16    8   35 1
    17    9   10 2
    18    9   11 1
    19   11   16 ar
    20   11   12 ar
    21   12   13 ar
    22   12   36 1
    23   13   14 ar
    24   13   37 1
    25   14   15 ar
    26   14   17 1
    27   15   16 ar
    28   15   38 1
    29   16   39 1
    30   17   18 1
    31   17   40 1
    32   17   41 1
    33   18   19 am
    34   18   42 1
    35   19   20 2
    36   19   21 1
    37   21   22 1
    38   22   23 1
    39   22   43 1
    40   22   44 1
    41   23   28 ar
    42   23   24 ar
    43   24   25 ar
    44   24   45 1
    45   25   26 ar
    46   25   46 1
    47   26   27 ar
    48   26   47 1
    49   27   28 ar
    50   28   48 1
@<TRIPOS>MOLECULE
ZINC03873635
   30    29     0     0     0
SMALL
USER_CHARGES
octanedihydroxamic acid
@<TRIPOS>ATOM
      1 C1         -4.9634    0.6713    0.0292 C.3       1 <0>        -0.1203
      2 C2         -3.8141    1.6813    0.0293 C.3       1 <0>        -0.1203
      3 C3         -2.4789    0.9344    0.0189 C.3       1 <0>        -0.1061
      4 C4         -1.3296    1.9443    0.0189 C.3       1 <0>        -0.1272
      5 C5         -0.0144    1.2086    0.0087 C.2       1 <0>         0.5212
      6 O1          0.0021   -0.0041    0.0020 O.2       1 <0>        -0.5197
      7 N1          1.1435    1.8983    0.0013 N.am      1 <0>        -0.6002
      8 O2          2.3793    1.2071   -0.0142 O.3       1 <0>        -0.3209
      9 C6         -6.2987    1.4182    0.0396 C.3       1 <0>        -0.1061
     10 C7         -7.4480    0.4083    0.0396 C.3       1 <0>        -0.1273
     11 C8         -8.7632    1.1440    0.0498 C.2       1 <0>         0.5212
     12 O3         -8.7797    2.3567    0.0565 O.2       1 <0>        -0.5197
     13 N2         -9.9211    0.4543    0.0516 N.am      1 <0>        -0.6002
     14 O4        -11.1569    1.1456    0.0612 O.3       1 <0>        -0.3209
     15 H1         -4.9014    0.0504   -0.8644 H         1 <0>         0.0660
     16 H2         -4.8930    0.0407    0.9155 H         1 <0>         0.0660
     17 H3         -3.8761    2.3022    0.9230 H         1 <0>         0.0660
     18 H4         -3.8846    2.3119   -0.8570 H         1 <0>         0.0660
     19 H5         -2.4169    0.3134   -0.8748 H         1 <0>         0.0730
     20 H6         -2.4084    0.3037    0.9051 H         1 <0>         0.0730
     21 H7         -1.3916    2.5653    0.9126 H         1 <0>         0.0996
     22 H8         -1.4000    2.5749   -0.8673 H         1 <0>         0.0997
     23 H9          1.1304    2.8682    0.0067 H         1 <0>         0.4083
     24 H10         3.1538    1.7861   -0.0185 H         1 <0>         0.3877
     25 H11        -6.3607    2.0392    0.9333 H         1 <0>         0.0730
     26 H12        -6.3692    2.0489   -0.8466 H         1 <0>         0.0730
     27 H13        -7.3860   -0.2127   -0.8541 H         1 <0>         0.0996
     28 H14        -7.3776   -0.2223    0.9258 H         1 <0>         0.0996
     29 H15        -9.9080   -0.5156    0.0462 H         1 <0>         0.4083
     30 H16       -11.9314    0.5666    0.0617 H         1 <0>         0.3877
@<TRIPOS>BOND
     1    1    2 1
     2    1    9 1
     3    1   15 1
     4    1   16 1
     5    2    3 1
     6    2   17 1
     7    2   18 1
     8    3    4 1
     9    3   19 1
    10    3   20 1
    11    4    5 1
    12    4   21 1
    13    4   22 1
    14    5    6 2
    15    5    7 am
    16    7    8 1
    17    7   23 1
    18    8   24 1
    19    9   10 1
    20    9   25 1
    21    9   26 1
    22   10   11 1
    23   10   27 1
    24   10   28 1
    25   11   12 2
    26   11   13 am
    27   13   14 1
    28   13   29 1
    29   14   30 1
@<TRIPOS>MOLECULE
ZINC03820709
   38    38     0     0     0
SMALL
USER_CHARGES
8-hydroxyamino-8-oxo-N-(3-pyridyl)octanamide
@<TRIPOS>ATOM
      1 C1         -1.1443    2.7980   -0.6920 C.ar      1 <0>        -0.1504
      2 C2         -0.0098    3.5927   -0.7238 C.ar      1 <0>        -0.0804
      3 C3          1.1053    3.1830    0.0025 C.ar      1 <0>         0.0952
      4 C4          1.0398    2.0003    0.7276 C.ar      1 <0>         0.0763
      5 N1         -0.0595    1.2735    0.7303 N.ar      1 <0>        -0.4653
      6 C5         -1.1343    1.6367    0.0576 C.ar      1 <0>         0.0801
      7 N2          2.2749    3.9516    0.0015 N.am      1 <0>        -0.6725
      8 C6          2.1991    5.2939   -0.0928 C.2       1 <0>         0.5128
      9 O1          1.1176    5.8426   -0.0805 O.2       1 <0>        -0.5178
     10 C7          3.4583    6.1130   -0.2135 C.3       1 <0>        -0.1399
     11 C8          3.0950    7.5965   -0.3041 C.3       1 <0>        -0.1056
     12 C9          4.3734    8.4281   -0.4266 C.3       1 <0>        -0.1207
     13 C10         4.0100    9.9115   -0.5173 C.3       1 <0>        -0.1198
     14 C11         5.2884   10.7432   -0.6398 C.3       1 <0>        -0.1063
     15 C12         4.9251   12.2266   -0.7305 C.3       1 <0>        -0.1272
     16 C13         6.1843   13.0458   -0.8512 C.2       1 <0>         0.5211
     17 O2          7.2658   12.4971   -0.8635 O.2       1 <0>        -0.5194
     18 N3          6.1085   14.3881   -0.9455 N.am      1 <0>        -0.6001
     19 O3          7.2917   15.1577   -1.0589 O.3       1 <0>        -0.3207
     20 H1         -2.0277    3.0848   -1.2430 H         1 <0>         0.1398
     21 H2          0.0090    4.5075   -1.2975 H         1 <0>         0.1451
     22 H3          1.8986    1.6727    1.2947 H         1 <0>         0.1574
     23 H4         -2.0173    1.0156    0.0891 H         1 <0>         0.1592
     24 H5          3.1401    3.5181    0.0687 H         1 <0>         0.4149
     25 H6          4.0860    5.9455    0.6618 H         1 <0>         0.0991
     26 H7          4.0002    5.8161   -1.1114 H         1 <0>         0.0998
     27 H8          2.4673    7.7640   -1.1794 H         1 <0>         0.0711
     28 H9          2.5531    7.8933    0.5938 H         1 <0>         0.0714
     29 H10         5.0011    8.2606    0.4486 H         1 <0>         0.0656
     30 H11         4.9153    8.1312   -1.3246 H         1 <0>         0.0655
     31 H12         3.3823   10.0791   -1.3926 H         1 <0>         0.0654
     32 H13         3.4681   10.2084    0.3806 H         1 <0>         0.0654
     33 H14         5.9161   10.5757    0.2354 H         1 <0>         0.0730
     34 H15         5.8303   10.4463   -1.5378 H         1 <0>         0.0730
     35 H16         4.2974   12.3941   -1.6057 H         1 <0>         0.0994
     36 H17         4.3832   12.5235    0.1674 H         1 <0>         0.0995
     37 H18         5.2435   14.8269   -0.9356 H         1 <0>         0.4083
     38 H19         7.1368   16.1102   -1.1209 H         1 <0>         0.3878
@<TRIPOS>BOND
     1    1    6 ar
     2    1    2 ar
     3    1   20 1
     4    2    3 ar
     5    2   21 1
     6    3    4 ar
     7    3    7 1
     8    4    5 ar
     9    4   22 1
    10    5    6 ar
    11    6   23 1
    12    7    8 am
    13    7   24 1
    14    8    9 2
    15    8   10 1
    16   10   11 1
    17   10   25 1
    18   10   26 1
    19   11   12 1
    20   11   27 1
    21   11   28 1
    22   12   13 1
    23   12   29 1
    24   12   30 1
    25   13   14 1
    26   13   31 1
    27   13   32 1
    28   14   15 1
    29   14   33 1
    30   14   34 1
    31   15   16 1
    32   15   35 1
    33   15   36 1
    34   16   17 2
    35   16   18 am
    36   18   19 1
    37   18   37 1
    38   19   38 1
@<TRIPOS>MOLECULE
ZINC01494627
   54    56     0     0     0
SMALL
USER_CHARGES
3-[4-[[2-hydroxyethyl-[2-(1H-indol-3-yl)ethyl]amino]methyl]phenyl]prop-2-enehydroxamic acid
@<TRIPOS>ATOM
      1 C1         -0.6775    3.3964    1.2929 C.ar      1 <0>        -0.1331
      2 C2          0.6496    3.7509    1.4940 C.ar      1 <0>        -0.0938
      3 C3          1.6429    2.7968    1.4713 C.ar      1 <0>        -0.1220
      4 C4          1.3154    1.4637    1.2449 C.ar      1 <0>         0.0948
      5 C5         -0.0308    1.1097    1.0418 C.ar      1 <0>        -0.1003
      6 C6         -1.0220    2.0927    1.0734 C.ar      1 <0>        -0.0837
      7 C7         -0.0412   -0.3405    0.8352 C.2       1 <0>        -0.2007
      8 C8          1.2316   -0.7582    0.9208 C.2       1 <0>         0.0831
      9 N1          2.0563    0.3059    1.1652 N.pl3     1 <0>        -0.5883
     10 H1          3.0195    0.2526    1.2668 H         1 <0>         0.4225
     11 C9         -1.2514   -1.2004    0.5763 C.3       1 <0>        -0.0578
     12 C10        -1.5744   -1.1894   -0.9192 C.3       1 <0>        -0.0056
     13 C11        -3.9533   -1.4493   -0.5508 C.3       1 <0>        -0.0088
     14 C12        -5.0512   -2.5122   -0.4747 C.3       1 <0>         0.0444
     15 O1         -4.6283   -3.5731    0.3843 O.3       1 <0>        -0.5795
     16 C13        -2.9545   -2.2343   -2.6120 C.3       1 <0>         0.0427
     17 C14        -1.9579   -3.2452   -3.1179 C.ar      1 <0>        -0.1535
     18 C15        -0.7789   -2.8165   -3.7025 C.ar      1 <0>        -0.0898
     19 C16         0.1402   -3.7353   -4.1635 C.ar      1 <0>        -0.1029
     20 C17        -0.1261   -5.1032   -4.0483 C.ar      1 <0>        -0.0324
     21 C18        -1.3220   -5.5284   -3.4612 C.ar      1 <0>        -0.0908
     22 C19        -2.2289   -4.5973   -3.0007 C.ar      1 <0>        -0.0923
     23 C20         0.8472   -6.0906   -4.5429 C.2       1 <0>        -0.0340
     24 C21         1.9990   -5.6769   -5.1082 C.2       1 <0>        -0.1766
     25 C22         2.9672   -6.6591   -5.6002 C.2       1 <0>         0.5542
     26 O2          2.7321   -7.8488   -5.4988 O.2       1 <0>        -0.5158
     27 N2          4.1187   -6.2455   -6.1655 N.am      1 <0>        -0.5905
     28 O3          5.0549   -7.1953   -6.6412 O.3       1 <0>        -0.3110
     29 H2         -1.4441    4.1569    1.3135 H         1 <0>         0.1266
     30 H3          0.9059    4.7853    1.6695 H         1 <0>         0.1310
     31 H4          2.6725    3.0826    1.6284 H         1 <0>         0.1250
     32 H5         -2.0570    1.8236    0.9227 H         1 <0>         0.1173
     33 H6          1.5566   -1.7824    0.8127 H         1 <0>         0.1721
     34 H7         -1.0464   -2.2220    0.8963 H         1 <0>         0.0904
     35 H8         -2.1017   -0.8085    1.1345 H         1 <0>         0.0906
     36 H9         -1.7794   -0.1678   -1.2391 H         1 <0>         0.1315
     37 H10        -0.7241   -1.5812   -1.4774 H         1 <0>         0.1278
     38 H11        -3.7115   -1.1040    0.4544 H         1 <0>         0.1399
     39 H12        -4.3028   -0.6082   -1.1496 H         1 <0>         0.1444
     40 H13        -5.9628   -2.0652   -0.0782 H         1 <0>         0.0951
     41 H14        -5.2442   -2.9073   -1.4721 H         1 <0>         0.0701
     42 H15        -5.2767   -4.2842    0.4796 H         1 <0>         0.4089
     43 H16        -3.9656   -2.6009   -2.7892 H         1 <0>         0.1346
     44 H17        -2.8131   -1.2900   -3.1378 H         1 <0>         0.1380
     45 H18        -0.5765   -1.7596   -3.7944 H         1 <0>         0.1351
     46 H19         1.0614   -3.3993   -4.6160 H         1 <0>         0.1390
     47 H20        -1.5348   -6.5832   -3.3691 H         1 <0>         0.1427
     48 H21        -3.1529   -4.9241   -2.5471 H         1 <0>         0.1349
     49 H22         0.6386   -7.1464   -4.4528 H         1 <0>         0.1471
     50 H23         2.2076   -4.6211   -5.1983 H         1 <0>         0.1363
     51 H24         4.3060   -5.2972   -6.2463 H         1 <0>         0.4099
     52 H25         5.8493   -6.8040   -7.0298 H         1 <0>         0.3930
     53 N3         -2.7494   -2.0532   -1.1595 N.4       1 <0>        -0.3938
     54 H26        -2.5826   -2.9705   -0.7294 H         1 <0>         0.4339
@<TRIPOS>BOND
     1    1    6 ar
     2    1    2 ar
     3    1   29 1
     4    2    3 ar
     5    2   30 1
     6    3    4 ar
     7    3   31 1
     8    4    9 1
     9    4    5 ar
    10    5    6 ar
    11    5    7 1
    12    6   32 1
    13    7    8 2
    14    7   11 1
    15    8    9 1
    16    8   33 1
    17    9   10 1
    18   11   12 1
    19   11   34 1
    20   11   35 1
    21   12   36 1
    22   12   37 1
    23   12   53 1
    24   13   14 1
    25   13   38 1
    26   13   39 1
    27   13   53 1
    28   14   15 1
    29   14   40 1
    30   14   41 1
    31   15   42 1
    32   16   17 1
    33   16   43 1
    34   16   44 1
    35   16   53 1
    36   17   22 ar
    37   17   18 ar
    38   18   19 ar
    39   18   45 1
    40   19   20 ar
    41   19   46 1
    42   20   21 ar
    43   20   23 1
    44   21   22 ar
    45   21   47 1
    46   22   48 1
    47   23   24 2
    48   23   49 1
    49   24   25 1
    50   24   50 1
    51   25   26 2
    52   25   27 am
    53   27   28 1
    54   27   51 1
    55   28   52 1
    56   53   54 1
@<TRIPOS>MOLECULE
ZINC27551136
   95   100     0     0     0
SMALL
USER_CHARGES

@<TRIPOS>ATOM
      1 C1          0.0105    1.0980   -0.4858 C.ar      1 <0>        -0.1101
      2 C2          0.4298    0.4576    0.6667 C.ar      1 <0>        -0.1180
      3 C3          1.6460   -0.1936    0.6939 C.ar      1 <0>        -0.0950
      4 C4          2.4529   -0.2058   -0.4437 C.ar      1 <0>        -0.0156
      5 C5          2.0244    0.4412   -1.6027 C.ar      1 <0>        -0.0882
      6 C6          0.8064    1.0894   -1.6174 C.ar      1 <0>        -0.1209
      7 C7          3.7598   -0.9026   -0.4210 C.2       1 <0>         0.0604
      8 C8          4.0508   -2.0751    0.2430 C.2       1 <0>         0.0086
      9 O1          5.3531   -2.3498   -0.0062 O.3       1 <0>        -0.1678
     10 C9          5.8381   -1.3775   -0.7949 C.2       1 <0>         0.1699
     11 N1          4.8884   -0.5114   -1.0517 N.2       1 <0>        -0.4717
     12 S1          7.4914   -1.2843   -1.3969 S.3       1 <0>         0.0654
     13 C10         7.5126    0.2349   -2.3880 C.3       1 <0>        -0.1028
     14 C11         8.9093    0.4395   -2.9780 C.3       1 <0>         0.1041
     15 H1          9.1661   -0.4099   -3.6109 H         1 <0>         0.0784
     16 C12         8.9309    1.7255   -3.8115 C.3       1 <0>        -0.1681
     17 C13        10.3670    1.9896   -4.2770 C.3       1 <0>         0.1345
     18 H2         10.6809    1.1992   -4.9587 H         1 <0>         0.0755
     19 O2         11.2294    2.0080   -3.1353 O.3       1 <0>        -0.3758
     20 C14        11.1987    0.8006   -2.3704 C.3       1 <0>         0.3001
     21 H3         11.5301   -0.0315   -2.9916 H         1 <0>         0.0703
     22 O3          9.8647    0.5538   -1.9189 O.3       1 <0>        -0.3733
     23 C15        12.1146    0.9358   -1.1814 C.ar      1 <0>        -0.1030
     24 C16        12.8143    2.1113   -0.9796 C.ar      1 <0>        -0.0620
     25 C17        13.6545    2.2383    0.1092 C.ar      1 <0>        -0.1259
     26 C18        13.7959    1.1841    1.0020 C.ar      1 <0>         0.1548
     27 C19        13.0913    0.0051    0.7969 C.ar      1 <0>        -0.1493
     28 C20        12.2490   -0.1139   -0.2912 C.ar      1 <0>        -0.0683
     29 N2         14.6466    1.3094    2.1058 N.am      1 <0>        -0.6777
     30 C21        14.7693    2.4973    2.7307 C.2       1 <0>         0.5118
     31 O4         14.1994    3.4744    2.2930 O.2       1 <0>        -0.5161
     32 C22        15.6145    2.6114    3.9731 C.3       1 <0>        -0.1401
     33 C23        15.5850    4.0550    4.4792 C.3       1 <0>        -0.1053
     34 C24        16.4431    4.1708    5.7406 C.3       1 <0>        -0.1205
     35 C25        16.4136    5.6144    6.2466 C.3       1 <0>        -0.1198
     36 C26        17.2717    5.7303    7.5081 C.3       1 <0>        -0.1061
     37 C27        17.2422    7.1739    8.0141 C.3       1 <0>        -0.1272
     38 C28        18.0874    7.2880    9.2566 C.2       1 <0>         0.5212
     39 O5         18.6572    6.3109    9.6942 O.2       1 <0>        -0.5195
     40 N3         18.2101    8.4758    9.8814 N.am      1 <0>        -0.6002
     41 O6         19.0042    8.5830   11.0488 O.3       1 <0>        -0.3208
     42 C29        10.4320    3.3197   -4.9826 C.ar      1 <0>        -0.0789
     43 C30        10.6024    4.4815   -4.2532 C.ar      1 <0>        -0.0914
     44 C31        10.6621    5.7015   -4.9004 C.ar      1 <0>        -0.1001
     45 C32        10.5517    5.7596   -6.2771 C.ar      1 <0>        -0.0884
     46 C33        10.3822    4.5977   -7.0067 C.ar      1 <0>        -0.0993
     47 C34        10.3268    3.3773   -6.3598 C.ar      1 <0>        -0.1100
     48 C35        10.6157    7.0897   -6.9827 C.3       1 <0>         0.1148
     49 O7         11.9728    7.3862   -7.3181 O.3       1 <0>        -0.5672
     50 C36         3.1242   -2.8745    1.0655 C.ar      1 <0>        -0.0215
     51 C37         1.8668   -3.2256    0.5665 C.ar      1 <0>        -0.0810
     52 C38         1.0056   -3.9738    1.3413 C.ar      1 <0>        -0.1167
     53 C39         1.3838   -4.3768    2.6101 C.ar      1 <0>        -0.1027
     54 C40         2.6271   -4.0325    3.1111 C.ar      1 <0>        -0.1183
     55 C41         3.5011   -3.2896    2.3456 C.ar      1 <0>        -0.0925
     56 H4         -0.9441    1.6028   -0.5035 H         1 <0>         0.1250
     57 H5         -0.1959    0.4678    1.5469 H         1 <0>         0.1267
     58 H6          1.9726   -0.6925    1.5943 H         1 <0>         0.1234
     59 H7          2.6450    0.4355   -2.4866 H         1 <0>         0.1255
     60 H8          0.4737    1.5911   -2.5140 H         1 <0>         0.1264
     61 H9          6.7855    0.1518   -3.1958 H         1 <0>         0.1148
     62 H10         7.2573    1.0850   -1.7554 H         1 <0>         0.1088
     63 H11         8.2813    1.6093   -4.6790 H         1 <0>         0.0939
     64 H12         8.5847    2.5609   -3.2030 H         1 <0>         0.0922
     65 H13        12.7040    2.9307   -1.6744 H         1 <0>         0.1363
     66 H14        14.2014    3.1564    0.2658 H         1 <0>         0.1404
     67 H15        13.1994   -0.8167    1.4892 H         1 <0>         0.1291
     68 H16        11.6977   -1.0291   -0.4491 H         1 <0>         0.1307
     69 H17        15.1481    0.5414    2.4213 H         1 <0>         0.4121
     70 H18        15.2200    1.9483    4.7431 H         1 <0>         0.0978
     71 H19        16.6413    2.3285    3.7413 H         1 <0>         0.0978
     72 H20        15.9795    4.7180    3.7092 H         1 <0>         0.0713
     73 H21        14.5582    4.3378    4.7110 H         1 <0>         0.0712
     74 H22        16.0486    3.5078    6.5105 H         1 <0>         0.0650
     75 H23        17.4699    3.8880    5.5088 H         1 <0>         0.0651
     76 H24        16.8081    6.2775    5.4767 H         1 <0>         0.0654
     77 H25        15.3868    5.8973    6.4785 H         1 <0>         0.0653
     78 H26        16.8772    5.0672    8.2780 H         1 <0>         0.0728
     79 H27        18.2985    5.4474    7.2762 H         1 <0>         0.0729
     80 H28        17.6367    7.8369    7.2442 H         1 <0>         0.0995
     81 H29        16.2154    7.4567    8.2459 H         1 <0>         0.0995
     82 H30        17.7543    9.2573    9.5314 H         1 <0>         0.4082
     83 H31        19.0316    9.4732   11.4255 H         1 <0>         0.3877
     84 H32        10.6886    4.4360   -3.1776 H         1 <0>         0.1307
     85 H33        10.7945    6.6092   -4.3305 H         1 <0>         0.1246
     86 H34        10.2956    4.6432   -8.0822 H         1 <0>         0.1253
     87 H35        10.1981    2.4692   -6.9300 H         1 <0>         0.1254
     88 H36        10.0174    7.0474   -7.8928 H         1 <0>         0.0555
     89 H37        10.2252    7.8680   -6.3270 H         1 <0>         0.0557
     90 H38        12.0895    8.2300   -7.7757 H         1 <0>         0.3819
     91 H39         1.5702   -2.9115   -0.4234 H         1 <0>         0.1269
     92 H40         0.0335   -4.2457    0.9572 H         1 <0>         0.1311
     93 H41         0.7052   -4.9626    3.2124 H         1 <0>         0.1285
     94 H42         2.9152   -4.3503    4.1023 H         1 <0>         0.1303
     95 H43         4.4728   -3.0254    2.7362 H         1 <0>         0.1270
@<TRIPOS>BOND
     1    1    6 ar
     2    1    2 ar
     3    1   56 1
     4    2    3 ar
     5    2   57 1
     6    3    4 ar
     7    3   58 1
     8    4    5 ar
     9    4    7 1
    10    5    6 ar
    11    5   59 1
    12    6   60 1
    13    7   11 1
    14    7    8 2
    15    8    9 1
    16    8   50 1
    17    9   10 1
    18   10   11 2
    19   10   12 1
    20   12   13 1
    21   13   14 1
    22   13   61 1
    23   13   62 1
    24   14   15 1
    25   14   22 1
    26   14   16 1
    27   16   17 1
    28   16   63 1
    29   16   64 1
    30   17   18 1
    31   17   19 1
    32   17   42 1
    33   19   20 1
    34   20   21 1
    35   20   22 1
    36   20   23 1
    37   23   28 ar
    38   23   24 ar
    39   24   25 ar
    40   24   65 1
    41   25   26 ar
    42   25   66 1
    43   26   27 ar
    44   26   29 1
    45   27   28 ar
    46   27   67 1
    47   28   68 1
    48   29   30 am
    49   29   69 1
    50   30   31 2
    51   30   32 1
    52   32   33 1
    53   32   70 1
    54   32   71 1
    55   33   34 1
    56   33   72 1
    57   33   73 1
    58   34   35 1
    59   34   74 1
    60   34   75 1
    61   35   36 1
    62   35   76 1
    63   35   77 1
    64   36   37 1
    65   36   78 1
    66   36   79 1
    67   37   38 1
    68   37   80 1
    69   37   81 1
    70   38   39 2
    71   38   40 am
    72   40   41 1
    73   40   82 1
    74   41   83 1
    75   42   47 ar
    76   42   43 ar
    77   43   44 ar
    78   43   84 1
    79   44   45 ar
    80   44   85 1
    81   45   46 ar
    82   45   48 1
    83   46   47 ar
    84   46   86 1
    85   47   87 1
    86   48   49 1
    87   48   88 1
    88   48   89 1
    89   49   90 1
    90   50   55 ar
    91   50   51 ar
    92   51   52 ar
    93   51   91 1
    94   52   53 ar
    95   52   92 1
    96   53   54 ar
    97   53   93 1
    98   54   55 ar
    99   54   94 1
   100   55   95 1
@<TRIPOS>MOLECULE
ZINC29131732
   19    20     0     0     0
SMALL
USER_CHARGES

@<TRIPOS>ATOM
      1 C1         -0.0169    1.3962    0.0097 C.ar      1 <0>        -0.1552
      2 C2          1.1796    2.0807    0.0020 C.ar      1 <0>         0.1130
      3 N1          2.3303    1.4343   -0.0129 N.ar      1 <0>        -0.4802
      4 C3          2.3933    0.1158   -0.0206 C.ar      1 <0>         0.1146
      5 C4          1.2457   -0.6478   -0.0138 C.ar      1 <0>        -0.1664
      6 C5          0.0021   -0.0041    0.0020 C.ar      1 <0>         0.0212
      7 C6         -1.2552   -0.7808    0.0103 C.2       1 <0>         0.0527
      8 C7         -2.5020   -0.2762    0.0196 C.2       1 <0>         0.0321
      9 N2         -3.3858   -1.3354    0.0250 N.pl3     1 <0>        -0.5570
     10 H1         -4.3533   -1.2669    0.0316 H         1 <0>         0.4528
     11 C8         -2.6771   -2.4805    0.0191 C.2       1 <0>         0.4757
     12 S1         -3.3313   -4.0625    0.0220 S.2       1 <0>        -0.6068
     13 N3         -1.3659   -2.1703    0.0040 N.pl3     1 <0>        -0.5579
     14 H2         -0.6297   -2.8018   -0.0067 H         1 <0>         0.4485
     15 H3         -0.9547    1.9317    0.0260 H         1 <0>         0.1433
     16 H4          1.1754    3.1607    0.0078 H         1 <0>         0.1654
     17 H5          3.3571   -0.3713   -0.0328 H         1 <0>         0.1640
     18 H6          1.3047   -1.7262   -0.0209 H         1 <0>         0.1346
     19 H7         -2.7643    0.7715    0.0222 H         1 <0>         0.2058
@<TRIPOS>BOND
     1    1    6 ar
     2    1    2 ar
     3    1   15 1
     4    2    3 ar
     5    2   16 1
     6    3    4 ar
     7    4    5 ar
     8    4   17 1
     9    5    6 ar
    10    5   18 1
    11    6    7 1
    12    7   13 1
    13    7    8 2
    14    8    9 1
    15    8   19 1
    16    9   10 1
    17    9   11 1
    18   11   12 2
    19   11   13 1
    20   13   14 1
@<TRIPOS>MOLECULE
ZINC03818726
   36    37     0     0     0
SMALL
USER_CHARGES

@<TRIPOS>ATOM
      1 C1          4.5840   -0.9402   -4.0731 C.ar      1 <0>        -0.1243
      2 C2          3.4212   -0.2990   -3.6869 C.ar      1 <0>        -0.1026
      3 C3          3.0973   -0.2003   -2.3480 C.ar      1 <0>        -0.1283
      4 C4          3.9410   -0.7461   -1.3889 C.ar      1 <0>         0.1375
      5 C5          5.1082   -1.3895   -1.7803 C.ar      1 <0>        -0.1524
      6 C6          5.4261   -1.4846   -3.1209 C.ar      1 <0>        -0.0957
      7 N1          3.6167   -0.6477   -0.0339 N.pl3     1 <0>        -1.0554
      8 S1          3.7405   -1.9770    0.9458 S.o2      1 <0>         2.6905
      9 O1          5.0498   -2.4973    0.7607 O.2       1 <0>        -0.9434
     10 O2          3.2482   -1.5890    2.2211 O.2       1 <0>        -0.9469
     11 C7          2.6241   -3.1893    0.3225 C.ar      1 <0>        -0.6761
     12 C8          1.2916   -3.1575    0.6960 C.ar      1 <0>        -0.0052
     13 C9          0.4070   -4.1053    0.2119 C.ar      1 <0>        -0.1384
     14 C10         0.8478   -5.0897   -0.6475 C.ar      1 <0>        -0.0435
     15 C11         2.1922   -5.1283   -1.0298 C.ar      1 <0>        -0.0956
     16 C12         3.0788   -4.1638   -0.5403 C.ar      1 <0>         0.0121
     17 C13         2.6708   -6.1757   -1.9467 C.2       1 <0>        -0.0059
     18 C14         1.8122   -7.1009   -2.4201 C.2       1 <0>        -0.2056
     19 C15         2.2883   -8.1428   -3.3322 C.2       1 <0>         0.5604
     20 O3          3.4591   -8.1735   -3.6629 O.2       1 <0>        -0.5212
     21 N2          1.4299   -9.0679   -3.8054 N.am      1 <0>        -0.5930
     22 O4          1.8903  -10.0754   -4.6874 O.3       1 <0>        -0.3146
     23 H1          4.8327   -1.0199   -5.1211 H         1 <0>         0.1267
     24 H2          2.7659    0.1254   -4.4331 H         1 <0>         0.1279
     25 H3          2.1892    0.3009   -2.0471 H         1 <0>         0.1280
     26 H4          5.7665   -1.8145   -1.0371 H         1 <0>         0.1557
     27 H5          6.3335   -1.9846   -3.4259 H         1 <0>         0.1317
     28 H6          3.3189    0.1994    0.3332 H         1 <0>         0.4282
     29 H7          0.9405   -2.3893    1.3690 H         1 <0>         0.1432
     30 H8         -0.6311   -4.0741    0.5081 H         1 <0>         0.1404
     31 H9          0.1564   -5.8291   -1.0240 H         1 <0>         0.1382
     32 H10         4.1178   -4.1847   -0.8343 H         1 <0>         0.1491
     33 H11         3.7098   -6.2029   -2.2402 H         1 <0>         0.1449
     34 H12         0.7732   -7.0737   -2.1266 H         1 <0>         0.1349
     35 H13         0.4968   -9.0434   -3.5418 H         1 <0>         0.4095
     36 H14         1.2027  -10.6925   -4.9729 H         1 <0>         0.3895
@<TRIPOS>BOND
     1    1    6 ar
     2    1    2 ar
     3    1   23 1
     4    2    3 ar
     5    2   24 1
     6    3    4 ar
     7    3   25 1
     8    4    5 ar
     9    4    7 1
    10    5    6 ar
    11    5   26 1
    12    6   27 1
    13    7    8 1
    14    7   28 1
    15    8    9 2
    16    8   10 2
    17    8   11 1
    18   11   16 ar
    19   11   12 ar
    20   12   13 ar
    21   12   29 1
    22   13   14 ar
    23   13   30 1
    24   14   15 ar
    25   14   31 1
    26   15   16 ar
    27   15   17 1
    28   16   32 1
    29   17   18 2
    30   17   33 1
    31   18   19 1
    32   18   34 1
    33   19   20 2
    34   19   21 am
    35   21   22 1
    36   21   35 1
    37   22   36 1
@<TRIPOS>MOLECULE
ZINC17654900
   94    97     0     0     0
SMALL
USER_CHARGES
(3S,6S,9S,12R)-6-[(1-methoxyindol-3-yl)methyl]-9-(6-oxooctyl)-3-sec-butyl-1,4,7,10-tetrazabicyclo[10.4.0]hexadecane-2,5,8,11-tetrone
@<TRIPOS>ATOM
      1 C1          8.2186   -0.3631    2.3729 C.3       1 <0>        -0.1519
      2 C2          6.8466    0.2556    2.6482 C.3       1 <0>        -0.1113
      3 C3          6.0980    0.4446    1.3273 C.3       1 <0>        -0.0991
      4 H1          6.0473   -0.5074    0.7990 H         1 <0>         0.1052
      5 C4          6.8378    1.4683    0.4638 C.3       1 <0>        -0.1490
      6 C5          4.6849    0.9448    1.6108 C.3       1 <0>         0.1520
      7 H2          4.7449    1.9102    2.1298 H         1 <0>         0.0924
      8 C6          3.8976    1.1045    0.3382 C.2       1 <0>         0.5218
      9 O1          3.8394    0.1756   -0.4447 O.2       1 <0>        -0.5083
     10 N1          3.2674    2.2382    0.0046 N.am      1 <0>        -0.5936
     11 C7          3.6970    3.5435    0.5007 C.3       1 <0>         0.1093
     12 C8          4.1205    4.4091   -0.6907 C.3       1 <0>        -0.1355
     13 C9          3.6930    3.7399   -1.9970 C.3       1 <0>        -0.1068
     14 C10         2.2234    3.3140   -1.9135 C.3       1 <0>        -0.1232
     15 C11         2.1017    2.1645   -0.8968 C.3       1 <0>         0.1360
     16 H3          2.1356    1.2308   -1.4340 H         1 <0>         0.1126
     17 C12         0.8339    2.3308   -0.1197 C.2       1 <0>         0.5305
     18 O2          0.7119    3.3857    0.5143 O.2       1 <0>        -0.5285
     19 N2         -0.1909    1.4560   -0.0335 N.am      1 <0>        -0.7270
     20 C13         0.0021   -0.0041    0.0020 C.3       1 <0>         0.1279
     21 H4         -0.9584   -0.4688    0.2979 H         1 <0>         0.1120
     22 C14         1.0097   -0.3771    1.0507 C.2       1 <0>         0.5021
     23 O3          1.5548    0.4895    1.7051 O.2       1 <0>        -0.5054
     24 N3          1.2812   -1.6958    1.2826 N.am      1 <0>        -0.7107
     25 C15         2.3243   -1.9116    2.3308 C.3       1 <0>         0.1321
     26 H5          2.0011   -1.5060    3.2853 H         1 <0>         0.0903
     27 C16         3.5493   -1.1770    1.8469 C.2       1 <0>         0.5147
     28 O4          4.1907   -1.6725    0.9413 O.2       1 <0>        -0.4756
     29 N4          3.9213   -0.0150    2.4482 N.am      1 <0>        -0.7194
     30 C17         2.6307   -3.4038    2.4788 C.3       1 <0>        -0.0391
     31 C18         1.4086   -4.1189    2.9947 C.2       1 <0>        -0.1608
     32 C19         1.1361   -4.4113    4.2762 C.2       1 <0>         0.0410
     33 N5         -0.0633   -5.0644    4.3608 N.pl3     1 <0>        -0.3486
     34 C20        -0.6057   -5.2120    3.1039 C.ar      1 <0>         0.1243
     35 C21         0.2897   -4.6210    2.1935 C.ar      1 <0>        -0.0948
     36 C22        -0.0060   -4.6162    0.8293 C.ar      1 <0>        -0.0826
     37 C23        -1.1671   -5.1836    0.3848 C.ar      1 <0>        -0.1341
     38 C24        -2.0553   -5.7648    1.2791 C.ar      1 <0>        -0.0972
     39 C25        -1.7797   -5.7871    2.6290 C.ar      1 <0>        -0.1161
     40 O5         -0.6585   -5.5199    5.5622 O.3       1 <0>        -0.1437
     41 C26         0.1104   -5.2408    6.7340 C.3       1 <0>        -0.0037
     42 C27         0.3873   -0.5697   -1.3583 C.3       1 <0>        -0.1323
     43 C28        -0.7456   -0.3168   -2.3551 C.3       1 <0>        -0.1161
     44 C29        -0.3585   -0.8851   -3.7219 C.3       1 <0>        -0.1195
     45 C30        -1.4914   -0.6322   -4.7187 C.3       1 <0>        -0.1126
     46 C31        -1.1043   -1.2005   -6.0855 C.3       1 <0>        -0.1654
     47 C32        -2.2201   -0.9514   -7.0674 C.2       1 <0>         0.3499
     48 O6         -3.2215   -0.3784   -6.7107 O.2       1 <0>        -0.4501
     49 C33        -2.0862   -1.4173   -8.4943 C.3       1 <0>        -0.1692
     50 C34        -3.3482   -1.0421   -9.2738 C.3       1 <0>        -0.1477
     51 H6          8.7519   -0.4977    3.3139 H         1 <0>         0.0526
     52 H7          8.0901   -1.3301    1.8865 H         1 <0>         0.0548
     53 H8          8.7912    0.2977    1.7221 H         1 <0>         0.0560
     54 H9          6.9751    1.2226    3.1346 H         1 <0>         0.0583
     55 H10         6.2740   -0.4052    3.2990 H         1 <0>         0.0622
     56 H11         6.8885    2.4204    0.9922 H         1 <0>         0.0531
     57 H12         7.8474    1.1110    0.2614 H         1 <0>         0.0656
     58 H13         6.3045    1.6030   -0.4772 H         1 <0>         0.0535
     59 H14         2.8732    4.0259    1.0156 H         1 <0>         0.0841
     60 H15         4.5457    3.4316    1.1711 H         1 <0>         0.0790
     61 H16         3.6448    5.3853   -0.6184 H         1 <0>         0.0728
     62 H17         5.2016    4.5234   -0.6845 H         1 <0>         0.0680
     63 H18         3.8204    4.4388   -2.8250 H         1 <0>         0.0687
     64 H19         4.3128    2.8620   -2.1723 H         1 <0>         0.0654
     65 H20         1.6208    4.1576   -1.5730 H         1 <0>         0.0798
     66 H21         1.8767    2.9708   -2.8857 H         1 <0>         0.0778
     67 H22        -1.1211    1.8169    0.0123 H         1 <0>         0.4129
     68 H23         0.8477   -2.4320    0.8209 H         1 <0>         0.4145
     69 H24         3.6941    0.1788    3.3848 H         1 <0>         0.4134
     70 H25         2.9100   -3.8153    1.5088 H         1 <0>         0.0955
     71 H26         3.4536   -3.5379    3.1809 H         1 <0>         0.0915
     72 H27         1.7695   -4.1669    5.1161 H         1 <0>         0.1728
     73 H28         0.6805   -4.1661    0.1276 H         1 <0>         0.1229
     74 H29        -1.3956   -5.1793   -0.6707 H         1 <0>         0.1271
     75 H30        -2.9688   -6.2091    0.9126 H         1 <0>         0.1289
     76 H31        -2.4780   -6.2402    3.3171 H         1 <0>         0.1242
     77 H32        -0.4131   -5.6211    7.6112 H         1 <0>         0.1231
     78 H33         1.0838   -5.7248    6.6536 H         1 <0>         0.0654
     79 H34         0.2470   -4.1638    6.8310 H         1 <0>         0.0647
     80 H35         1.2965   -0.0822   -1.7102 H         1 <0>         0.0814
     81 H36         0.5608   -1.6421   -1.2699 H         1 <0>         0.0804
     82 H37        -1.6548   -0.8042   -2.0032 H         1 <0>         0.0676
     83 H38        -0.9191    0.7557   -2.4435 H         1 <0>         0.0672
     84 H39         0.5507   -0.3976   -4.0738 H         1 <0>         0.0640
     85 H40        -0.1850   -1.9575   -3.6336 H         1 <0>         0.0659
     86 H41        -2.4006   -1.1196   -4.3668 H         1 <0>         0.0687
     87 H42        -1.6649    0.4403   -4.8071 H         1 <0>         0.0674
     88 H43        -0.2702   -0.7533   -6.4083 H         1 <0>         0.0885
     89 H44        -0.9307   -2.2729   -5.9972 H         1 <0>         0.0985
     90 H45        -1.2919   -0.9789   -8.9149 H         1 <0>         0.0879
     91 H46        -1.9561   -2.4993   -8.5125 H         1 <0>         0.0977
     92 H47        -4.2139   -1.5200   -8.8153 H         1 <0>         0.0602
     93 H48        -3.4783    0.0399   -9.2556 H         1 <0>         0.0596
     94 H49        -3.2513   -1.3791  -10.3059 H         1 <0>         0.0615
@<TRIPOS>BOND
     1    1    2 1
     2    1   51 1
     3    1   52 1
     4    1   53 1
     5    2    3 1
     6    2   54 1
     7    2   55 1
     8    3    4 1
     9    3    5 1
    10    3    6 1
    11    5   56 1
    12    5   57 1
    13    5   58 1
    14    6    7 1
    15    6   29 1
    16    6    8 1
    17    8    9 2
    18    8   10 am
    19   10   15 1
    20   10   11 1
    21   11   12 1
    22   11   59 1
    23   11   60 1
    24   12   13 1
    25   12   61 1
    26   12   62 1
    27   13   14 1
    28   13   63 1
    29   13   64 1
    30   14   15 1
    31   14   65 1
    32   14   66 1
    33   15   16 1
    34   15   17 1
    35   17   18 2
    36   17   19 am
    37   19   20 1
    38   19   67 1
    39   20   21 1
    40   20   22 1
    41   20   42 1
    42   22   23 2
    43   22   24 am
    44   24   25 1
    45   24   68 1
    46   25   26 1
    47   25   27 1
    48   25   30 1
    49   27   28 2
    50   27   29 am
    51   29   69 1
    52   30   31 1
    53   30   70 1
    54   30   71 1
    55   31   35 1
    56   31   32 2
    57   32   33 1
    58   32   72 1
    59   33   34 1
    60   33   40 1
    61   34   39 ar
    62   34   35 ar
    63   35   36 ar
    64   36   37 ar
    65   36   73 1
    66   37   38 ar
    67   37   74 1
    68   38   39 ar
    69   38   75 1
    70   39   76 1
    71   40   41 1
    72   41   77 1
    73   41   78 1
    74   41   79 1
    75   42   43 1
    76   42   80 1
    77   42   81 1
    78   43   44 1
    79   43   82 1
    80   43   83 1
    81   44   45 1
    82   44   84 1
    83   44   85 1
    84   45   46 1
    85   45   86 1
    86   45   87 1
    87   46   47 1
    88   46   88 1
    89   46   89 1
    90   47   48 2
    91   47   49 1
    92   49   50 1
    93   49   90 1
    94   49   91 1
    95   50   92 1
    96   50   93 1
    97   50   94 1
@<TRIPOS>MOLECULE
ZINC03872981
   44    44     0     0     0
SMALL
USER_CHARGES
4-dimethylamino-N-[5-(hydroxycarbamoyl)pentyl]benzamide
@<TRIPOS>ATOM
      1 C1         -0.1238    4.1881    0.0257 C.3       1 <0>         0.0899
      2 N1          1.1564    3.4760    0.0097 N.pl3     1 <0>        -0.6298
      3 C2          2.4132    4.2287    0.0017 C.3       1 <0>         0.0871
      4 C3          1.1786    2.0858    0.0020 C.ar      1 <0>         0.2414
      5 C4         -0.0166    1.3719    0.0096 C.ar      1 <0>        -0.2068
      6 C5          0.0021   -0.0041    0.0020 C.ar      1 <0>        -0.0067
      7 C6          1.2229   -0.6850   -0.0133 C.ar      1 <0>        -0.2027
      8 C7          2.4213    0.0347   -0.0208 C.ar      1 <0>        -0.0342
      9 C8          2.3960    1.4105   -0.0132 C.ar      1 <0>        -0.2085
     10 C9          1.2464   -2.1600   -0.0209 C.2       1 <0>         0.5647
     11 O1          0.2033   -2.7848   -0.0139 O.2       1 <0>        -0.5452
     12 N2          2.4242   -2.8151   -0.0357 N.am      1 <0>        -0.7322
     13 C10         2.4476   -4.2799   -0.0433 C.3       1 <0>         0.1192
     14 C11         3.8980   -4.7667   -0.0598 C.3       1 <0>        -0.1326
     15 C12         3.9224   -6.2965   -0.0678 C.3       1 <0>        -0.1164
     16 C13         5.3728   -6.7833   -0.0843 C.3       1 <0>        -0.1054
     17 C14         5.3973   -8.3131   -0.0922 C.3       1 <0>        -0.1272
     18 C15         6.8259   -8.7926   -0.1085 C.2       1 <0>         0.5213
     19 O2          7.7349   -7.9898   -0.1133 O.2       1 <0>        -0.5195
     20 N3          7.0933  -10.1135   -0.1178 N.am      1 <0>        -0.6000
     21 O3          8.4356  -10.5641   -0.1331 O.3       1 <0>        -0.3207
     22 H1         -0.6826    3.9109    0.9196 H         1 <0>         0.0584
     23 H2          0.0582    5.2628    0.0297 H         1 <0>         0.0762
     24 H3         -0.6996    3.9204   -0.8603 H         1 <0>         0.0585
     25 H4          2.7151    4.4209   -1.0279 H         1 <0>         0.0527
     26 H5          2.2726    5.1762    0.5220 H         1 <0>         0.0702
     27 H6          3.1870    3.6492    0.5051 H         1 <0>         0.0717
     28 H7         -0.9594    1.8985    0.0169 H         1 <0>         0.1282
     29 H8         -0.9254   -0.5573    0.0082 H         1 <0>         0.1349
     30 H9          3.3660   -0.4885   -0.0323 H         1 <0>         0.1236
     31 H10         3.3215    1.9671   -0.0194 H         1 <0>         0.1288
     32 H11         3.2564   -2.3167   -0.0412 H         1 <0>         0.3990
     33 H12         1.9483   -4.6559    0.8497 H         1 <0>         0.0682
     34 H13         1.9310   -4.6469   -0.9301 H         1 <0>         0.0682
     35 H14         4.3973   -4.3907   -0.9528 H         1 <0>         0.0715
     36 H15         4.4146   -4.3997    0.8270 H         1 <0>         0.0715
     37 H16         3.4231   -6.6725    0.8252 H         1 <0>         0.0689
     38 H17         3.4059   -6.6635   -0.9546 H         1 <0>         0.0689
     39 H18         5.8721   -6.4073   -0.9773 H         1 <0>         0.0740
     40 H19         5.8894   -6.4163    0.8026 H         1 <0>         0.0740
     41 H20         4.8980   -8.6891    0.8007 H         1 <0>         0.1002
     42 H21         4.8807   -8.6801   -0.9791 H         1 <0>         0.1002
     43 H22         6.3662  -10.7556   -0.1140 H         1 <0>         0.4084
     44 H23         8.5273  -11.5267   -0.1388 H         1 <0>         0.3879
@<TRIPOS>BOND
     1    1    2 1
     2    1   22 1
     3    1   23 1
     4    1   24 1
     5    2    3 1
     6    2    4 1
     7    3   25 1
     8    3   26 1
     9    3   27 1
    10    4    9 ar
    11    4    5 ar
    12    5    6 ar
    13    5   28 1
    14    6    7 ar
    15    6   29 1
    16    7    8 ar
    17    7   10 1
    18    8    9 ar
    19    8   30 1
    20    9   31 1
    21   10   11 2
    22   10   12 am
    23   12   13 1
    24   12   32 1
    25   13   14 1
    26   13   33 1
    27   13   34 1
    28   14   15 1
    29   14   35 1
    30   14   36 1
    31   15   16 1
    32   15   37 1
    33   15   38 1
    34   16   17 1
    35   16   39 1
    36   16   40 1
    37   17   18 1
    38   17   41 1
    39   17   42 1
    40   18   19 2
    41   18   20 am
    42   20   21 1
    43   20   43 1
    44   21   44 1
@<TRIPOS>MOLECULE
ZINC22010649
   49    51     0     0     0
SMALL
USER_CHARGES
(E)-3-[4-[[2-(2-methyl-1H-indol-3-yl)ethylamino]methyl]phenyl]prop-2-enehydroxamic acid
@<TRIPOS>ATOM
      1 C1        -10.9482   -5.7256   -2.9232 C.3       1 <0>        -0.0982
      2 C2        -12.0897   -4.7418   -2.9170 C.2       1 <0>         0.0758
      3 C3        -11.9561   -3.4065   -2.8827 C.2       1 <0>        -0.1731
      4 C4        -13.3071   -2.8405   -2.8965 C.ar      1 <0>        -0.1010
      5 C5        -13.8145   -1.5397   -2.8805 C.ar      1 <0>        -0.0706
      6 C6        -15.1656   -1.3384   -2.9025 C.ar      1 <0>        -0.1481
      7 C7        -16.0387   -2.4171   -2.9401 C.ar      1 <0>        -0.1001
      8 C8        -15.5597   -3.7085   -2.9561 C.ar      1 <0>        -0.1327
      9 C9        -14.1875   -3.9369   -2.9345 C.ar      1 <0>         0.1083
     10 N1        -13.4160   -5.0773   -2.9428 N.pl3     1 <0>        -0.6054
     11 H1        -13.7153   -6.1356   -2.9658 H         1 <0>         0.4387
     12 C10       -10.6616   -2.6359   -2.8439 C.3       1 <0>        -0.0381
     13 C11       -10.2500   -2.4031   -1.3888 C.3       1 <0>         0.0562
     14 N2         -8.9882   -1.6519   -1.3510 N.3       1 <0>        -0.6659
     15 C12        -8.5612   -1.4093    0.0335 C.3       1 <0>         0.0844
     16 C13        -7.2665   -0.6382    0.0321 C.ar      1 <0>        -0.0648
     17 C14        -7.2894    0.7456    0.0402 C.ar      1 <0>        -0.0996
     18 C15        -6.1090    1.4583    0.0389 C.ar      1 <0>        -0.0906
     19 C16        -4.8866    0.7793    0.0295 C.ar      1 <0>        -0.0792
     20 C17        -4.8718   -0.6189    0.0159 C.ar      1 <0>        -0.0987
     21 C18        -6.0606   -1.3175    0.0231 C.ar      1 <0>        -0.1169
     22 C19        -3.6218    1.5326    0.0276 C.2       1 <0>        -0.0081
     23 C20        -2.4453    0.8745    0.0184 C.2       1 <0>        -0.2119
     24 C21        -1.1873    1.6238    0.0165 C.2       1 <0>         0.5601
     25 O1         -1.2038    2.8406    0.0232 O.2       1 <0>        -0.5329
     26 N3         -0.0111    0.9658    0.0074 N.am      1 <0>        -0.5967
     27 O2          1.2054    1.6904   -0.0004 O.3       1 <0>        -0.3490
     28 H2         -9.9936   -5.1797   -2.8978 H         1 <0>         0.0850
     29 H3        -10.9965   -6.3375   -3.8360 H         1 <0>         0.0733
     30 H4        -11.0213   -6.3776   -2.0403 H         1 <0>         0.0723
     31 H5        -13.1412   -0.6957   -2.8511 H         1 <0>         0.1209
     32 H6        -15.5576   -0.3321   -2.8901 H         1 <0>         0.1215
     33 H7        -17.1043   -2.2420   -2.9565 H         1 <0>         0.1240
     34 H8        -16.2471   -4.5410   -2.9850 H         1 <0>         0.1179
     35 H9         -9.8776   -3.2100   -3.3594 H         1 <0>         0.0675
     36 H10       -10.7966   -1.6667   -3.3463 H         1 <0>         0.0782
     37 H11       -11.0341   -1.8290   -0.8733 H         1 <0>         0.0735
     38 H12       -10.1149   -3.3723   -0.8864 H         1 <0>         0.0300
     39 H13        -8.2041   -2.2260   -1.8665 H         1 <0>         0.3387
     40 H14        -9.3334   -0.8283    0.5589 H         1 <0>         0.0825
     41 H15        -8.4143   -2.3715    0.5459 H         1 <0>         0.0416
     42 H16        -8.2343    1.2686    0.0472 H         1 <0>         0.1278
     43 H17        -6.1284    2.5381    0.0449 H         1 <0>         0.1298
     44 H18        -3.9316   -1.1503    0.0044 H         1 <0>         0.1271
     45 H19        -6.0509   -2.3974    0.0172 H         1 <0>         0.1233
     46 H20        -3.6367    2.6325    0.0337 H         1 <0>         0.1417
     47 H21        -2.4304   -0.2254    0.0123 H         1 <0>         0.1358
     48 H22         0.0039   -0.1341    0.0060 H         1 <0>         0.4265
     49 H23         2.1654    1.1534   -0.0078 H         1 <0>         0.4190
@<TRIPOS>BOND
     1    1    2 1
     2    1   28 1
     3    1   29 1
     4    1   30 1
     5    2   10 1
     6    2    3 2
     7    3    4 1
     8    3   12 1
     9    4    9 ar
    10    4    5 ar
    11    5    6 ar
    12    5   31 1
    13    6    7 ar
    14    6   32 1
    15    7    8 ar
    16    7   33 1
    17    8    9 ar
    18    8   34 1
    19    9   10 1
    20   10   11 1
    21   12   13 1
    22   12   35 1
    23   12   36 1
    24   13   14 1
    25   13   37 1
    26   13   38 1
    27   14   15 1
    28   14   39 1
    29   15   16 1
    30   15   40 1
    31   15   41 1
    32   16   21 ar
    33   16   17 ar
    34   17   18 ar
    35   17   42 1
    36   18   19 ar
    37   18   43 1
    38   19   20 ar
    39   19   22 1
    40   20   21 ar
    41   20   44 1
    42   21   45 1
    43   22   23 2
    44   22   46 1
    45   23   24 1
    46   23   47 1
    47   24   25 2
    48   24   26 am
    49   26   27 1
    50   26   48 1
    51   27   49 1
@<TRIPOS>MOLECULE
ZINC22010649
   50    52     0     0     0
SMALL
USER_CHARGES
(E)-3-[4-[[2-(2-methyl-1H-indol-3-yl)ethylamino]methyl]phenyl]prop-2-enehydroxamic acid
@<TRIPOS>ATOM
      1 C1        -10.9482   -5.7256   -2.9232 C.3       1 <0>        -0.1071
      2 C2        -12.0897   -4.7418   -2.9170 C.2       1 <0>         0.1057
      3 C3        -11.9561   -3.4065   -2.8827 C.2       1 <0>        -0.2088
      4 C4        -13.3071   -2.8405   -2.8965 C.ar      1 <0>        -0.0994
      5 C5        -13.8145   -1.5397   -2.8805 C.ar      1 <0>        -0.0846
      6 C6        -15.1656   -1.3384   -2.9025 C.ar      1 <0>        -0.1344
      7 C7        -16.0387   -2.4171   -2.9401 C.ar      1 <0>        -0.0954
      8 C8        -15.5597   -3.7085   -2.9561 C.ar      1 <0>        -0.1231
      9 C9        -14.1875   -3.9369   -2.9345 C.ar      1 <0>         0.1080
     10 N1        -13.4160   -5.0773   -2.9428 N.pl3     1 <0>        -0.5990
     11 H1        -13.7153   -6.1356   -2.9658 H         1 <0>         0.4476
     12 C10       -10.6616   -2.6359   -2.8439 C.3       1 <0>        -0.0583
     13 C11       -10.2500   -2.4031   -1.3888 C.3       1 <0>        -0.0027
     14 N2         -8.9882   -1.6519   -1.3510 N.4       1 <0>        -0.5384
     15 C12        -8.5612   -1.4093    0.0335 C.3       1 <0>         0.0484
     16 C13        -7.2665   -0.6382    0.0321 C.ar      1 <0>        -0.1576
     17 C14        -7.2894    0.7456    0.0402 C.ar      1 <0>        -0.0909
     18 C15        -6.1090    1.4583    0.0389 C.ar      1 <0>        -0.0937
     19 C16        -4.8866    0.7793    0.0295 C.ar      1 <0>        -0.0283
     20 C17        -4.8718   -0.6189    0.0159 C.ar      1 <0>        -0.1053
     21 C18        -6.0606   -1.3175    0.0231 C.ar      1 <0>        -0.0914
     22 C19        -3.6218    1.5326    0.0276 C.2       1 <0>        -0.0439
     23 C20        -2.4453    0.8745    0.0184 C.2       1 <0>        -0.1729
     24 C21        -1.1873    1.6238    0.0165 C.2       1 <0>         0.5526
     25 O1         -1.2038    2.8406    0.0232 O.2       1 <0>        -0.5240
     26 N3         -0.0111    0.9658    0.0074 N.am      1 <0>        -0.5927
     27 O2          1.2054    1.6904   -0.0004 O.3       1 <0>        -0.3450
     28 H2         -9.9936   -5.1797   -2.8978 H         1 <0>         0.0815
     29 H3        -10.9965   -6.3375   -3.8360 H         1 <0>         0.0827
     30 H4        -11.0213   -6.3776   -2.0403 H         1 <0>         0.0804
     31 H5        -13.1412   -0.6957   -2.8511 H         1 <0>         0.1175
     32 H6        -15.5576   -0.3321   -2.8901 H         1 <0>         0.1261
     33 H7        -17.1043   -2.2420   -2.9565 H         1 <0>         0.1304
     34 H8        -16.2471   -4.5410   -2.9850 H         1 <0>         0.1242
     35 H9         -9.8776   -3.2100   -3.3594 H         1 <0>         0.0890
     36 H10       -10.7966   -1.6667   -3.3463 H         1 <0>         0.0909
     37 H11       -11.0341   -1.8290   -0.8733 H         1 <0>         0.1291
     38 H12       -10.1149   -3.3723   -0.8864 H         1 <0>         0.1264
     39 H13        -8.2041   -2.2260   -1.8665 H         1 <0>         0.4468
     40 H14        -9.3334   -0.8283    0.5589 H         1 <0>         0.1347
     41 H15        -8.4143   -2.3715    0.5459 H         1 <0>         0.1340
     42 H16        -8.2343    1.2686    0.0472 H         1 <0>         0.1358
     43 H17        -6.1284    2.5381    0.0449 H         1 <0>         0.1420
     44 H18        -3.9316   -1.1503    0.0044 H         1 <0>         0.1388
     45 H19        -6.0509   -2.3974    0.0172 H         1 <0>         0.1345
     46 H20        -3.6367    2.6325    0.0337 H         1 <0>         0.1500
     47 H21        -2.4304   -0.2254    0.0123 H         1 <0>         0.1384
     48 H22         0.0039   -0.1341    0.0060 H         1 <0>         0.4274
     49 H23         2.1654    1.1534   -0.0078 H         1 <0>         0.4251
     50 H24        -9.1233   -0.6827   -1.8534 H         1 <0>         0.4489
@<TRIPOS>BOND
     1    1    2 1
     2    1   28 1
     3    1   29 1
     4    1   30 1
     5    2   10 1
     6    2    3 2
     7    3    4 1
     8    3   12 1
     9    4    9 ar
    10    4    5 ar
    11    5    6 ar
    12    5   31 1
    13    6    7 ar
    14    6   32 1
    15    7    8 ar
    16    7   33 1
    17    8    9 ar
    18    8   34 1
    19    9   10 1
    20   10   11 1
    21   12   13 1
    22   12   35 1
    23   12   36 1
    24   13   14 1
    25   13   37 1
    26   13   38 1
    27   14   15 1
    28   14   39 1
    29   14   50 1
    30   15   16 1
    31   15   40 1
    32   15   41 1
    33   16   21 ar
    34   16   17 ar
    35   17   18 ar
    36   17   42 1
    37   18   19 ar
    38   18   43 1
    39   19   20 ar
    40   19   22 1
    41   20   21 ar
    42   20   44 1
    43   21   45 1
    44   22   23 2
    45   22   46 1
    46   23   24 1
    47   23   47 1
    48   24   25 2
    49   24   26 am
    50   26   27 1
    51   26   48 1
    52   27   49 1
@<TRIPOS>MOLECULE
ZINC40880490
   62    63     0     0     0
SMALL
USER_CHARGES

@<TRIPOS>ATOM
      1 C1         -0.4226    2.1620   -1.6167 C.3       1 <0>        -0.1877
      2 C2         -0.3558    0.8235   -0.8786 C.3       1 <0>         0.1342
      3 C3          0.1973    1.0453    0.5306 C.3       1 <0>        -0.1875
      4 C4         -1.7592    0.2212   -0.7868 C.3       1 <0>        -0.1415
      5 O1          0.5009   -0.0711   -1.5912 O.3       1 <0>        -0.3521
      6 C5          1.7803    0.3127   -1.7608 C.2       1 <0>         0.6531
      7 O2          2.1591    1.3781   -1.3161 O.2       1 <0>        -0.5431
      8 N1          2.6408   -0.4849   -2.4240 N.am      1 <0>        -0.6531
      9 C6          3.9416   -0.0457   -2.6843 C.ar      1 <0>         0.1843
     10 C7          4.6044    0.7487   -1.7555 C.ar      1 <0>        -0.1216
     11 C8          5.8869    1.1834   -2.0089 C.ar      1 <0>        -0.0597
     12 C9          6.5214    0.8248   -3.2002 C.ar      1 <0>        -0.0640
     13 C10         5.8530    0.0264   -4.1309 C.ar      1 <0>        -0.0561
     14 C11         4.5723   -0.4089   -3.8690 C.ar      1 <0>        -0.1416
     15 C12         7.8966    1.2896   -3.4756 C.2       1 <0>         0.1301
     16 C13         8.6241    1.0191   -4.5928 C.2       1 <0>        -0.2364
     17 C14         9.8793    1.6495   -4.4563 C.2       1 <0>         0.0734
     18 N2          9.8973    2.2716   -3.3010 N.2       1 <0>        -0.2877
     19 O3          8.6486    2.0602   -2.6680 O.3       1 <0>        -0.0540
     20 C15        10.9845    1.6150   -5.4452 C.2       1 <0>         0.5930
     21 O4         10.8497    1.0021   -6.4856 O.2       1 <0>        -0.5076
     22 N3         12.1380    2.2635   -5.1897 N.am      1 <0>        -0.7120
     23 C16        13.2294    2.2294   -6.1663 C.3       1 <0>         0.1155
     24 C17        14.4145    3.0383   -5.6352 C.3       1 <0>        -0.1328
     25 C18        15.5543    3.0027   -6.6552 C.3       1 <0>        -0.1174
     26 C19        16.7394    3.8117   -6.1242 C.3       1 <0>        -0.1187
     27 C20        17.8792    3.7760   -7.1442 C.3       1 <0>        -0.1071
     28 C21        19.0643    4.5850   -6.6131 C.3       1 <0>        -0.1266
     29 C22        20.1870    4.5499   -7.6177 C.2       1 <0>         0.5207
     30 O5         20.0526    3.9381   -8.6563 O.2       1 <0>        -0.5186
     31 N4         21.3406    5.1984   -7.3622 N.am      1 <0>        -0.6003
     32 O6         22.3955    5.1654   -8.3062 O.3       1 <0>        -0.3205
     33 H1          0.5773    2.5912   -1.6821 H         1 <0>         0.0876
     34 H2         -0.8165    2.0041   -2.6207 H         1 <0>         0.0608
     35 H3         -1.0760    2.8445   -1.0732 H         1 <0>         0.0733
     36 H4         -0.4562    1.7277    1.0741 H         1 <0>         0.0735
     37 H5          0.2449    0.0917    1.0565 H         1 <0>         0.0611
     38 H6          1.1971    1.4744    0.4652 H         1 <0>         0.0872
     39 H7         -2.1532    0.0632   -1.7907 H         1 <0>         0.0680
     40 H8         -1.7116   -0.7324   -0.2609 H         1 <0>         0.0680
     41 H9         -2.4126    0.9036   -0.2432 H         1 <0>         0.0834
     42 H10         2.3572   -1.3638   -2.7207 H         1 <0>         0.4205
     43 H11         4.1131    1.0256   -0.8344 H         1 <0>         0.1508
     44 H12         6.4009    1.8010   -1.2873 H         1 <0>         0.1396
     45 H13         6.3409   -0.2526   -5.0531 H         1 <0>         0.1409
     46 H14         4.0564   -1.0298   -4.5864 H         1 <0>         0.1401
     47 H15         8.2988    0.4263   -5.4349 H         1 <0>         0.1721
     48 H16        12.2455    2.7528   -4.3590 H         1 <0>         0.4094
     49 H17        13.5384    1.1970   -6.3300 H         1 <0>         0.0756
     50 H18        12.8882    2.6601   -7.1077 H         1 <0>         0.0756
     51 H19        14.1055    4.0707   -5.4716 H         1 <0>         0.0721
     52 H20        14.7557    2.6076   -4.6939 H         1 <0>         0.0721
     53 H21        15.8633    1.9703   -6.8189 H         1 <0>         0.0693
     54 H22        15.2131    3.4334   -7.5966 H         1 <0>         0.0693
     55 H23        16.4304    4.8441   -5.9605 H         1 <0>         0.0655
     56 H24        17.0806    3.3809   -5.1828 H         1 <0>         0.0655
     57 H25        18.1882    2.7436   -7.3078 H         1 <0>         0.0739
     58 H26        17.5380    4.2068   -8.0855 H         1 <0>         0.0739
     59 H27        18.7554    5.6174   -6.4494 H         1 <0>         0.0993
     60 H28        19.4056    4.1543   -5.6717 H         1 <0>         0.0993
     61 H29        21.4481    5.6877   -6.5316 H         1 <0>         0.4081
     62 H30        23.1816    5.6590   -8.0349 H         1 <0>         0.3878
@<TRIPOS>BOND
     1    1    2 1
     2    1   33 1
     3    1   34 1
     4    1   35 1
     5    2    3 1
     6    2    4 1
     7    2    5 1
     8    3   36 1
     9    3   37 1
    10    3   38 1
    11    4   39 1
    12    4   40 1
    13    4   41 1
    14    5    6 1
    15    6    7 2
    16    6    8 am
    17    8    9 1
    18    8   42 1
    19    9   14 ar
    20    9   10 ar
    21   10   11 ar
    22   10   43 1
    23   11   12 ar
    24   11   44 1
    25   12   13 ar
    26   12   15 1
    27   13   14 ar
    28   13   45 1
    29   14   46 1
    30   15   19 1
    31   15   16 2
    32   16   17 1
    33   16   47 1
    34   17   18 2
    35   17   20 1
    36   18   19 1
    37   20   21 2
    38   20   22 am
    39   22   23 1
    40   22   48 1
    41   23   24 1
    42   23   49 1
    43   23   50 1
    44   24   25 1
    45   24   51 1
    46   24   52 1
    47   25   26 1
    48   25   53 1
    49   25   54 1
    50   26   27 1
    51   26   55 1
    52   26   56 1
    53   27   28 1
    54   27   57 1
    55   27   58 1
    56   28   29 1
    57   28   59 1
    58   28   60 1
    59   29   30 2
    60   29   31 am
    61   31   32 1
    62   31   61 1
    63   32   62 1
@<TRIPOS>MOLECULE
ZINC13473173
   37    38     0     0     0
SMALL
USER_CHARGES
(E)-3-[1-methyl-4-(4-methylbenzoyl)pyrrol-2-yl]prop-2-enehydroxamic acid
@<TRIPOS>ATOM
      1 C1          0.2963   -8.4287    0.4164 C.3       1 <0>        -0.1214
      2 C2          1.1274   -7.1724    0.3696 C.ar      1 <0>        -0.0593
      3 C3          2.3326   -7.1183    1.0474 C.ar      1 <0>        -0.1307
      4 C4          3.0980   -5.9714    1.0091 C.ar      1 <0>        -0.0621
      5 C5          2.6542   -4.8636    0.2843 C.ar      1 <0>        -0.1561
      6 C6          1.4344   -4.9231   -0.3926 C.ar      1 <0>        -0.0790
      7 C7          0.6816   -6.0782   -0.3507 C.ar      1 <0>        -0.1332
      8 C8          3.4693   -3.6312    0.2387 C.2       1 <0>         0.4684
      9 O1          4.6775   -3.6964    0.3602 O.2       1 <0>        -0.4639
     10 C9          2.8180   -2.3243    0.0462 C.2       1 <0>        -0.2541
     11 C10         1.4271   -2.0727    0.0324 C.2       1 <0>        -0.1053
     12 C11         1.2657   -0.7317   -0.1776 C.2       1 <0>        -0.0034
     13 N1          2.5142   -0.1572   -0.2841 N.pl3     1 <0>        -0.4207
     14 C12         3.4526   -1.1098   -0.1504 C.2       1 <0>         0.0969
     15 C13         2.7766    1.2668   -0.5072 C.3       1 <0>         0.0583
     16 C14        -0.0111   -0.0270   -0.2674 C.2       1 <0>         0.0331
     17 C15        -1.1692   -0.6910   -0.0346 C.2       1 <0>        -0.2197
     18 C16        -2.3969    0.0146   -0.0080 C.2       1 <0>         0.5678
     19 O2         -2.4117    1.2178   -0.1942 O.2       1 <0>        -0.5314
     20 N2         -3.5488   -0.6458    0.2235 N.am      1 <0>        -0.5942
     21 O3         -4.7762    0.0596    0.2502 O.3       1 <0>        -0.3160
     22 H1         -0.3893   -8.3794    1.2623 H         1 <0>         0.0751
     23 H2         -0.2735   -8.5220   -0.5082 H         1 <0>         0.0696
     24 H3          0.9506   -9.2932    0.5288 H         1 <0>         0.0696
     25 H4          2.6748   -7.9760    1.6074 H         1 <0>         0.1285
     26 H5          4.0386   -5.9306    1.5383 H         1 <0>         0.1313
     27 H6          1.0832   -4.0682   -0.9515 H         1 <0>         0.1368
     28 H7         -0.2599   -6.1271   -0.8775 H         1 <0>         0.1282
     29 H8          0.6410   -2.8020    0.1616 H         1 <0>         0.1573
     30 H9          4.5207   -0.9542   -0.1893 H         1 <0>         0.1834
     31 H10         2.9376    1.7610    0.4509 H         1 <0>         0.0862
     32 H11         3.6654    1.3795   -1.1281 H         1 <0>         0.0941
     33 H12         1.9221    1.7192   -1.0104 H         1 <0>         0.0939
     34 H13        -0.0319    1.0230   -0.5192 H         1 <0>         0.1385
     35 H14        -1.1556   -1.7575    0.1349 H         1 <0>         0.1349
     36 H15        -3.5369   -1.6043    0.3718 H         1 <0>         0.4098
     37 H16        -5.5469   -0.4983    0.4232 H         1 <0>         0.3887
@<TRIPOS>BOND
     1    1    2 1
     2    1   22 1
     3    1   23 1
     4    1   24 1
     5    2    7 ar
     6    2    3 ar
     7    3    4 ar
     8    3   25 1
     9    4    5 ar
    10    4   26 1
    11    5    6 ar
    12    5    8 1
    13    6    7 ar
    14    6   27 1
    15    7   28 1
    16    8    9 2
    17    8   10 1
    18   10   14 2
    19   10   11 1
    20   11   12 2
    21   11   29 1
    22   12   13 1
    23   12   16 1
    24   13   14 1
    25   13   15 1
    26   14   30 1
    27   15   31 1
    28   15   32 1
    29   15   33 1
    30   16   17 2
    31   16   34 1
    32   17   18 1
    33   17   35 1
    34   18   19 2
    35   18   20 am
    36   20   21 1
    37   20   36 1
    38   21   37 1
@<TRIPOS>MOLECULE
ZINC04962622
   26    26     0     0     0
SMALL
USER_CHARGES
4-phenylbutanehydroxamic acid
@<TRIPOS>ATOM
      1 C1         -0.0126    1.0758    0.0080 C.ar      1 <0>        -0.1244
      2 C2         -1.2190    1.7506    0.0173 C.ar      1 <0>        -0.1183
      3 C3         -1.2377    3.1328    0.0299 C.ar      1 <0>        -0.1171
      4 C4         -0.0501    3.8402    0.0228 C.ar      1 <0>        -0.0833
      5 C5          1.1563    3.1654    0.0076 C.ar      1 <0>        -0.1171
      6 C6          1.1750    1.7832    0.0004 C.ar      1 <0>        -0.1184
      7 C7         -0.0705    5.3471    0.0311 C.3       1 <0>        -0.0807
      8 C8         -0.0912    5.8648   -1.4085 C.3       1 <0>        -0.1002
      9 C9         -0.1120    7.3946   -1.4000 C.3       1 <0>        -0.1267
     10 C10        -0.1324    7.9046   -2.8179 C.2       1 <0>         0.5210
     11 O1         -0.1305    7.1215   -3.7441 O.2       1 <0>        -0.5177
     12 N1         -0.1527    9.2308   -3.0569 N.am      1 <0>        -0.6000
     13 O2         -0.1719    9.7100   -4.3892 O.3       1 <0>        -0.3203
     14 H1          0.0021   -0.0041    0.0020 H         1 <0>         0.1210
     15 H2         -2.1469    1.1980    0.0187 H         1 <0>         0.1217
     16 H3         -2.1802    3.6600    0.0414 H         1 <0>         0.1212
     17 H4          2.0842    3.7181    0.0017 H         1 <0>         0.1212
     18 H5          2.1175    1.2560   -0.0115 H         1 <0>         0.1217
     19 H6         -0.9604    5.6955    0.5554 H         1 <0>         0.0748
     20 H7          0.8193    5.7197    0.5385 H         1 <0>         0.0748
     21 H8          0.7987    5.5164   -1.9327 H         1 <0>         0.0750
     22 H9         -0.9811    5.4922   -1.9158 H         1 <0>         0.0750
     23 H10        -1.0018    7.7430   -0.8757 H         1 <0>         0.1005
     24 H11         0.7779    7.7673   -0.8926 H         1 <0>         0.1005
     25 H12        -0.1542    9.8571   -2.3161 H         1 <0>         0.4081
     26 H13        -0.1857   10.6743   -4.4602 H         1 <0>         0.3877
@<TRIPOS>BOND
     1    1    6 ar
     2    1    2 ar
     3    1   14 1
     4    2    3 ar
     5    2   15 1
     6    3    4 ar
     7    3   16 1
     8    4    5 ar
     9    4    7 1
    10    5    6 ar
    11    5   17 1
    12    6   18 1
    13    7    8 1
    14    7   19 1
    15    7   20 1
    16    8    9 1
    17    8   21 1
    18    8   22 1
    19    9   10 1
    20    9   23 1
    21    9   24 1
    22   10   11 2
    23   10   12 am
    24   12   13 1
    25   12   25 1
    26   13   26 1
@<TRIPOS>MOLECULE
ZINC43196377
   58    60     0     0     0
SMALL
USER_CHARGES

@<TRIPOS>ATOM
      1 C1         -0.1020    1.4354   -0.8175 C.3       1 <0>         0.0203
      2 O1         -0.0873    0.0071   -0.8604 O.3       1 <0>        -0.2971
      3 C2         -1.2670   -0.6288   -0.6382 C.ar      1 <0>         0.1631
      4 C3         -2.4033    0.1098   -0.3922 C.ar      1 <0>        -0.1839
      5 C4         -3.6177   -0.5483   -0.1635 C.ar      1 <0>         0.2009
      6 C5         -3.6582   -1.9645   -0.1890 C.ar      1 <0>        -0.1825
      7 C6         -2.4890   -2.6918   -0.4413 C.ar      1 <0>        -0.1484
      8 C7         -1.3159   -2.0294   -0.6675 C.ar      1 <0>         0.1139
      9 O2         -0.1818   -2.7367   -0.9180 O.3       1 <0>        -0.2985
     10 C8         -0.2959   -4.1611   -0.9346 C.3       1 <0>         0.0535
     11 C9          1.0722   -4.7789   -1.2302 C.3       1 <0>        -0.1180
     12 C10         0.9501   -6.3039   -1.2480 C.3       1 <0>        -0.1175
     13 C11         2.3182   -6.9217   -1.5436 C.3       1 <0>        -0.1185
     14 C12         2.1960   -8.4467   -1.5614 C.3       1 <0>        -0.1066
     15 C13         3.5642   -9.0645   -1.8570 C.3       1 <0>        -0.1271
     16 C14         3.4438  -10.5666   -1.8745 C.2       1 <0>         0.5211
     17 O3          2.3696  -11.0913   -1.6707 O.2       1 <0>        -0.5193
     18 N1          4.5300  -11.3269   -2.1168 N.am      1 <0>        -0.6000
     19 O4          4.4170  -12.7383   -2.1333 O.3       1 <0>        -0.3205
     20 C15        -4.9002   -2.6012    0.0453 C.ar      1 <0>         0.4647
     21 N2         -5.9619   -1.8401    0.2764 N.ar      1 <0>        -0.5803
     22 C16        -5.8762   -0.5194    0.2905 C.ar      1 <0>         0.3431
     23 N3         -4.7531    0.1249    0.0803 N.ar      1 <0>        -0.5432
     24 N4         -5.0043   -3.9778    0.0331 N.pl3     1 <0>        -0.6411
     25 C17        -6.2584   -4.5850    0.1466 C.ar      1 <0>         0.1525
     26 C18        -6.3923   -5.7779    0.8480 C.ar      1 <0>        -0.1358
     27 C19        -7.6298   -6.3821    0.9625 C.ar      1 <0>        -0.0973
     28 C20        -8.7411   -5.8052    0.3813 C.ar      1 <0>        -0.1093
     29 C21        -8.6173   -4.6077   -0.3245 C.ar      1 <0>         0.0287
     30 C22        -7.3697   -3.9948   -0.4354 C.ar      1 <0>        -0.0845
     31 C23        -9.7686   -4.0074   -0.9284 C.1       1 <0>        -0.1517
     32 C24       -10.7126   -3.5153   -1.4234 C.1       1 <0>        -0.1691
     33 H1          0.9012    1.8151   -1.0110 H         1 <0>         0.1069
     34 H2         -0.7867    1.8147   -1.5762 H         1 <0>         0.0619
     35 H3         -0.4319    1.7659    0.1674 H         1 <0>         0.0619
     36 H4         -2.3577    1.1887   -0.3754 H         1 <0>         0.1556
     37 H5         -2.5152   -3.7713   -0.4617 H         1 <0>         0.1384
     38 H6         -0.6494   -4.5086    0.0362 H         1 <0>         0.0636
     39 H7         -1.0041   -4.4598   -1.7074 H         1 <0>         0.0639
     40 H8          1.4257   -4.4314   -2.2009 H         1 <0>         0.0764
     41 H9          1.7805   -4.4801   -0.4574 H         1 <0>         0.0764
     42 H10         0.5966   -6.6514   -0.2773 H         1 <0>         0.0677
     43 H11         0.2419   -6.6027   -2.0208 H         1 <0>         0.0678
     44 H12         2.6717   -6.5742   -2.5144 H         1 <0>         0.0670
     45 H13         3.0264   -6.6230   -0.7708 H         1 <0>         0.0670
     46 H14         1.8425   -8.7943   -0.5907 H         1 <0>         0.0735
     47 H15         1.4878   -8.7455   -2.3342 H         1 <0>         0.0736
     48 H16         3.9177   -8.7170   -2.8278 H         1 <0>         0.0998
     49 H17         4.2724   -8.7658   -1.0842 H         1 <0>         0.0998
     50 H18         5.3892  -10.9073   -2.2798 H         1 <0>         0.4083
     51 H19         5.2483  -13.1974   -2.3152 H         1 <0>         0.3880
     52 H20        -6.7712    0.0535    0.4833 H         1 <0>         0.1970
     53 H21        -4.2073   -4.5237   -0.0542 H         1 <0>         0.4199
     54 H22        -5.5263   -6.2340    1.3046 H         1 <0>         0.1283
     55 H23        -7.7278   -7.3089    1.5083 H         1 <0>         0.1335
     56 H24        -9.7064   -6.2809    0.4724 H         1 <0>         0.1285
     57 H25        -7.2686   -3.0659   -0.9770 H         1 <0>         0.1383
     58 H26       -11.5568   -3.0752   -1.8662 H         1 <0>         0.2250
@<TRIPOS>BOND
     1    1    2 1
     2    1   33 1
     3    1   34 1
     4    1   35 1
     5    2    3 1
     6    3    8 ar
     7    3    4 ar
     8    4    5 ar
     9    4   36 1
    10    5   23 ar
    11    5    6 ar
    12    6    7 ar
    13    6   20 ar
    14    7    8 ar
    15    7   37 1
    16    8    9 1
    17    9   10 1
    18   10   11 1
    19   10   38 1
    20   10   39 1
    21   11   12 1
    22   11   40 1
    23   11   41 1
    24   12   13 1
    25   12   42 1
    26   12   43 1
    27   13   14 1
    28   13   44 1
    29   13   45 1
    30   14   15 1
    31   14   46 1
    32   14   47 1
    33   15   16 1
    34   15   48 1
    35   15   49 1
    36   16   17 2
    37   16   18 am
    38   18   19 1
    39   18   50 1
    40   19   51 1
    41   20   21 ar
    42   20   24 1
    43   21   22 ar
    44   22   23 ar
    45   22   52 1
    46   24   25 1
    47   24   53 1
    48   25   30 ar
    49   25   26 ar
    50   26   27 ar
    51   26   54 1
    52   27   28 ar
    53   27   55 1
    54   28   29 ar
    55   28   56 1
    56   29   30 ar
    57   29   31 1
    58   30   57 1
    59   31   32 3
    60   32   58 1
@<TRIPOS>MOLECULE
ZINC03818418
   48    51     0     0     0
SMALL
USER_CHARGES

@<TRIPOS>ATOM
      1 C1         -0.0164    1.3567    0.0095 C.ar      1 <0>        -0.0922
      2 C2          1.1686    2.0905    0.0021 C.ar      1 <0>        -0.1205
      3 C3          2.3785    1.4675   -0.0131 C.ar      1 <0>        -0.0906
      4 C4          2.4375    0.0634   -0.0211 C.ar      1 <0>        -0.0787
      5 C5          3.6681   -0.6153   -0.0364 C.ar      1 <0>         0.0184
      6 C6          3.6865   -1.9761   -0.0434 C.ar      1 <0>        -0.6740
      7 C7          2.5015   -2.7098   -0.0357 C.ar      1 <0>        -0.0461
      8 C8          1.2917   -2.0868   -0.0209 C.ar      1 <0>        -0.1150
      9 C9          1.2327   -0.6827   -0.0133 C.ar      1 <0>        -0.0120
     10 C10         0.0021   -0.0041    0.0020 C.ar      1 <0>        -0.1198
     11 S1          5.2315   -2.8230   -0.0631 S.o2      1 <0>         2.6885
     12 O1          4.9835   -4.1075   -0.6179 O.2       1 <0>        -0.9478
     13 O2          6.1807   -1.9234   -0.6189 O.2       1 <0>        -0.9500
     14 N1          5.6766   -3.0663    1.5133 N.pl3     1 <0>        -0.9980
     15 C11         6.4806   -2.0640    2.2267 C.3       1 <0>         0.1044
     16 C12         5.7399   -1.6638    3.5087 C.3       1 <0>         0.1056
     17 N2          5.3376   -2.8856    4.2195 N.pl3     1 <0>        -0.5670
     18 C13         4.5337   -3.8878    3.5062 C.3       1 <0>         0.1061
     19 C14         5.2696   -4.2855    2.2259 C.3       1 <0>         0.1050
     20 C15         5.7084   -3.0882    5.5326 C.ar      1 <0>         0.5861
     21 N3          6.4301   -2.1608    6.1485 N.ar      1 <0>        -0.5683
     22 C16         6.8044   -2.3167    7.4042 C.ar      1 <0>         0.2679
     23 C17         6.4284   -3.4817    8.0857 C.ar      1 <0>        -0.3069
     24 C18         5.6665   -4.4357    7.3986 C.ar      1 <0>         0.2354
     25 N4          5.3283   -4.2022    6.1445 N.ar      1 <0>        -0.5698
     26 C19         6.8250   -3.6984    9.4904 C.2       1 <0>         0.5920
     27 O3          7.4868   -2.8601   10.0715 O.2       1 <0>        -0.5166
     28 N5          6.4538   -4.8256   10.1292 N.am      1 <0>        -0.5951
     29 O4          6.8344   -5.0335   11.4771 O.3       1 <0>        -0.3106
     30 H1         -0.9633    1.8757    0.0259 H         1 <0>         0.1292
     31 H2          1.1260    3.1696    0.0083 H         1 <0>         0.1297
     32 H3          3.2884    2.0491   -0.0194 H         1 <0>         0.1343
     33 H4          4.5943   -0.0599   -0.0428 H         1 <0>         0.1453
     34 H5          2.5441   -3.7890   -0.0419 H         1 <0>         0.1389
     35 H6          0.3816   -2.6684   -0.0154 H         1 <0>         0.1367
     36 H7         -0.9241   -0.5595    0.0082 H         1 <0>         0.1330
     37 H8          7.4514   -2.4884    2.4825 H         1 <0>         0.0853
     38 H9          6.6171   -1.1869    1.5942 H         1 <0>         0.1074
     39 H10         6.4000   -1.0721    4.1430 H         1 <0>         0.1174
     40 H11         4.8549   -1.0810    3.2532 H         1 <0>         0.0768
     41 H12         4.3971   -4.7649    4.1387 H         1 <0>         0.1165
     42 H13         3.5628   -3.4634    3.2504 H         1 <0>         0.0770
     43 H14         4.6066   -4.8751    1.5927 H         1 <0>         0.1081
     44 H15         6.1522   -4.8717    2.4816 H         1 <0>         0.0841
     45 H16         7.3922   -1.5577    7.8991 H         1 <0>         0.1846
     46 H17         5.3570   -5.3467    7.8892 H         1 <0>         0.1693
     47 H18         5.9258   -5.4943    9.6656 H         1 <0>         0.4057
     48 H19         6.5220   -5.8695   11.8495 H         1 <0>         0.3903
@<TRIPOS>BOND
     1    1   10 ar
     2    1    2 ar
     3    1   30 1
     4    2    3 ar
     5    2   31 1
     6    3    4 ar
     7    3   32 1
     8    4    9 ar
     9    4    5 ar
    10    5    6 ar
    11    5   33 1
    12    6    7 ar
    13    6   11 1
    14    7    8 ar
    15    7   34 1
    16    8    9 ar
    17    8   35 1
    18    9   10 ar
    19   10   36 1
    20   11   12 2
    21   11   13 2
    22   11   14 1
    23   14   19 1
    24   14   15 1
    25   15   16 1
    26   15   37 1
    27   15   38 1
    28   16   17 1
    29   16   39 1
    30   16   40 1
    31   17   18 1
    32   17   20 1
    33   18   19 1
    34   18   41 1
    35   18   42 1
    36   19   43 1
    37   19   44 1
    38   20   25 ar
    39   20   21 ar
    40   21   22 ar
    41   22   23 ar
    42   22   45 1
    43   23   24 ar
    44   23   26 1
    45   24   25 ar
    46   24   46 1
    47   26   27 2
    48   26   28 am
    49   28   29 1
    50   28   47 1
    51   29   48 1
@<TRIPOS>MOLECULE
ZINC03873638
   42    44     0     0     0
SMALL
USER_CHARGES

@<TRIPOS>ATOM
      1 C1         -0.0168    1.3857    0.0097 C.ar      1 <0>        -0.1387
      2 C2          1.1363    2.1169    0.0026 C.ar      1 <0>        -0.0486
      3 C3          2.3822    1.4660   -0.0128 C.ar      1 <0>        -0.0764
      4 C4          3.5968    2.1738   -0.0211 C.ar      1 <0>        -0.0486
      5 C5          4.7823    1.4966   -0.0369 C.ar      1 <0>        -0.1388
      6 C6          4.8276    0.1074   -0.0447 C.ar      1 <0>        -0.0052
      7 C7          3.6516   -0.6280   -0.0370 C.ar      1 <0>        -0.1619
      8 C8          2.4148    0.0559   -0.0206 C.ar      1 <0>         0.0076
      9 C9          1.2107   -0.6844   -0.0131 C.ar      1 <0>        -0.1619
     10 C10         0.0021   -0.0041    0.0020 C.ar      1 <0>        -0.0052
     11 C11         1.2851   -2.1528   -0.0221 C.2       1 <0>         0.5707
     12 O1          0.2620   -2.8102   -0.0163 O.2       1 <0>        -0.4899
     13 N1          2.4799   -2.7737   -0.0372 N.am      1 <0>        -0.5600
     14 C12         3.6448   -2.0983   -0.0457 C.2       1 <0>         0.5706
     15 O2          4.6971   -2.7078   -0.0602 O.2       1 <0>        -0.4899
     16 C13         2.5136   -4.2383   -0.0458 C.3       1 <0>         0.0954
     17 C14         2.5114   -4.7400   -1.4912 C.3       1 <0>        -0.1324
     18 C15         2.5466   -6.2696   -1.5002 C.3       1 <0>        -0.1139
     19 C16         2.5443   -6.7713   -2.9455 C.3       1 <0>        -0.1052
     20 C17         2.5795   -8.3009   -2.9545 C.3       1 <0>        -0.1262
     21 C18         2.5773   -8.7951   -4.3782 C.2       1 <0>         0.5212
     22 O3          2.5502   -8.0020   -5.2953 O.2       1 <0>        -0.5187
     23 N2          2.6054  -10.1184   -4.6322 N.am      1 <0>        -0.6001
     24 O4          2.6033  -10.5827   -5.9699 O.3       1 <0>        -0.3207
     25 H1         -0.9665    1.8997    0.0261 H         1 <0>         0.1404
     26 H2          1.0912    3.1960    0.0084 H         1 <0>         0.1417
     27 H3          3.5922    3.2538   -0.0153 H         1 <0>         0.1417
     28 H4          5.7074    2.0539   -0.0438 H         1 <0>         0.1404
     29 H5          5.7806   -0.4005   -0.0572 H         1 <0>         0.1464
     30 H6         -0.9265   -0.5555    0.0079 H         1 <0>         0.1464
     31 H7          3.4167   -4.5839    0.4573 H         1 <0>         0.0986
     32 H8          1.6373   -4.6250    0.4744 H         1 <0>         0.0987
     33 H9          1.6083   -4.3945   -1.9943 H         1 <0>         0.0700
     34 H10         3.3877   -4.3534   -2.0114 H         1 <0>         0.0700
     35 H11         3.4496   -6.6152   -0.9970 H         1 <0>         0.0692
     36 H12         1.6702   -6.6563   -0.9800 H         1 <0>         0.0692
     37 H13         1.6412   -6.4258   -3.4487 H         1 <0>         0.0738
     38 H14         3.4206   -6.3847   -3.4658 H         1 <0>         0.0738
     39 H15         3.4826   -8.6465   -2.4514 H         1 <0>         0.1003
     40 H16         1.7032   -8.6876   -2.4343 H         1 <0>         0.1003
     41 H17         2.6271  -10.7527   -3.8987 H         1 <0>         0.4082
     42 H18         2.6248  -11.5460   -6.0519 H         1 <0>         0.3875
@<TRIPOS>BOND
     1    1   10 ar
     2    1    2 ar
     3    1   25 1
     4    2    3 ar
     5    2   26 1
     6    3    8 ar
     7    3    4 ar
     8    4    5 ar
     9    4   27 1
    10    5    6 ar
    11    5   28 1
    12    6    7 ar
    13    6   29 1
    14    7   14 1
    15    7    8 ar
    16    8    9 ar
    17    9   10 ar
    18    9   11 1
    19   10   30 1
    20   11   12 2
    21   11   13 am
    22   13   14 am
    23   13   16 1
    24   14   15 2
    25   16   17 1
    26   16   31 1
    27   16   32 1
    28   17   18 1
    29   17   33 1
    30   17   34 1
    31   18   19 1
    32   18   35 1
    33   18   36 1
    34   19   20 1
    35   19   37 1
    36   19   38 1
    37   20   21 1
    38   20   39 1
    39   20   40 1
    40   21   22 2
    41   21   23 am
    42   23   24 1
    43   23   41 1
    44   24   42 1
@<TRIPOS>MOLECULE
ZINC01543873
   39    39     0     0     0
SMALL
USER_CHARGES

@<TRIPOS>ATOM
      1 C1         -0.0153    1.3806    0.0293 C.ar      1 <0>        -0.1357
      2 C2          0.1395    0.2185    0.7628 C.ar      1 <0>        -0.1006
      3 C3          1.3439   -0.4572    0.7427 C.ar      1 <0>        -0.1222
      4 C4          2.3999    0.0313   -0.0154 C.ar      1 <0>         0.1441
      5 C5          2.2411    1.1983   -0.7512 C.ar      1 <0>        -0.1477
      6 C6          1.0343    1.8696   -0.7267 C.ar      1 <0>        -0.1005
      7 N1          3.6215   -0.6506   -0.0375 N.am      1 <0>        -0.6779
      8 C7          3.6447   -1.9949    0.0568 C.2       1 <0>         0.5113
      9 O1          2.6055   -2.6203    0.0643 O.2       1 <0>        -0.5177
     10 C8          4.9618   -2.7209    0.1528 C.3       1 <0>        -0.1403
     11 C9          4.7083   -4.2267    0.2488 C.3       1 <0>        -0.1053
     12 C10         6.0454   -4.9638    0.3463 C.3       1 <0>        -0.1207
     13 C11         5.7919   -6.4696    0.4422 C.3       1 <0>        -0.1198
     14 C12         7.1291   -7.2067    0.5397 C.3       1 <0>        -0.1062
     15 C13         6.8756   -8.7125    0.6357 C.3       1 <0>        -0.1272
     16 C14         8.1927   -9.4386    0.7317 C.2       1 <0>         0.5212
     17 O2          9.2318   -8.8132    0.7242 O.2       1 <0>        -0.5195
     18 N2          8.2158  -10.7828    0.8260 N.am      1 <0>        -0.6001
     19 O3          9.4534  -11.4650    0.9162 O.3       1 <0>        -0.3208
     20 H1         -0.9594    1.9049    0.0433 H         1 <0>         0.1238
     21 H2         -0.6821   -0.1608    1.3522 H         1 <0>         0.1259
     22 H3          1.4644   -1.3643    1.3164 H         1 <0>         0.1332
     23 H4          3.0605    1.5809   -1.3416 H         1 <0>         0.1249
     24 H5          0.9101    2.7772   -1.2987 H         1 <0>         0.1265
     25 H6          4.4517   -0.1559   -0.1206 H         1 <0>         0.4115
     26 H7          5.5591   -2.5088   -0.7339 H         1 <0>         0.0972
     27 H8          5.4977   -2.3854    1.0407 H         1 <0>         0.0984
     28 H9          4.1109   -4.4388    1.1355 H         1 <0>         0.0710
     29 H10         4.1723   -4.5622   -0.6391 H         1 <0>         0.0711
     30 H11         6.6428   -4.7517   -0.5405 H         1 <0>         0.0651
     31 H12         6.5814   -4.6283    1.2342 H         1 <0>         0.0652
     32 H13         5.1946   -6.6817    1.3290 H         1 <0>         0.0654
     33 H14         5.2560   -6.8051   -0.4457 H         1 <0>         0.0654
     34 H15         7.7264   -6.9946   -0.3470 H         1 <0>         0.0729
     35 H16         7.6650   -6.8712    1.4276 H         1 <0>         0.0729
     36 H17         6.2783   -8.9246    1.5224 H         1 <0>         0.0995
     37 H18         6.3396   -9.0480   -0.2522 H         1 <0>         0.0995
     38 H19         7.3847  -11.2830    0.8320 H         1 <0>         0.4083
     39 H20         9.3689  -12.4262    0.9801 H         1 <0>         0.3877
@<TRIPOS>BOND
     1    1    6 ar
     2    1    2 ar
     3    1   20 1
     4    2    3 ar
     5    2   21 1
     6    3    4 ar
     7    3   22 1
     8    4    5 ar
     9    4    7 1
    10    5    6 ar
    11    5   23 1
    12    6   24 1
    13    7    8 am
    14    7   25 1
    15    8    9 2
    16    8   10 1
    17   10   11 1
    18   10   26 1
    19   10   27 1
    20   11   12 1
    21   11   28 1
    22   11   29 1
    23   12   13 1
    24   12   30 1
    25   12   31 1
    26   13   14 1
    27   13   32 1
    28   13   33 1
    29   14   15 1
    30   14   34 1
    31   14   35 1
    32   15   16 1
    33   15   36 1
    34   15   37 1
    35   16   17 2
    36   16   18 am
    37   18   19 1
    38   18   38 1
    39   19   39 1
@<TRIPOS>MOLECULE
ZINC05579377
   44    44     0     0     0
SMALL
USER_CHARGES

@<TRIPOS>ATOM
      1 C1          0.0163    0.8704   -0.6224 C.3       1 <0>        -0.1382
      2 C2          0.1984   -0.5975   -0.2312 C.3       1 <0>        -0.1146
      3 H1         -0.7690   -1.0995   -0.2438 H         1 <0>         0.1076
      4 C3          0.7887   -0.6789    1.1530 C.2       1 <0>        -0.0924
      5 C4          0.0754   -1.2000    2.1527 C.2       1 <0>        -0.1248
      6 C5         -1.3645   -1.5849    1.9302 C.3       1 <0>        -0.1253
      7 C6          0.6913   -1.3981    3.4654 C.2       1 <0>        -0.0018
      8 C7         -0.0314   -1.9261    4.4783 C.2       1 <0>        -0.2188
      9 C8          0.5841   -2.1240    5.7903 C.2       1 <0>         0.5599
     10 O1          1.7472   -1.8132    5.9699 O.2       1 <0>        -0.5263
     11 N1         -0.1365   -2.6506    6.8002 N.am      1 <0>        -0.5945
     12 O2          0.4595   -2.8422    8.0703 O.3       1 <0>        -0.3168
     13 C9          1.1251   -1.2677   -1.2126 C.2       1 <0>         0.4107
     14 O3          2.3095   -1.3556   -0.9656 O.2       1 <0>        -0.4581
     15 C10         0.5946   -1.8139   -2.4671 C.ar      1 <0>        -0.2376
     16 C11        -0.7721   -1.7083   -2.7570 C.ar      1 <0>        -0.0197
     17 C12        -1.2614   -2.2176   -3.9257 C.ar      1 <0>        -0.2150
     18 C13        -0.4039   -2.8414   -4.8291 C.ar      1 <0>         0.2501
     19 C14         0.9557   -2.9486   -4.5449 C.ar      1 <0>        -0.2148
     20 C15         1.4543   -2.4374   -3.3810 C.ar      1 <0>        -0.0053
     21 N2         -0.9059   -3.3584   -6.0164 N.pl3     1 <0>        -0.6264
     22 C16        -2.3354   -3.2472   -6.3172 C.3       1 <0>         0.0859
     23 C17        -0.0060   -4.0149   -6.9680 C.3       1 <0>         0.0853
     24 H2          0.9837    1.3725   -0.6098 H         1 <0>         0.0651
     25 H3         -0.4106    0.9293   -1.6236 H         1 <0>         0.0678
     26 H4         -0.6539    1.3552    0.0874 H         1 <0>         0.0712
     27 H5          1.7891   -0.3153    1.3357 H         1 <0>         0.1273
     28 H6         -1.4116   -2.5915    1.5147 H         1 <0>         0.0719
     29 H7         -1.8986   -1.5586    2.8801 H         1 <0>         0.0699
     30 H8         -1.8250   -0.8829    1.2350 H         1 <0>         0.0721
     31 H9          1.7232   -1.1223    3.6248 H         1 <0>         0.1353
     32 H10        -1.0634   -2.2019    4.3189 H         1 <0>         0.1355
     33 H11        -1.0633   -2.8983    6.6570 H         1 <0>         0.4090
     34 H12        -0.1350   -3.2249    8.7300 H         1 <0>         0.3880
     35 H13        -1.4377   -1.2251   -2.0571 H         1 <0>         0.1299
     36 H14        -2.3148   -2.1369   -4.1498 H         1 <0>         0.1291
     37 H15         1.6170   -3.4333   -5.2479 H         1 <0>         0.1289
     38 H16         2.5092   -2.5170   -3.1635 H         1 <0>         0.1322
     39 H17        -2.5223   -2.3180   -6.8554 H         1 <0>         0.0543
     40 H18        -2.6439   -4.0921   -6.9331 H         1 <0>         0.0711
     41 H19        -2.9036   -3.2490   -5.3871 H         1 <0>         0.0730
     42 H20         0.0495   -5.0794   -6.7405 H         1 <0>         0.0545
     43 H21        -0.3861   -3.8791   -7.9805 H         1 <0>         0.0713
     44 H22         0.9881   -3.5745   -6.8910 H         1 <0>         0.0733
@<TRIPOS>BOND
     1    1    2 1
     2    1   24 1
     3    1   25 1
     4    1   26 1
     5    2    3 1
     6    2    4 1
     7    2   13 1
     8    4    5 2
     9    4   27 1
    10    5    6 1
    11    5    7 1
    12    6   28 1
    13    6   29 1
    14    6   30 1
    15    7    8 2
    16    7   31 1
    17    8    9 1
    18    8   32 1
    19    9   10 2
    20    9   11 am
    21   11   12 1
    22   11   33 1
    23   12   34 1
    24   13   14 2
    25   13   15 1
    26   15   20 ar
    27   15   16 ar
    28   16   17 ar
    29   16   35 1
    30   17   18 ar
    31   17   36 1
    32   18   19 ar
    33   18   21 1
    34   19   20 ar
    35   19   37 1
    36   20   38 1
    37   21   22 1
    38   21   23 1
    39   22   39 1
    40   22   40 1
    41   22   41 1
    42   23   42 1
    43   23   43 1
    44   23   44 1
@<TRIPOS>MOLECULE
ZINC05579377
   44    44     0     0     0
SMALL
USER_CHARGES

@<TRIPOS>ATOM
      1 C1         -0.0492    1.9543   -0.7649 C.3       1 <0>        -0.1371
      2 C2         -0.1970    0.4706   -0.4219 C.3       1 <0>        -0.1146
      3 H1         -1.2419    0.1768   -0.5224 H         1 <0>         0.1068
      4 C3          0.6480   -0.3491   -1.3627 C.2       1 <0>        -0.0922
      5 C4          0.0955   -1.3410   -2.0632 C.2       1 <0>        -0.1239
      6 C5         -1.3398   -1.7287   -1.8172 C.3       1 <0>        -0.1255
      7 C6          0.8833   -2.0526   -3.0704 C.2       1 <0>        -0.0021
      8 C7          0.3236   -3.0577   -3.7802 C.2       1 <0>        -0.2183
      9 C8          1.1110   -3.7689   -4.7869 C.2       1 <0>         0.5601
     10 O1          2.2703   -3.4558   -4.9856 O.2       1 <0>        -0.5264
     11 N1          0.5528   -4.7710   -5.4945 N.am      1 <0>        -0.5945
     12 O2          1.3151   -5.4596   -6.4691 O.3       1 <0>        -0.3168
     13 C9          0.2569    0.2350    0.9957 C.2       1 <0>         0.4096
     14 O3          1.4170   -0.0363    1.2239 O.2       1 <0>        -0.4577
     15 C10        -0.7046    0.3339    2.1000 C.ar      1 <0>        -0.2382
     16 C11        -2.0461    0.6415    1.8381 C.ar      1 <0>        -0.0203
     17 C12        -2.9375    0.7320    2.8685 C.ar      1 <0>        -0.2146
     18 C13        -2.5146    0.5191    4.1787 C.ar      1 <0>         0.2502
     19 C14        -1.1816    0.2130    4.4437 C.ar      1 <0>        -0.2147
     20 C15        -0.2847    0.1153    3.4187 C.ar      1 <0>        -0.0054
     21 N2         -3.4245    0.6126    5.2239 N.pl3     1 <0>        -0.6263
     22 C16        -4.8267    0.9348    4.9477 C.3       1 <0>         0.0858
     23 C17        -2.9821    0.3891    6.6025 C.3       1 <0>         0.0852
     24 H2          0.9957    2.2481   -0.6644 H         1 <0>         0.0652
     25 H3         -0.3775    2.1247   -1.7902 H         1 <0>         0.0716
     26 H4         -0.6604    2.5472   -0.0844 H         1 <0>         0.0675
     27 H5          1.7008   -0.1336   -1.4699 H         1 <0>         0.1268
     28 H6         -1.9953   -1.0898   -2.4090 H         1 <0>         0.0735
     29 H7         -1.4896   -2.7692   -2.1053 H         1 <0>         0.0699
     30 H8         -1.5727   -1.6076   -0.7593 H         1 <0>         0.0703
     31 H9          1.9120   -1.7748   -3.2467 H         1 <0>         0.1354
     32 H10        -0.7051   -3.3356   -3.6039 H         1 <0>         0.1356
     33 H11        -0.3711   -5.0206   -5.3362 H         1 <0>         0.4091
     34 H12         0.8299   -6.1613   -6.9244 H         1 <0>         0.3881
     35 H13        -2.3747    0.8070    0.8227 H         1 <0>         0.1300
     36 H14        -3.9717    0.9694    2.6675 H         1 <0>         0.1292
     37 H15        -0.8579    0.0491    5.4609 H         1 <0>         0.1289
     38 H16         0.7476   -0.1264    3.6246 H         1 <0>         0.1321
     39 H17        -5.3859    0.0135    4.7847 H         1 <0>         0.0542
     40 H18        -5.2502    1.4716    5.7966 H         1 <0>         0.0711
     41 H19        -4.8873    1.5591    4.0562 H         1 <0>         0.0731
     42 H20        -2.6609    1.3349    7.0388 H         1 <0>         0.0546
     43 H21        -3.8065   -0.0193    7.1869 H         1 <0>         0.0713
     44 H22        -2.1497   -0.3145    6.6073 H         1 <0>         0.0732
@<TRIPOS>BOND
     1    1    2 1
     2    1   24 1
     3    1   25 1
     4    1   26 1
     5    2    3 1
     6    2    4 1
     7    2   13 1
     8    4    5 2
     9    4   27 1
    10    5    6 1
    11    5    7 1
    12    6   28 1
    13    6   29 1
    14    6   30 1
    15    7    8 2
    16    7   31 1
    17    8    9 1
    18    8   32 1
    19    9   10 2
    20    9   11 am
    21   11   12 1
    22   11   33 1
    23   12   34 1
    24   13   14 2
    25   13   15 1
    26   15   20 ar
    27   15   16 ar
    28   16   17 ar
    29   16   35 1
    30   17   18 ar
    31   17   36 1
    32   18   19 ar
    33   18   21 1
    34   19   20 ar
    35   19   37 1
    36   20   38 1
    37   21   22 1
    38   21   23 1
    39   22   39 1
    40   22   40 1
    41   22   41 1
    42   23   42 1
    43   23   43 1
    44   23   44 1
