@<TRIPOS>MOLECULE
ZINC00386008
   35    37     0     0     0
SMALL
USER_CHARGES

@<TRIPOS>ATOM
      1 C1         -0.0184    1.5028    0.0103 C.3       1 <0>        -0.1146
      2 C2          0.0021   -0.0041    0.0020 C.ar      1 <0>        -0.0635
      3 C3          0.0058   -0.6876   -1.2015 C.ar      1 <0>        -0.1118
      4 C4          0.0249   -2.0686   -1.2189 C.ar      1 <0>        -0.0737
      5 C5          0.0405   -2.7748   -0.0263 C.ar      1 <0>         0.0261
      6 C6          0.0368   -2.0851    1.1859 C.ar      1 <0>         0.0808
      7 C7          0.0228   -0.6991    1.1955 C.ar      1 <0>        -0.1051
      8 N1          0.0551   -3.0495    2.1931 N.am      1 <0>        -0.5416
      9 C8          0.0690   -4.2581    1.5966 C.2       1 <0>         0.6316
     10 O1          0.0867   -5.3270    2.1760 O.2       1 <0>        -0.4636
     11 O2          0.0603   -4.0988    0.2639 O.3       1 <0>        -0.2411
     12 C9          0.0593   -2.7954    3.6359 C.3       1 <0>         0.1856
     13 C10        -1.3599   -2.7274    4.1381 C.ar      1 <0>        -0.1614
     14 C11        -1.9599   -1.5013    4.3514 C.ar      1 <0>        -0.0590
     15 C12        -3.2616   -1.4382    4.8126 C.ar      1 <0>        -0.1626
     16 C13        -3.9667   -2.6016    5.0612 C.ar      1 <0>        -0.0663
     17 C14        -3.3716   -3.8299    4.8491 C.ar      1 <0>        -0.2142
     18 C15        -2.0669   -3.8958    4.3813 C.ar      1 <0>         0.1504
     19 O3         -1.4811   -5.1031    4.1665 O.3       1 <0>        -0.2920
     20 C16        -2.2688   -6.2640    4.4383 C.3       1 <0>         0.0304
     21 H1          1.0042    1.8801    0.0026 H         1 <0>         0.0762
     22 H2         -0.5455    1.8639   -0.8728 H         1 <0>         0.0727
     23 H3         -0.5286    1.8543    0.9071 H         1 <0>         0.0697
     24 H4         -0.0068   -0.1385   -2.1315 H         1 <0>         0.1415
     25 H5          0.0273   -2.5974   -2.1605 H         1 <0>         0.1411
     26 H6          0.0244   -0.1641    2.1337 H         1 <0>         0.1325
     27 H7          0.5867   -3.6019    4.1454 H         1 <0>         0.1080
     28 H8          0.5615   -1.8491    3.8367 H         1 <0>         0.1003
     29 H9         -1.4113   -0.5913    4.1580 H         1 <0>         0.1290
     30 H10        -3.7286   -0.4788    4.9794 H         1 <0>         0.1272
     31 H11        -4.9834   -2.5497    5.4218 H         1 <0>         0.1270
     32 H12        -3.9226   -4.7382    5.0434 H         1 <0>         0.1306
     33 H13        -2.5651   -6.2647    5.4872 H         1 <0>         0.0541
     34 H14        -3.1590   -6.2544    3.8093 H         1 <0>         0.0527
     35 H15        -1.6832   -7.1584    4.2255 H         1 <0>         0.1029
@<TRIPOS>BOND
     1    1    2 1
     2    1   21 1
     3    1   22 1
     4    1   23 1
     5    2    7 ar
     6    2    3 ar
     7    3    4 ar
     8    3   24 1
     9    4    5 ar
    10    4   25 1
    11    5   11 1
    12    5    6 ar
    13    6    7 ar
    14    6    8 1
    15    7   26 1
    16    8    9 am
    17    8   12 1
    18    9   10 2
    19    9   11 1
    20   12   13 1
    21   12   27 1
    22   12   28 1
    23   13   18 ar
    24   13   14 ar
    25   14   15 ar
    26   14   29 1
    27   15   16 ar
    28   15   30 1
    29   16   17 ar
    30   16   31 1
    31   17   18 ar
    32   17   32 1
    33   18   19 1
    34   19   20 1
    35   20   33 1
    36   20   34 1
    37   20   35 1
@<TRIPOS>MOLECULE
ZINC00806272
   31    33     0     0     0
SMALL
USER_CHARGES

@<TRIPOS>ATOM
      1 C1         -0.0184    1.5028    0.0103 C.3       1 <0>        -0.1153
      2 C2          0.0021   -0.0041    0.0020 C.ar      1 <0>        -0.0621
      3 C3          0.0058   -0.6876   -1.2015 C.ar      1 <0>        -0.1095
      4 C4          0.0249   -2.0686   -1.2189 C.ar      1 <0>        -0.0720
      5 C5          0.0405   -2.7748   -0.0263 C.ar      1 <0>         0.0266
      6 C6          0.0368   -2.0851    1.1859 C.ar      1 <0>         0.0790
      7 C7          0.0228   -0.6991    1.1955 C.ar      1 <0>        -0.1041
      8 N1          0.0551   -3.0495    2.1931 N.am      1 <0>        -0.5417
      9 C8          0.0690   -4.2581    1.5966 C.2       1 <0>         0.6361
     10 O1          0.0867   -5.3270    2.1760 O.2       1 <0>        -0.4838
     11 O2          0.0603   -4.0988    0.2639 O.3       1 <0>        -0.2361
     12 C9          0.0593   -2.7954    3.6359 C.3       1 <0>         0.1736
     13 C10        -1.3599   -2.7274    4.1381 C.ar      1 <0>        -0.1253
     14 C11        -2.0298   -1.5183    4.1556 C.ar      1 <0>        -0.0975
     15 C12        -3.3316   -1.4560    4.6163 C.ar      1 <0>        -0.1229
     16 C13        -3.9638   -2.6028    5.0591 C.ar      1 <0>        -0.1073
     17 C14        -3.2943   -3.8121    5.0407 C.ar      1 <0>        -0.1212
     18 C15        -1.9939   -3.8752    4.5761 C.ar      1 <0>        -0.0930
     19 H1          1.0042    1.8801    0.0026 H         1 <0>         0.0770
     20 H2         -0.5455    1.8639   -0.8728 H         1 <0>         0.0736
     21 H3         -0.5286    1.8543    0.9071 H         1 <0>         0.0700
     22 H4         -0.0068   -0.1385   -2.1315 H         1 <0>         0.1429
     23 H5          0.0273   -2.5974   -2.1605 H         1 <0>         0.1427
     24 H6          0.0244   -0.1641    2.1337 H         1 <0>         0.1333
     25 H7          0.5867   -3.6019    4.1454 H         1 <0>         0.1074
     26 H8          0.5615   -1.8491    3.8367 H         1 <0>         0.1032
     27 H9         -1.5358   -0.6224    3.8097 H         1 <0>         0.1215
     28 H10        -3.8547   -0.5112    4.6306 H         1 <0>         0.1256
     29 H11        -4.9806   -2.5539    5.4196 H         1 <0>         0.1251
     30 H12        -3.7881   -4.7080    5.3870 H         1 <0>         0.1262
     31 H13        -1.4721   -4.8206    4.5583 H         1 <0>         0.1278
@<TRIPOS>BOND
     1    1    2 1
     2    1   19 1
     3    1   20 1
     4    1   21 1
     5    2    7 ar
     6    2    3 ar
     7    3    4 ar
     8    3   22 1
     9    4    5 ar
    10    4   23 1
    11    5   11 1
    12    5    6 ar
    13    6    7 ar
    14    6    8 1
    15    7   24 1
    16    8    9 am
    17    8   12 1
    18    9   10 2
    19    9   11 1
    20   12   13 1
    21   12   25 1
    22   12   26 1
    23   13   18 ar
    24   13   14 ar
    25   14   15 ar
    26   14   27 1
    27   15   16 ar
    28   15   28 1
    29   16   17 ar
    30   16   29 1
    31   17   18 ar
    32   17   30 1
    33   18   31 1
