@<TRIPOS>MOLECULE
ZINC18193448
   36    36     0     0     0
SMALL
USER_CHARGES

@<TRIPOS>ATOM
      1 C1          3.3508    0.9835    3.4215 C.3       1 <0>         0.0683
      2 N1          3.6991    1.5052    2.0976 N.pl3     1 <0>        -0.7460
      3 C2          4.5917    0.8332    1.3118 C.2       1 <0>         0.6905
      4 N2          5.0512   -0.3457    1.6933 N.2       1 <0>        -0.5817
      5 C3          4.5338   -0.9522    2.7889 C.1       1 <0>         0.3973
      6 N3          4.1000   -1.4608    3.7075 N.1       1 <0>        -0.4856
      7 N4          5.0095    1.3797    0.1316 N.pl3     1 <0>        -0.6994
      8 C4          4.4183    2.6323   -0.3455 C.3       1 <0>         0.1317
      9 C5          4.9667    2.9580   -1.7362 C.3       1 <0>        -0.1133
     10 S1          4.2346    4.5091   -2.3268 S.3       1 <0>        -0.2163
     11 C6          4.9779    4.7497   -3.9640 C.3       1 <0>        -0.0129
     12 C7          4.4476    6.0213   -4.5745 C.2       1 <0>         0.0972
     13 C8          3.3251    5.9924   -5.3334 C.2       1 <0>        -0.2302
     14 S2          3.1758    7.7192   -5.7736 S.3       1 <0>         0.0381
     15 C9          4.6252    8.2947   -4.8992 C.2       1 <0>         0.3599
     16 N5          5.0716    7.1621   -4.3663 N.2       1 <0>        -0.5993
     17 N6          5.1312    9.5529   -4.8013 N.2       1 <0>        -0.5890
     18 C10         6.2856    9.7531   -4.2020 C.2       1 <0>         0.6897
     19 N7          7.0495    8.6841   -3.8115 N.pl3     1 <0>        -0.8518
     20 N8          6.7240   11.0306   -3.9682 N.pl3     1 <0>        -0.8239
     21 H1          2.8211    0.0373    3.3113 H         1 <0>         0.0790
     22 H2          4.2606    0.8253    4.0005 H         1 <0>         0.0708
     23 H3          2.7116    1.6998    3.9377 H         1 <0>         0.0875
     24 H4          3.2958    2.3279    1.7790 H         1 <0>         0.4037
     25 H5          5.6976    0.9384   -0.3906 H         1 <0>         0.4276
     26 H6          3.3347    2.5259   -0.3979 H         1 <0>         0.0829
     27 H7          4.6712    3.4388    0.3429 H         1 <0>         0.0812
     28 H8          6.0502    3.0645   -1.6837 H         1 <0>         0.0941
     29 H9          4.7138    2.1516   -2.4245 H         1 <0>         0.0954
     30 H10         6.0611    4.8185   -3.8647 H         1 <0>         0.0950
     31 H11         4.7247    3.9056   -4.6055 H         1 <0>         0.0983
     32 H12         2.6948    5.1567   -5.5994 H         1 <0>         0.1939
     33 H13         6.7863    7.7838   -4.0585 H         1 <0>         0.4326
     34 H14         7.8534    8.8279   -3.2881 H         1 <0>         0.3939
     35 H15         6.1834   11.7871   -4.2446 H         1 <0>         0.4264
     36 H16         7.5749   11.1782   -3.5265 H         1 <0>         0.4141
@<TRIPOS>BOND
     1    1    2 1
     2    1   21 1
     3    1   22 1
     4    1   23 1
     5    2    3 1
     6    2   24 1
     7    3    4 2
     8    3    7 1
     9    4    5 1
    10    5    6 3
    11    7    8 1
    12    7   25 1
    13    8    9 1
    14    8   26 1
    15    8   27 1
    16    9   10 1
    17    9   28 1
    18    9   29 1
    19   10   11 1
    20   11   12 1
    21   11   30 1
    22   11   31 1
    23   12   16 1
    24   12   13 2
    25   13   14 1
    26   13   32 1
    27   14   15 1
    28   15   16 2
    29   15   17 1
    30   17   18 2
    31   18   19 1
    32   18   20 1
    33   19   33 1
    34   19   34 1
    35   20   35 1
    36   20   36 1
@<TRIPOS>MOLECULE
ZINC18193448
   37    37     0     0     0
SMALL
USER_CHARGES

@<TRIPOS>ATOM
      1 C1         -0.7629    1.2258    0.7185 C.3       1 <0>         0.0315
      2 N1         -0.6180   -0.2232    0.5577 N.2       1 <0>        -0.6213
      3 C2         -1.6734   -0.9694    0.3971 C.2       1 <0>         0.6227
      4 N2         -1.5336   -2.3180    0.1703 N.pl3     1 <0>        -0.7214
      5 C3         -0.1976   -2.9159    0.1092 C.3       1 <0>         0.1659
      6 C4         -0.3227   -4.4182   -0.1522 C.3       1 <0>        -0.1125
      7 S1          1.3317   -5.1586   -0.2279 S.3       1 <0>        -0.2035
      8 C5          1.0118   -6.9168   -0.5391 C.3       1 <0>        -0.0293
      9 C6          2.3211   -7.6580   -0.6256 C.2       1 <0>         0.1064
     10 C7          2.9738   -7.8064   -1.8041 C.2       1 <0>        -0.1573
     11 S2          4.4042   -8.7362   -1.2775 S.3       1 <0>         0.1380
     12 C8          4.0270   -8.8363    0.3596 C.2       1 <0>         0.2126
     13 N3          2.8861   -8.1869    0.4443 N.2       1 <0>        -0.4843
     14 N4          4.7483   -9.4513    1.3760 N.pl3     1 <0>        -0.5776
     15 C9          5.8683  -10.1826    1.0760 C.cat     1 <0>         0.7543
     16 N5          6.6291  -10.6676    2.0556 N.pl3     1 <0>        -0.7695
     17 N6          6.1955  -10.4081   -0.1952 N.pl3     1 <0>        -0.7730
     18 N7         -2.9315   -0.4063    0.4547 N.pl3     1 <0>        -0.6284
     19 C10        -4.0306   -1.1905    0.3405 C.1       1 <0>         0.3954
     20 N8         -4.9520   -1.8480    0.2447 N.1       1 <0>        -0.3978
     21 H1          0.2214    1.6781    0.8395 H         1 <0>         0.0858
     22 H2         -1.2484    1.6425   -0.1639 H         1 <0>         0.0484
     23 H3         -1.3696    1.4346    1.5997 H         1 <0>         0.0452
     24 H4         -2.3196   -2.8737    0.0508 H         1 <0>         0.4051
     25 H5          0.3711   -2.4529   -0.6973 H         1 <0>         0.0833
     26 H6          0.3169   -2.7534    1.0563 H         1 <0>         0.0821
     27 H7         -0.8913   -4.8812    0.6543 H         1 <0>         0.0927
     28 H8         -0.8371   -4.5806   -1.0993 H         1 <0>         0.0939
     29 H9          0.4150   -7.3273    0.2755 H         1 <0>         0.1092
     30 H10         0.4693   -7.0267   -1.4781 H         1 <0>         0.1130
     31 H11         2.7031   -7.4585   -2.7900 H         1 <0>         0.2238
     32 H12         7.4216  -11.1850    1.8433 H         1 <0>         0.4507
     33 H13         5.6560  -10.0331   -0.9088 H         1 <0>         0.4210
     34 H14         6.9734  -10.9474   -0.4074 H         1 <0>         0.4485
     35 H15        -3.0293    0.5510    0.5770 H         1 <0>         0.4411
     36 H16         4.4592   -9.3630    2.2977 H         1 <0>         0.4578
     37 H17         6.3907  -10.5033    2.9814 H         1 <0>         0.4475
@<TRIPOS>BOND
     1    1    2 1
     2    1   21 1
     3    1   22 1
     4    1   23 1
     5    2    3 2
     6    3    4 1
     7    3   18 1
     8    4    5 1
     9    4   24 1
    10    5    6 1
    11    5   25 1
    12    5   26 1
    13    6    7 1
    14    6   27 1
    15    6   28 1
    16    7    8 1
    17    8    9 1
    18    8   29 1
    19    8   30 1
    20    9   13 1
    21    9   10 2
    22   10   11 1
    23   10   31 1
    24   11   12 1
    25   12   13 2
    26   12   14 1
    27   14   15 1
    28   14   36 1
    29   15   16 2
    30   15   17 1
    31   16   32 1
    32   16   37 1
    33   17   33 1
    34   17   34 1
    35   18   19 1
    36   18   35 1
    37   19   20 3
@<TRIPOS>MOLECULE
ZINC18115268
   34    34     0     0     0
SMALL
USER_CHARGES

@<TRIPOS>ATOM
      1 C1         -0.3629    1.0560   -0.1349 C.3       1 <0>        -0.1036
      2 C2         -0.1550   -0.4364   -0.1547 C.2       1 <0>         0.0580
      3 C3          0.0009   -1.1992   -1.2535 C.2       1 <0>         0.0666
      4 N1          0.1608   -2.4881   -0.8215 N.pl3     1 <0>        -0.5024
      5 H1          0.2949   -3.2699   -1.3798 H         1 <0>         0.4668
      6 C4          0.0971   -2.4681    0.5273 C.cat     1 <0>         0.3137
      7 N2         -0.0870   -1.2371    0.9193 N.pl3     1 <0>        -0.4748
      8 C5         -0.0009   -0.7249   -2.6840 C.3       1 <0>        -0.0410
      9 S1          1.6905   -0.2985   -3.1818 S.3       1 <0>        -0.2282
     10 C6          1.5172    0.2459   -4.9034 C.3       1 <0>        -0.0782
     11 C7          2.8890    0.6405   -5.4541 C.3       1 <0>         0.0964
     12 N3          2.7491    1.0802   -6.8446 N.2       1 <0>        -0.6376
     13 C8          3.0396    2.3068   -7.1721 C.2       1 <0>         0.6398
     14 N4          3.5990    3.1521   -6.2434 N.pl3     1 <0>        -0.7604
     15 C9          3.8383    4.5572   -6.5822 C.3       1 <0>         0.0590
     16 N5          2.7859    2.7579   -8.4509 N.pl3     1 <0>        -0.5838
     17 C10         3.0882    4.0340   -8.7917 C.1       1 <0>         0.4132
     18 N6          3.3416    5.1039   -9.0773 N.1       1 <0>        -0.3936
     19 H2          0.6040    1.5570   -0.0889 H         1 <0>         0.1071
     20 H3         -0.8879    1.3618   -1.0399 H         1 <0>         0.1047
     21 H4         -0.9554    1.3288    0.7385 H         1 <0>         0.0943
     22 H5          0.1875   -3.3279    1.1746 H         1 <0>         0.2697
     23 H6         -0.3807   -1.5173   -3.3290 H         1 <0>         0.1154
     24 H7         -0.6389    0.1542   -2.7744 H         1 <0>         0.1270
     25 H8          1.1056   -0.5669   -5.5018 H         1 <0>         0.0990
     26 H9          0.8473    1.1047   -4.9473 H         1 <0>         0.0871
     27 H10         3.3006    1.4533   -4.8557 H         1 <0>         0.0432
     28 H11         3.5589   -0.2183   -5.4103 H         1 <0>         0.0879
     29 H12         3.8352    2.8182   -5.3639 H         1 <0>         0.4165
     30 H13         4.5166    4.6152   -7.4334 H         1 <0>         0.0688
     31 H14         2.8928    5.0354   -6.8378 H         1 <0>         0.0641
     32 H15         4.2836    5.0662   -5.7274 H         1 <0>         0.0859
     33 H16         2.3912    2.1614   -9.1062 H         1 <0>         0.4524
     34 H17        -0.1643   -0.9470    1.8417 H         1 <0>         0.4666
@<TRIPOS>BOND
     1    1    2 1
     2    1   19 1
     3    1   20 1
     4    1   21 1
     5    2    7 1
     6    2    3 2
     7    3    4 1
     8    3    8 1
     9    4    5 1
    10    4    6 1
    11    6    7 2
    12    6   22 1
    13    7   34 1
    14    8    9 1
    15    8   23 1
    16    8   24 1
    17    9   10 1
    18   10   11 1
    19   10   25 1
    20   10   26 1
    21   11   12 1
    22   11   27 1
    23   11   28 1
    24   12   13 2
    25   13   14 1
    26   13   16 1
    27   14   15 1
    28   14   29 1
    29   15   30 1
    30   15   31 1
    31   15   32 1
    32   16   17 1
    33   16   33 1
    34   17   18 3
@<TRIPOS>MOLECULE
ZINC18115268
   33    33     0     0     0
SMALL
USER_CHARGES

@<TRIPOS>ATOM
      1 C1         -0.2305    1.5570   -0.1028 C.3       1 <0>        -0.0822
      2 C2         -0.2654    0.0506   -0.1299 C.2       1 <0>         0.0050
      3 C3         -0.2570   -0.7330   -1.2251 C.2       1 <0>         0.0057
      4 N1         -0.2971   -2.0113   -0.8210 N.2       1 <0>        -0.4773
      5 C4         -0.3301   -2.0496    0.4830 C.2       1 <0>         0.1913
      6 N2         -0.3058   -0.7843    0.9540 N.pl3     1 <0>        -0.5667
      7 H1         -0.3170   -0.5169    1.8864 H         1 <0>         0.4225
      8 C5         -0.2106   -0.2570   -2.6543 C.3       1 <0>         0.0062
      9 S1          1.5173   -0.1064   -3.1856 S.3       1 <0>        -0.2230
     10 C6          1.4000    0.4680   -4.9023 C.3       1 <0>        -0.1129
     11 C7          2.8064    0.6390   -5.4800 C.3       1 <0>         0.1314
     12 N3          2.7117    1.1029   -6.8664 N.pl3     1 <0>        -0.6985
     13 C8          3.8480    1.3270   -7.5908 C.2       1 <0>         0.6908
     14 N4          3.7625    1.7454   -8.8414 N.2       1 <0>        -0.5826
     15 C9          4.8834    2.0997   -9.5153 C.1       1 <0>         0.3981
     16 N5          5.8231    2.3968  -10.0803 N.1       1 <0>        -0.4876
     17 N6          5.0725    1.1185   -7.0225 N.pl3     1 <0>        -0.7463
     18 C10         6.2909    1.4480   -7.7662 C.3       1 <0>         0.0701
     19 H2          0.8051    1.8960   -0.0762 H         1 <0>         0.0804
     20 H3         -0.7179    1.9478   -0.9960 H         1 <0>         0.0830
     21 H4         -0.7535    1.9166    0.7833 H         1 <0>         0.0677
     22 H5         -0.3667   -2.9451    1.0857 H         1 <0>         0.2123
     23 H6         -0.7260   -0.9743   -3.2930 H         1 <0>         0.0969
     24 H7         -0.6999    0.7140   -2.7299 H         1 <0>         0.0942
     25 H8          0.8508   -0.2646   -5.4938 H         1 <0>         0.0954
     26 H9          0.8769    1.4238   -4.9307 H         1 <0>         0.0946
     27 H10         3.3556    1.3715   -4.8885 H         1 <0>         0.0824
     28 H11         3.3296   -0.3168   -5.4517 H         1 <0>         0.0819
     29 H12         1.8421    1.2509   -7.2700 H         1 <0>         0.4280
     30 H13         5.1354    0.7523   -6.1265 H         1 <0>         0.4038
     31 H14         6.3245    0.8638   -8.6858 H         1 <0>         0.0743
     32 H15         6.2914    2.5103   -8.0104 H         1 <0>         0.0740
     33 H16         7.1634    1.2152   -7.1557 H         1 <0>         0.0873
@<TRIPOS>BOND
     1    1    2 1
     2    1   19 1
     3    1   20 1
     4    1   21 1
     5    2    6 1
     6    2    3 2
     7    3    4 1
     8    3    8 1
     9    4    5 2
    10    5    6 1
    11    5   22 1
    12    6    7 1
    13    8    9 1
    14    8   23 1
    15    8   24 1
    16    9   10 1
    17   10   11 1
    18   10   25 1
    19   10   26 1
    20   11   12 1
    21   11   27 1
    22   11   28 1
    23   12   13 1
    24   12   29 1
    25   13   14 2
    26   13   17 1
    27   14   15 1
    28   15   16 3
    29   17   18 1
    30   17   30 1
    31   18   31 1
    32   18   32 1
    33   18   33 1
@<TRIPOS>MOLECULE
ZINC18115268
   34    34     0     0     0
SMALL
USER_CHARGES

@<TRIPOS>ATOM
      1 C1         -0.0365    1.5010    0.0011 C.3       1 <0>        -0.1052
      2 C2         -0.0079   -0.0057   -0.0034 C.2       1 <0>         0.0925
      3 C3          0.0049   -0.8052   -1.0870 C.2       1 <0>         0.0314
      4 N1          0.0299   -2.0776   -0.6636 N.pl3     1 <0>        -0.4669
      5 C4          0.0331   -2.0970    0.6412 C.cat     1 <0>         0.3162
      6 N2          0.0160   -0.8246    1.0932 N.pl3     1 <0>        -0.5108
      7 H1          0.0181   -0.5434    2.0216 H         1 <0>         0.4678
      8 C5         -0.0069   -0.3499   -2.5235 C.3       1 <0>        -0.0419
      9 S1          1.6984   -0.1349   -3.1036 S.3       1 <0>        -0.2063
     10 C6          1.5114    0.4074   -4.8246 C.3       1 <0>        -0.1038
     11 C7          2.8934    0.6285   -5.4426 C.3       1 <0>         0.1227
     12 N3          2.7424    1.0664   -6.8325 N.pl3     1 <0>        -0.7533
     13 C8          3.8492    1.4270   -7.5637 C.2       1 <0>         0.6166
     14 N4          3.7071    1.9124   -8.7639 N.2       1 <0>        -0.6267
     15 C9          2.3670    2.1805   -9.2916 C.3       1 <0>         0.0422
     16 N5          5.1106    1.2747   -7.0262 N.pl3     1 <0>        -0.5926
     17 C10         6.2016    1.6301   -7.7469 C.1       1 <0>         0.4286
     18 N6          7.1163    1.9281   -8.3511 N.1       1 <0>        -0.3878
     19 H2          0.9841    1.8838   -0.0052 H         1 <0>         0.1105
     20 H3         -0.5635    1.8571   -0.8841 H         1 <0>         0.1067
     21 H4         -0.5506    1.8520    0.8958 H         1 <0>         0.0966
     22 H5          0.0507   -2.9838    1.2575 H         1 <0>         0.2703
     23 H6         -0.5079   -1.0981   -3.1377 H         1 <0>         0.1152
     24 H7         -0.5389    0.5984   -2.5998 H         1 <0>         0.1284
     25 H8          0.9784   -0.3568   -5.3904 H         1 <0>         0.0986
     26 H9          0.9474    1.3397   -4.8525 H         1 <0>         0.1009
     27 H10         3.4264    1.3927   -4.8768 H         1 <0>         0.0808
     28 H11         3.4574   -0.3038   -5.4147 H         1 <0>         0.0768
     29 H12         1.8614    1.1020   -7.2368 H         1 <0>         0.4179
     30 H13         1.8229    1.2418   -9.3956 H         1 <0>         0.0453
     31 H14         1.8312    2.8370   -8.6060 H         1 <0>         0.0450
     32 H15         2.4498    2.6623  -10.2658 H         1 <0>         0.0844
     33 H16         5.2165    0.9132   -6.1323 H         1 <0>         0.4336
     34 H17         0.0432   -2.8600   -1.2368 H         1 <0>         0.4663
@<TRIPOS>BOND
     1    1    2 1
     2    1   19 1
     3    1   20 1
     4    1   21 1
     5    2    6 1
     6    2    3 2
     7    3    4 1
     8    3    8 1
     9    4    5 2
    10    4   34 1
    11    5    6 1
    12    5   22 1
    13    6    7 1
    14    8    9 1
    15    8   23 1
    16    8   24 1
    17    9   10 1
    18   10   11 1
    19   10   25 1
    20   10   26 1
    21   11   12 1
    22   11   27 1
    23   11   28 1
    24   12   13 1
    25   12   29 1
    26   13   14 2
    27   13   16 1
    28   14   15 1
    29   15   30 1
    30   15   31 1
    31   15   32 1
    32   16   17 1
    33   16   33 1
    34   17   18 3
@<TRIPOS>MOLECULE
ZINC18115268
   34    34     0     0     0
SMALL
USER_CHARGES

@<TRIPOS>ATOM
      1 C1         -0.0921    1.4864   -0.0274 C.3       1 <0>        -0.1049
      2 C2         -0.0704   -0.0204   -0.0381 C.2       1 <0>         0.0914
      3 C3         -0.0533   -0.8153   -1.1250 C.2       1 <0>         0.0338
      4 N1         -0.0372   -2.0896   -0.7069 N.pl3     1 <0>        -0.4668
      5 C4         -0.0437   -2.1146    0.5978 C.cat     1 <0>         0.3149
      6 N2         -0.0584   -0.8441    1.0551 N.pl3     1 <0>        -0.5107
      7 H1         -0.0618   -0.5669    1.9847 H         1 <0>         0.4674
      8 C5         -0.0523   -0.3539   -2.5596 C.3       1 <0>        -0.0456
      9 S1          1.6581   -0.1442   -3.1263 S.3       1 <0>        -0.1974
     10 C6          1.4863    0.4062   -4.8462 C.3       1 <0>        -0.1114
     11 C7          2.8738    0.6237   -5.4531 C.3       1 <0>         0.1650
     12 N3          2.7350    1.0682   -6.8421 N.pl3     1 <0>        -0.7223
     13 C8          3.8550    1.3286   -7.5956 C.2       1 <0>         0.6225
     14 N4          5.0394    1.1800   -7.0746 N.2       1 <0>        -0.6204
     15 C9          6.2325    1.3488   -7.9078 C.3       1 <0>         0.0309
     16 N5          3.7243    1.7472   -8.9036 N.pl3     1 <0>        -0.6281
     17 C10         2.4952    2.0025   -9.4137 C.1       1 <0>         0.3949
     18 N6          1.4648    2.2166   -9.8413 N.1       1 <0>        -0.3964
     19 H2          0.9302    1.8645   -0.0245 H         1 <0>         0.1107
     20 H3         -0.6110    1.8486   -0.9149 H         1 <0>         0.1066
     21 H4         -0.6113    1.8359    0.8651 H         1 <0>         0.0961
     22 H5         -0.0347   -3.0041    1.2104 H         1 <0>         0.2700
     23 H6         -0.5523   -1.0971   -3.1807 H         1 <0>         0.1146
     24 H7         -0.5795    0.5971   -2.6358 H         1 <0>         0.1277
     25 H8          0.9540   -0.3530   -5.4192 H         1 <0>         0.0963
     26 H9          0.9268    1.3413   -4.8743 H         1 <0>         0.0980
     27 H10         3.4061    1.3830   -4.8801 H         1 <0>         0.0839
     28 H11         3.4333   -0.3113   -5.4250 H         1 <0>         0.0832
     29 H12         1.8529    1.1789   -7.2301 H         1 <0>         0.4056
     30 H13         6.2112    0.6263   -8.7236 H         1 <0>         0.0498
     31 H14         6.2498    2.3588   -8.3174 H         1 <0>         0.0461
     32 H15         7.1243    1.1870   -7.3023 H         1 <0>         0.0867
     33 H16         4.5123    1.8587   -9.4582 H         1 <0>         0.4418
     34 H17        -0.0232   -2.8696   -1.2834 H         1 <0>         0.4662
@<TRIPOS>BOND
     1    1    2 1
     2    1   19 1
     3    1   20 1
     4    1   21 1
     5    2    6 1
     6    2    3 2
     7    3    4 1
     8    3    8 1
     9    4    5 2
    10    4   34 1
    11    5    6 1
    12    5   22 1
    13    6    7 1
    14    8    9 1
    15    8   23 1
    16    8   24 1
    17    9   10 1
    18   10   11 1
    19   10   25 1
    20   10   26 1
    21   11   12 1
    22   11   27 1
    23   11   28 1
    24   12   13 1
    25   12   29 1
    26   13   14 2
    27   13   16 1
    28   14   15 1
    29   15   30 1
    30   15   31 1
    31   15   32 1
    32   16   17 1
    33   16   33 1
    34   17   18 3
@<TRIPOS>MOLECULE
ZINC18115268
   33    33     0     0     0
SMALL
USER_CHARGES

@<TRIPOS>ATOM
      1 C1          0.0242    1.1611   -0.0026 C.3       1 <0>        -0.0724
      2 C2         -0.7028    1.6591   -1.2251 C.2       1 <0>         0.0373
      3 C3         -0.1480    1.9207   -2.4239 C.2       1 <0>        -0.0248
      4 N1         -1.1582    2.3472   -3.2433 N.pl3     1 <0>        -0.5622
      5 C4         -2.2959    2.3313   -2.5160 C.2       1 <0>         0.2037
      6 N2         -2.0168    1.9140   -1.3115 N.2       1 <0>        -0.4917
      7 H1         -1.0727    2.6114   -4.1727 H         1 <0>         0.4214
      8 C5          1.3058    1.7728   -2.7925 C.3       1 <0>        -0.0093
      9 S1          1.6018    0.0989   -3.4257 S.3       1 <0>        -0.2167
     10 C6          3.3728    0.0850   -3.8182 C.3       1 <0>        -0.1167
     11 C7          3.7622   -1.2880   -4.3696 C.3       1 <0>         0.1660
     12 N3          5.1924   -1.2992   -4.6867 N.pl3     1 <0>        -0.7202
     13 C8          5.7739   -2.4344   -5.1994 C.2       1 <0>         0.6225
     14 N4          5.0533   -3.5000   -5.4034 N.2       1 <0>        -0.6209
     15 C9          5.6461   -4.6720   -6.0525 C.3       1 <0>         0.0329
     16 N5          7.1207   -2.4450   -5.4980 N.pl3     1 <0>        -0.6293
     17 C10         7.8915   -1.3742   -5.1893 C.1       1 <0>         0.3967
     18 N6          8.5377   -0.4765   -4.9305 N.1       1 <0>        -0.4007
     19 H2          0.0304    0.0711   -0.0024 H         1 <0>         0.0751
     20 H3          1.0497    1.5302   -0.0141 H         1 <0>         0.0670
     21 H4         -0.4817    1.5217    0.8931 H         1 <0>         0.0726
     22 H5         -3.2753    2.6133   -2.8733 H         1 <0>         0.2127
     23 H6          1.5618    2.5024   -3.5608 H         1 <0>         0.0889
     24 H7          1.9233    1.9422   -1.9104 H         1 <0>         0.1061
     25 H8          3.5854    0.8501   -4.5649 H         1 <0>         0.0875
     26 H9          3.9469    0.2898   -2.9146 H         1 <0>         0.0900
     27 H10         3.5495   -2.0531   -3.6229 H         1 <0>         0.0831
     28 H11         3.1881   -1.4928   -5.2733 H         1 <0>         0.0818
     29 H12         5.7291   -0.5056   -4.5348 H         1 <0>         0.4043
     30 H13         4.8965   -5.4589   -6.1364 H         1 <0>         0.0851
     31 H14         5.9975   -4.3975   -7.0471 H         1 <0>         0.0469
     32 H15         6.4852   -5.0316   -5.4570 H         1 <0>         0.0433
     33 H16         7.5159   -3.2190   -5.9289 H         1 <0>         0.4399
@<TRIPOS>BOND
     1    1   19 1
     2    1   20 1
     3    1   21 1
     4    1    2 1
     5    2    6 1
     6    2    3 2
     7    3    8 1
     8    3    4 1
     9    4    5 1
    10    4    7 1
    11    5   22 1
    12    5    6 2
    13    8    9 1
    14    8   23 1
    15    8   24 1
    16    9   10 1
    17   10   11 1
    18   10   25 1
    19   10   26 1
    20   11   12 1
    21   11   27 1
    22   11   28 1
    23   12   13 1
    24   12   29 1
    25   13   14 2
    26   13   16 1
    27   14   15 1
    28   15   30 1
    29   15   31 1
    30   15   32 1
    31   16   17 1
    32   16   33 1
    33   17   18 3
@<TRIPOS>MOLECULE
ZINC18115268
   33    33     0     0     0
SMALL
USER_CHARGES

@<TRIPOS>ATOM
      1 C1         -0.2313    1.5566   -0.1028 C.3       1 <0>        -0.0729
      2 C2         -0.2662    0.0503   -0.1299 C.2       1 <0>         0.0391
      3 C3         -0.2574   -0.7218   -1.2333 C.2       1 <0>        -0.0280
      4 N1         -0.2977   -2.0220   -0.8072 N.pl3     1 <0>        -0.5622
      5 H1         -0.3024   -2.8121   -1.3698 H         1 <0>         0.4216
      6 C4         -0.3298   -1.9991    0.5427 C.2       1 <0>         0.2056
      7 N2         -0.3057   -0.7566    0.9408 N.2       1 <0>        -0.4917
      8 C5         -0.2122   -0.2458   -2.6624 C.3       1 <0>        -0.0052
      9 S1          1.5152   -0.0938   -3.1949 S.3       1 <0>        -0.2237
     10 C6          1.3964    0.4805   -4.9115 C.3       1 <0>        -0.1124
     11 C7          2.8023    0.6527   -5.4901 C.3       1 <0>         0.1312
     12 N3          2.7063    1.1165   -6.8764 N.pl3     1 <0>        -0.6991
     13 C8          3.8420    1.3415   -7.6015 C.2       1 <0>         0.6905
     14 N4          3.7554    1.7599   -8.8520 N.2       1 <0>        -0.5816
     15 C9          4.8756    2.1151   -9.5267 C.1       1 <0>         0.3975
     16 N5          5.8147    2.4129  -10.0922 N.1       1 <0>        -0.4856
     17 N6          5.0671    1.1341   -7.0339 N.pl3     1 <0>        -0.7461
     18 C10         6.2847    1.4646   -7.7784 C.3       1 <0>         0.0697
     19 H2          0.8043    1.8956   -0.0762 H         1 <0>         0.0748
     20 H3         -0.7187    1.9475   -0.9960 H         1 <0>         0.0676
     21 H4         -0.7542    1.9163    0.7833 H         1 <0>         0.0733
     22 H5         -0.3654   -2.8657    1.1862 H         1 <0>         0.2131
     23 H6         -0.7274   -0.9635   -3.3009 H         1 <0>         0.0909
     24 H7         -0.7024    0.7249   -2.7377 H         1 <0>         0.1080
     25 H8          0.8474   -0.2524   -5.5026 H         1 <0>         0.0947
     26 H9          0.8724    1.4359   -4.9395 H         1 <0>         0.0976
     27 H10         3.3512    1.3857   -4.8989 H         1 <0>         0.0839
     28 H11         3.3262   -0.3027   -5.4620 H         1 <0>         0.0811
     29 H12         1.8364    1.2638   -7.2794 H         1 <0>         0.4280
     30 H13         5.1307    0.7679   -6.1379 H         1 <0>         0.4035
     31 H14         6.2842    2.5269   -8.0226 H         1 <0>         0.0744
     32 H15         7.1578    1.2325   -7.1685 H         1 <0>         0.0877
     33 H16         6.3182    0.8804   -8.6980 H         1 <0>         0.0744
@<TRIPOS>BOND
     1    1    2 1
     2    1   19 1
     3    1   20 1
     4    1   21 1
     5    2    7 1
     6    2    3 2
     7    3    4 1
     8    3    8 1
     9    4    5 1
    10    4    6 1
    11    6    7 2
    12    6   22 1
    13    8    9 1
    14    8   23 1
    15    8   24 1
    16    9   10 1
    17   10   11 1
    18   10   25 1
    19   10   26 1
    20   11   12 1
    21   11   27 1
    22   11   28 1
    23   12   13 1
    24   12   29 1
    25   13   14 2
    26   13   17 1
    27   14   15 1
    28   15   16 3
    29   17   18 1
    30   17   30 1
    31   18   31 1
    32   18   32 1
    33   18   33 1
@<TRIPOS>MOLECULE
ZINC18115268
   33    33     0     0     0
SMALL
USER_CHARGES

@<TRIPOS>ATOM
      1 C1         -0.0184    1.5028    0.0103 C.3       1 <0>        -0.0728
      2 C2          0.0021   -0.0041    0.0020 C.2       1 <0>         0.0390
      3 C3          0.0078   -0.7894   -1.0919 C.2       1 <0>        -0.0274
      4 N1          0.0283   -2.0846   -0.6496 N.pl3     1 <0>        -0.5622
      5 H1          0.0368   -2.8816   -1.2024 H         1 <0>         0.4215
      6 C4          0.0343   -2.0456    0.7003 C.2       1 <0>         0.2055
      7 N2          0.0236   -0.7980    1.0829 N.2       1 <0>        -0.4914
      8 C5         -0.0061   -0.3305   -2.5273 C.3       1 <0>        -0.0061
      9 S1          1.6984   -0.1218   -3.1119 S.3       1 <0>        -0.2224
     10 C6          1.5088    0.4256   -4.8309 C.3       1 <0>        -0.1131
     11 C7          2.8900    0.6421   -5.4525 C.3       1 <0>         0.1232
     12 N3          2.7369    1.0841   -6.8408 N.pl3     1 <0>        -0.7460
     13 C8          3.8420    1.3415   -7.6015 C.2       1 <0>         0.6876
     14 N4          3.7038    1.7403   -8.8538 N.2       1 <0>        -0.5720
     15 C9          2.4661    1.8938   -9.3833 C.1       1 <0>         0.3811
     16 N5          1.4284    2.0226   -9.8273 N.1       1 <0>        -0.4749
     17 N6          5.0898    1.1867   -7.0676 N.pl3     1 <0>        -0.7017
     18 C10         6.2749    1.4628   -7.8834 C.3       1 <0>         0.1002
     19 H2          1.0042    1.8801    0.0026 H         1 <0>         0.0748
     20 H3         -0.5455    1.8639   -0.8728 H         1 <0>         0.0672
     21 H4         -0.5286    1.8543    0.9071 H         1 <0>         0.0735
     22 H5          0.0496   -2.9046    1.3548 H         1 <0>         0.2133
     23 H6         -0.5124   -1.0749   -3.1419 H         1 <0>         0.0904
     24 H7         -0.5340    0.6203   -2.5997 H         1 <0>         0.1075
     25 H8          0.9707   -0.3347   -5.3971 H         1 <0>         0.0915
     26 H9          0.9490    1.3606   -4.8549 H         1 <0>         0.0942
     27 H10         3.4281    1.4023   -4.8864 H         1 <0>         0.0838
     28 H11         3.4498   -0.2929   -5.4286 H         1 <0>         0.0820
     29 H12         1.8508    1.1940   -7.2199 H         1 <0>         0.4170
     30 H13         5.1912    0.8940   -6.1484 H         1 <0>         0.4150
     31 H14         6.2560    2.5020   -8.2117 H         1 <0>         0.0706
     32 H15         7.1728    1.2850   -7.2916 H         1 <0>         0.0810
     33 H16         6.2777    0.8068   -8.7539 H         1 <0>         0.0703
@<TRIPOS>BOND
     1    1    2 1
     2    1   19 1
     3    1   20 1
     4    1   21 1
     5    2    7 1
     6    2    3 2
     7    3    4 1
     8    3    8 1
     9    4    5 1
    10    4    6 1
    11    6    7 2
    12    6   22 1
    13    8    9 1
    14    8   23 1
    15    8   24 1
    16    9   10 1
    17   10   11 1
    18   10   25 1
    19   10   26 1
    20   11   12 1
    21   11   27 1
    22   11   28 1
    23   12   13 1
    24   12   29 1
    25   13   14 2
    26   13   17 1
    27   14   15 1
    28   15   16 3
    29   17   18 1
    30   17   30 1
    31   18   31 1
    32   18   32 1
    33   18   33 1
@<TRIPOS>MOLECULE
ZINC18115268
   34    34     0     0     0
SMALL
USER_CHARGES

@<TRIPOS>ATOM
      1 C1         -0.3642    1.0562   -0.1351 C.3       1 <0>        -0.1037
      2 C2         -0.1563   -0.4363   -0.1547 C.2       1 <0>         0.0883
      3 C3          0.0009   -1.2106   -1.2452 C.2       1 <0>         0.0366
      4 N1          0.1580   -2.4780   -0.8351 N.pl3     1 <0>        -0.4666
      5 C4          0.1041   -2.5184    0.4682 C.cat     1 <0>         0.3136
      6 N2         -0.0849   -1.2645    0.9328 N.pl3     1 <0>        -0.5108
      7 H1         -0.1586   -1.0005    1.8632 H         1 <0>         0.4669
      8 C5          0.0003   -0.7364   -2.6757 C.3       1 <0>        -0.0404
      9 S1          1.6924   -0.3113   -3.1724 S.3       1 <0>        -0.2307
     10 C6          1.5206    0.2332   -4.8942 C.3       1 <0>        -0.0778
     11 C7          2.8931    0.6267   -5.4440 C.3       1 <0>         0.0964
     12 N3          2.7544    1.0665   -6.8345 N.2       1 <0>        -0.6377
     13 C8          3.0461    2.2929   -7.1619 C.2       1 <0>         0.6399
     14 N4          3.6056    3.1377   -6.2329 N.pl3     1 <0>        -0.7603
     15 C9          3.8463    4.5426   -6.5715 C.3       1 <0>         0.0589
     16 N5          2.7936    2.7442   -8.4409 N.pl3     1 <0>        -0.5838
     17 C10         3.0971    4.0201   -8.7814 C.1       1 <0>         0.4132
     18 N6          3.3516    5.0898   -9.0669 N.1       1 <0>        -0.3936
     19 H2          0.6027    1.5572   -0.0891 H         1 <0>         0.1091
     20 H3         -0.8891    1.3618   -1.0401 H         1 <0>         0.1062
     21 H4         -0.9567    1.3290    0.7382 H         1 <0>         0.0956
     22 H5          0.1991   -3.4068    1.0748 H         1 <0>         0.2697
     23 H6         -0.3797   -1.5284   -3.3209 H         1 <0>         0.1143
     24 H7         -0.6369    0.1433   -2.7665 H         1 <0>         0.1258
     25 H8          1.1087   -0.5792   -5.4928 H         1 <0>         0.0988
     26 H9          0.8515    1.0926   -4.9385 H         1 <0>         0.0869
     27 H10         3.3050    1.4392   -4.8454 H         1 <0>         0.0431
     28 H11         3.5622   -0.2326   -5.3998 H         1 <0>         0.0878
     29 H12         3.8410    2.8037   -5.3532 H         1 <0>         0.4166
     30 H13         2.9013    5.0217   -6.8277 H         1 <0>         0.0642
     31 H14         4.2915    5.0513   -5.7164 H         1 <0>         0.0859
     32 H15         4.5252    4.6001   -7.4223 H         1 <0>         0.0689
     33 H16         2.3988    2.1481   -9.0964 H         1 <0>         0.4524
     34 H17         0.2904   -3.2437   -1.4156 H         1 <0>         0.4663
@<TRIPOS>BOND
     1    1    2 1
     2    1   19 1
     3    1   20 1
     4    1   21 1
     5    2    6 1
     6    2    3 2
     7    3    4 1
     8    3    8 1
     9    4    5 2
    10    4   34 1
    11    5    6 1
    12    5   22 1
    13    6    7 1
    14    8    9 1
    15    8   23 1
    16    8   24 1
    17    9   10 1
    18   10   11 1
    19   10   25 1
    20   10   26 1
    21   11   12 1
    22   11   27 1
    23   11   28 1
    24   12   13 2
    25   13   14 1
    26   13   16 1
    27   14   15 1
    28   14   29 1
    29   15   30 1
    30   15   31 1
    31   15   32 1
    32   16   17 1
    33   16   33 1
    34   17   18 3
@<TRIPOS>MOLECULE
ZINC18115268
   33    33     0     0     0
SMALL
USER_CHARGES

@<TRIPOS>ATOM
      1 C1         -0.0464    1.5641   -0.3229 C.3       1 <0>        -0.0712
      2 C2         -0.7905    1.8824   -1.5941 C.2       1 <0>         0.0343
      3 C3         -0.2464    2.0065   -2.8197 C.2       1 <0>        -0.0221
      4 N1         -1.2706    2.2965   -3.6802 N.pl3     1 <0>        -0.5619
      5 C4         -2.4058    2.3396   -2.9500 C.2       1 <0>         0.2019
      6 N2         -2.1117    2.0860   -1.7041 N.2       1 <0>        -0.4919
      7 H1         -1.1951    2.4436   -4.6360 H         1 <0>         0.4214
      8 C5          1.2102    1.8556   -3.1754 C.3       1 <0>        -0.0044
      9 S1          1.5543    0.1244   -3.5940 S.3       1 <0>        -0.2478
     10 C6          3.3240    0.1125   -3.9922 C.3       1 <0>        -0.0835
     11 C7          3.7526   -1.3072   -4.3683 C.3       1 <0>         0.0981
     12 N3          5.1818   -1.3168   -4.6899 N.2       1 <0>        -0.6325
     13 C8          6.0089   -2.0092   -3.9600 C.2       1 <0>         0.6314
     14 N4          5.5282   -2.8320   -2.9692 N.pl3     1 <0>        -0.7614
     15 C9          6.4605   -3.5376   -2.0865 C.3       1 <0>         0.0613
     16 N5          7.3676   -1.9168   -4.1810 N.pl3     1 <0>        -0.5853
     17 C10         8.2281   -2.6370   -3.4216 C.1       1 <0>         0.4178
     18 N6          8.9495   -3.2409   -2.7849 N.1       1 <0>        -0.4033
     19 H2         -0.0080    0.4835   -0.1852 H         1 <0>         0.0736
     20 H3          0.9677    1.9585   -0.3871 H         1 <0>         0.0666
     21 H4         -0.5607    2.0201    0.5231 H         1 <0>         0.0722
     22 H5         -3.3939    2.5456   -3.3342 H         1 <0>         0.2124
     23 H6          1.4429    2.4895   -4.0310 H         1 <0>         0.0887
     24 H7          1.8245    2.1528   -2.3254 H         1 <0>         0.1043
     25 H8          3.5122    0.7830   -4.8308 H         1 <0>         0.0904
     26 H9          3.8938    0.4464   -3.1251 H         1 <0>         0.0794
     27 H10         3.5643   -1.9777   -3.5298 H         1 <0>         0.0426
     28 H11         3.1828   -1.6411   -5.2355 H         1 <0>         0.0872
     29 H12         4.5717   -2.9454   -2.8546 H         1 <0>         0.4184
     30 H13         5.8991   -4.1371   -1.3698 H         1 <0>         0.0845
     31 H14         7.1019   -4.1882   -2.6809 H         1 <0>         0.0661
     32 H15         7.0740   -2.8124   -1.5519 H         1 <0>         0.0619
     33 H16         7.7068   -1.3362   -4.8801 H         1 <0>         0.4510
@<TRIPOS>BOND
     1    1   19 1
     2    1   20 1
     3    1   21 1
     4    1    2 1
     5    2    6 1
     6    2    3 2
     7    3    8 1
     8    3    4 1
     9    4    5 1
    10    4    7 1
    11    5   22 1
    12    5    6 2
    13    8    9 1
    14    8   23 1
    15    8   24 1
    16    9   10 1
    17   10   11 1
    18   10   25 1
    19   10   26 1
    20   11   12 1
    21   11   27 1
    22   11   28 1
    23   12   13 2
    24   13   14 1
    25   13   16 1
    26   14   15 1
    27   14   29 1
    28   15   30 1
    29   15   31 1
    30   15   32 1
    31   16   17 1
    32   16   33 1
    33   17   18 3
@<TRIPOS>MOLECULE
ZINC18115268
   33    33     0     0     0
SMALL
USER_CHARGES

@<TRIPOS>ATOM
      1 C1         -0.3642    1.0562   -0.1351 C.3       1 <0>        -0.0806
      2 C2         -0.1563   -0.4363   -0.1547 C.2       1 <0>         0.0012
      3 C3          0.0009   -1.2106   -1.2452 C.2       1 <0>         0.0105
      4 N1          0.1580   -2.4780   -0.8351 N.2       1 <0>        -0.4771
      5 C4          0.1041   -2.5184    0.4682 C.2       1 <0>         0.1895
      6 N2         -0.0849   -1.2645    0.9328 N.pl3     1 <0>        -0.5675
      7 C5          0.0003   -0.7364   -2.6757 C.3       1 <0>         0.0071
      8 S1          1.6924   -0.3113   -3.1724 S.3       1 <0>        -0.2471
      9 C6          1.5206    0.2332   -4.8942 C.3       1 <0>        -0.0839
     10 C7          2.8931    0.6267   -5.4440 C.3       1 <0>         0.0985
     11 N3          2.7544    1.0665   -6.8345 N.2       1 <0>        -0.6299
     12 C8          3.0461    2.2929   -7.1619 C.2       1 <0>         0.6291
     13 N4          3.6056    3.1377   -6.2329 N.pl3     1 <0>        -0.7621
     14 C9          3.8463    4.5426   -6.5715 C.3       1 <0>         0.0619
     15 N5          2.7936    2.7442   -8.4409 N.pl3     1 <0>        -0.5855
     16 C10         3.0971    4.0201   -8.7814 C.1       1 <0>         0.4186
     17 N6          3.3516    5.0898   -9.0669 N.1       1 <0>        -0.4054
     18 H1          0.6027    1.5572   -0.0891 H         1 <0>         0.0793
     19 H2         -0.8891    1.3618   -1.0401 H         1 <0>         0.0821
     20 H3         -0.9567    1.3290    0.7382 H         1 <0>         0.0666
     21 H4          0.1991   -3.4068    1.0748 H         1 <0>         0.2116
     22 H5         -0.3797   -1.5284   -3.3209 H         1 <0>         0.0946
     23 H6         -0.6369    0.1433   -2.7665 H         1 <0>         0.0903
     24 H7          1.1087   -0.5792   -5.4928 H         1 <0>         0.0910
     25 H8          0.8515    1.0926   -4.9385 H         1 <0>         0.0765
     26 H9          3.3050    1.4392   -4.8454 H         1 <0>         0.0411
     27 H10         3.5622   -0.2326   -5.3998 H         1 <0>         0.0883
     28 H11         3.8410    2.8037   -5.3532 H         1 <0>         0.4183
     29 H12         2.9013    5.0217   -6.8277 H         1 <0>         0.0614
     30 H13         4.2915    5.0513   -5.7164 H         1 <0>         0.0835
     31 H14         4.5252    4.6001   -7.4223 H         1 <0>         0.0658
     32 H15         2.3988    2.1481   -9.0964 H         1 <0>         0.4510
     33 H16        -0.1586   -1.0005    1.8632 H         1 <0>         0.4215
@<TRIPOS>BOND
     1    1    2 1
     2    1   18 1
     3    1   19 1
     4    1   20 1
     5    2    6 1
     6    2    3 2
     7    3    4 1
     8    3    7 1
     9    4    5 2
    10    5    6 1
    11    5   21 1
    12    6   33 1
    13    7    8 1
    14    7   22 1
    15    7   23 1
    16    8    9 1
    17    9   10 1
    18    9   24 1
    19    9   25 1
    20   10   11 1
    21   10   26 1
    22   10   27 1
    23   11   12 2
    24   12   13 1
    25   12   15 1
    26   13   14 1
    27   13   28 1
    28   14   29 1
    29   14   30 1
    30   14   31 1
    31   15   16 1
    32   15   32 1
    33   16   17 3
@<TRIPOS>MOLECULE
ZINC18115268
   33    33     0     0     0
SMALL
USER_CHARGES

@<TRIPOS>ATOM
      1 C1         -0.4661    1.1866   -0.1622 C.3       1 <0>        -0.0808
      2 C2         -0.2855   -0.3096   -0.1656 C.2       1 <0>         0.0013
      3 C3         -0.1306   -1.0970   -1.2470 C.2       1 <0>         0.0103
      4 N1         -0.0014   -2.3631   -0.8234 N.2       1 <0>        -0.4771
      5 C4         -0.0704   -2.3901    0.4795 C.2       1 <0>         0.1895
      6 N2         -0.2415   -1.1286    0.9303 N.pl3     1 <0>        -0.5674
      7 C5         -0.1066   -0.6365   -2.6817 C.3       1 <0>         0.0072
      8 S1          1.5984   -0.2473   -3.1634 S.3       1 <0>        -0.2472
      9 C6          1.4558    0.2839   -4.8920 C.3       1 <0>        -0.0848
     10 C7          2.8413    0.6469   -5.4300 C.3       1 <0>         0.0930
     11 N3          2.7261    1.0759   -6.8260 N.2       1 <0>        -0.6229
     12 C8          3.0461    2.2929   -7.1619 C.2       1 <0>         0.6322
     13 N4          2.8244    2.7326   -8.4453 N.pl3     1 <0>        -0.7165
     14 C9          3.1844    4.1016   -8.8231 C.3       1 <0>         0.0688
     15 N5          3.6076    3.1407   -6.2296 N.pl3     1 <0>        -0.6338
     16 C10         3.8302    4.4401   -6.5428 C.1       1 <0>         0.4107
     17 N6          4.0169    5.5295   -6.8053 N.1       1 <0>        -0.4099
     18 H1          0.5094    1.6702   -0.1101 H         1 <0>         0.0795
     19 H2         -0.9752    1.4931   -1.0759 H         1 <0>         0.0821
     20 H3         -1.0630    1.4785    0.7018 H         1 <0>         0.0667
     21 H4          0.0015   -3.2743    1.0955 H         1 <0>         0.2116
     22 H5         -0.4939   -1.4276   -3.3238 H         1 <0>         0.0947
     23 H6         -0.7264    0.2538   -2.7879 H         1 <0>         0.0905
     24 H7          1.0356   -0.5265   -5.4876 H         1 <0>         0.0915
     25 H8          0.8031    1.1549   -4.9518 H         1 <0>         0.0771
     26 H9          3.2615    1.4573   -4.8344 H         1 <0>         0.0377
     27 H10         3.4939   -0.2241   -5.3702 H         1 <0>         0.0900
     28 H11         2.4296    2.1365   -9.1008 H         1 <0>         0.4266
     29 H12         4.2540    4.2500   -8.6750 H         1 <0>         0.0616
     30 H13         2.9365    4.2662   -9.8717 H         1 <0>         0.0895
     31 H14         2.6305    4.8070   -8.2037 H         1 <0>         0.0655
     32 H15         3.8430    2.8067   -5.3499 H         1 <0>         0.4412
     33 H16        -0.3205   -0.8544    1.8573 H         1 <0>         0.4215
@<TRIPOS>BOND
     1    1    2 1
     2    1   18 1
     3    1   19 1
     4    1   20 1
     5    2    6 1
     6    2    3 2
     7    3    4 1
     8    3    7 1
     9    4    5 2
    10    5    6 1
    11    5   21 1
    12    6   33 1
    13    7    8 1
    14    7   22 1
    15    7   23 1
    16    8    9 1
    17    9   10 1
    18    9   24 1
    19    9   25 1
    20   10   11 1
    21   10   26 1
    22   10   27 1
    23   11   12 2
    24   12   13 1
    25   12   15 1
    26   13   14 1
    27   13   28 1
    28   14   29 1
    29   14   30 1
    30   14   31 1
    31   15   16 1
    32   15   32 1
    33   16   17 3
@<TRIPOS>MOLECULE
ZINC18115268
   34    34     0     0     0
SMALL
USER_CHARGES

@<TRIPOS>ATOM
      1 C1         -0.2305    1.5570   -0.1028 C.3       1 <0>        -0.1054
      2 C2         -0.2654    0.0506   -0.1299 C.2       1 <0>         0.0930
      3 C3         -0.2570   -0.7330   -1.2251 C.2       1 <0>         0.0307
      4 N1         -0.2971   -2.0113   -0.8210 N.pl3     1 <0>        -0.4669
      5 C4         -0.3301   -2.0496    0.4830 C.cat     1 <0>         0.3165
      6 N2         -0.3058   -0.7843    0.9540 N.pl3     1 <0>        -0.5108
      7 H1         -0.3170   -0.5169    1.8864 H         1 <0>         0.4678
      8 C5         -0.2106   -0.2570   -2.6543 C.3       1 <0>        -0.0413
      9 S1          1.5173   -0.1064   -3.1856 S.3       1 <0>        -0.2044
     10 C6          1.4000    0.4680   -4.9023 C.3       1 <0>        -0.1066
     11 C7          2.8064    0.6390   -5.4800 C.3       1 <0>         0.1307
     12 N3          2.7117    1.1029   -6.8664 N.pl3     1 <0>        -0.7022
     13 C8          3.8480    1.3270   -7.5908 C.2       1 <0>         0.6879
     14 N4          3.7625    1.7454   -8.8414 N.2       1 <0>        -0.5740
     15 C9          4.8834    2.0997   -9.5153 C.1       1 <0>         0.3931
     16 N5          5.8231    2.3968  -10.0803 N.1       1 <0>        -0.4737
     17 N6          5.0725    1.1185   -7.0225 N.pl3     1 <0>        -0.7457
     18 C10         6.2909    1.4480   -7.7662 C.3       1 <0>         0.0680
     19 H2          0.8051    1.8960   -0.0762 H         1 <0>         0.1103
     20 H3         -0.7179    1.9478   -0.9960 H         1 <0>         0.1072
     21 H4         -0.7535    1.9166    0.7833 H         1 <0>         0.0968
     22 H5         -0.3667   -2.9451    1.0857 H         1 <0>         0.2703
     23 H6         -0.7260   -0.9743   -3.2930 H         1 <0>         0.1165
     24 H7         -0.6999    0.7140   -2.7299 H         1 <0>         0.1296
     25 H8          0.8508   -0.2646   -5.4938 H         1 <0>         0.1033
     26 H9          0.8769    1.4238   -4.9307 H         1 <0>         0.1054
     27 H10         3.3556    1.3715   -4.8885 H         1 <0>         0.0843
     28 H11         3.3296   -0.3168   -5.4517 H         1 <0>         0.0821
     29 H12         1.8421    1.2509   -7.2700 H         1 <0>         0.4289
     30 H13         5.1354    0.7523   -6.1265 H         1 <0>         0.4011
     31 H14         6.3245    0.8638   -8.6858 H         1 <0>         0.0760
     32 H15         6.2914    2.5103   -8.0104 H         1 <0>         0.0759
     33 H16         7.1634    1.2152   -7.1557 H         1 <0>         0.0891
     34 H17        -0.3013   -2.7852   -1.4058 H         1 <0>         0.4664
@<TRIPOS>BOND
     1    1    2 1
     2    1   19 1
     3    1   20 1
     4    1   21 1
     5    2    6 1
     6    2    3 2
     7    3    4 1
     8    3    8 1
     9    4    5 2
    10    4   34 1
    11    5    6 1
    12    5   22 1
    13    6    7 1
    14    8    9 1
    15    8   23 1
    16    8   24 1
    17    9   10 1
    18   10   11 1
    19   10   25 1
    20   10   26 1
    21   11   12 1
    22   11   27 1
    23   11   28 1
    24   12   13 1
    25   12   29 1
    26   13   14 2
    27   13   17 1
    28   14   15 1
    29   15   16 3
    30   17   18 1
    31   17   30 1
    32   18   31 1
    33   18   32 1
    34   18   33 1
@<TRIPOS>MOLECULE
ZINC18115268
   33    33     0     0     0
SMALL
USER_CHARGES

@<TRIPOS>ATOM
      1 C1          0.0576    1.6155   -0.2016 C.3       1 <0>        -0.0714
      2 C2         -0.6976    1.9606   -1.4592 C.2       1 <0>         0.0344
      3 C3         -0.1672    2.0910   -2.6902 C.2       1 <0>        -0.0223
      4 N1         -1.1976    2.4072   -3.5339 N.pl3     1 <0>        -0.5619
      5 C4         -2.3226    2.4591   -2.7886 C.2       1 <0>         0.2019
      6 N2         -2.0167    2.1861   -1.5497 N.2       1 <0>        -0.4918
      7 H1         -1.1320    2.5647   -4.4888 H         1 <0>         0.4214
      8 C5          1.2822    1.9218   -3.0664 C.3       1 <0>        -0.0043
      9 S1          1.5937    0.1906   -3.5099 S.3       1 <0>        -0.2479
     10 C6          3.3578    0.1560   -3.9310 C.3       1 <0>        -0.0843
     11 C7          3.7592   -1.2656   -4.3294 C.3       1 <0>         0.0926
     12 N3          5.1839   -1.2935   -4.6696 N.2       1 <0>        -0.6254
     13 C8          6.0089   -2.0092   -3.9600 C.2       1 <0>         0.6345
     14 N4          7.3605   -1.9417   -4.2018 N.pl3     1 <0>        -0.7158
     15 C9          8.2885   -2.7466   -3.4036 C.3       1 <0>         0.0682
     16 N5          5.5265   -2.8349   -2.9657 N.pl3     1 <0>        -0.6336
     17 C10         6.3887   -3.4875   -2.1492 C.1       1 <0>         0.4099
     18 N6          7.1116   -4.0346   -1.4647 N.1       1 <0>        -0.4075
     19 H2          0.0808    0.5329   -0.0772 H         1 <0>         0.0737
     20 H3          1.0769    1.9948   -0.2742 H         1 <0>         0.0666
     21 H4         -0.4387    2.0692    0.6563 H         1 <0>         0.0722
     22 H5         -3.3122    2.6852   -3.1575 H         1 <0>         0.2124
     23 H6          1.5139    2.5622   -3.9174 H         1 <0>         0.0888
     24 H7          1.9118    2.1992   -2.2209 H         1 <0>         0.1045
     25 H8          3.5458    0.8336   -4.7639 H         1 <0>         0.0909
     26 H9          3.9437    0.4705   -3.0674 H         1 <0>         0.0800
     27 H10         3.5712   -1.9431   -3.4965 H         1 <0>         0.0392
     28 H11         3.1732   -1.5801   -5.1930 H         1 <0>         0.0889
     29 H12         7.6997   -1.3611   -4.9008 H         1 <0>         0.4267
     30 H13         9.3095   -2.5620   -3.7376 H         1 <0>         0.0900
     31 H14         8.1951   -2.4734   -2.3525 H         1 <0>         0.0661
     32 H15         8.0514   -3.8034   -3.5268 H         1 <0>         0.0621
     33 H16         4.5700   -2.9484   -2.8511 H         1 <0>         0.4413
@<TRIPOS>BOND
     1    1   19 1
     2    1   20 1
     3    1   21 1
     4    1    2 1
     5    2    6 1
     6    2    3 2
     7    3    8 1
     8    3    4 1
     9    4    5 1
    10    4    7 1
    11    5   22 1
    12    5    6 2
    13    8    9 1
    14    8   23 1
    15    8   24 1
    16    9   10 1
    17   10   11 1
    18   10   25 1
    19   10   26 1
    20   11   12 1
    21   11   27 1
    22   11   28 1
    23   12   13 2
    24   13   14 1
    25   13   16 1
    26   14   15 1
    27   14   29 1
    28   15   30 1
    29   15   31 1
    30   15   32 1
    31   16   17 1
    32   16   33 1
    33   17   18 3
@<TRIPOS>MOLECULE
ZINC18115268
   34    34     0     0     0
SMALL
USER_CHARGES

@<TRIPOS>ATOM
      1 C1         -0.4661    1.1866   -0.1622 C.3       1 <0>        -0.1038
      2 C2         -0.2855   -0.3096   -0.1656 C.2       1 <0>         0.0885
      3 C3         -0.1306   -1.0970   -1.2470 C.2       1 <0>         0.0363
      4 N1         -0.0014   -2.3631   -0.8234 N.pl3     1 <0>        -0.4665
      5 C4         -0.0704   -2.3901    0.4795 C.cat     1 <0>         0.3136
      6 N2         -0.2415   -1.1286    0.9303 N.pl3     1 <0>        -0.5108
      7 H1         -0.3205   -0.8544    1.8573 H         1 <0>         0.4669
      8 C5         -0.1066   -0.6365   -2.6817 C.3       1 <0>        -0.0403
      9 S1          1.5984   -0.2473   -3.1634 S.3       1 <0>        -0.2309
     10 C6          1.4558    0.2839   -4.8920 C.3       1 <0>        -0.0786
     11 C7          2.8413    0.6469   -5.4300 C.3       1 <0>         0.0912
     12 N3          2.7261    1.0759   -6.8260 N.2       1 <0>        -0.6312
     13 C8          3.0461    2.2929   -7.1619 C.2       1 <0>         0.6417
     14 N4          2.8244    2.7326   -8.4453 N.pl3     1 <0>        -0.7120
     15 C9          3.1844    4.1016   -8.8231 C.3       1 <0>         0.0654
     16 N5          3.6076    3.1407   -6.2296 N.pl3     1 <0>        -0.6334
     17 C10         3.8302    4.4401   -6.5428 C.1       1 <0>         0.4045
     18 N6          4.0169    5.5295   -6.8053 N.1       1 <0>        -0.3971
     19 H2          0.5094    1.6702   -0.1101 H         1 <0>         0.1092
     20 H3         -0.9752    1.4931   -1.0759 H         1 <0>         0.1063
     21 H4         -1.0630    1.4785    0.7018 H         1 <0>         0.0956
     22 H5          0.0015   -3.2743    1.0955 H         1 <0>         0.2697
     23 H6         -0.4939   -1.4276   -3.3238 H         1 <0>         0.1143
     24 H7         -0.7264    0.2538   -2.7879 H         1 <0>         0.1260
     25 H8          1.0356   -0.5265   -5.4876 H         1 <0>         0.0992
     26 H9          0.8031    1.1549   -4.9518 H         1 <0>         0.0875
     27 H10         3.2615    1.4573   -4.8344 H         1 <0>         0.0398
     28 H11         3.4939   -0.2241   -5.3702 H         1 <0>         0.0894
     29 H12         2.4296    2.1365   -9.1008 H         1 <0>         0.4284
     30 H13         4.2540    4.2500   -8.6750 H         1 <0>         0.0641
     31 H14         2.9365    4.2662   -9.8717 H         1 <0>         0.0936
     32 H15         2.6305    4.8070   -8.2037 H         1 <0>         0.0674
     33 H16         3.8430    2.8067   -5.3499 H         1 <0>         0.4395
     34 H17         0.1233   -3.1366   -1.3952 H         1 <0>         0.4663
@<TRIPOS>BOND
     1    1    2 1
     2    1   19 1
     3    1   20 1
     4    1   21 1
     5    2    6 1
     6    2    3 2
     7    3    4 1
     8    3    8 1
     9    4    5 2
    10    4   34 1
    11    5    6 1
    12    5   22 1
    13    6    7 1
    14    8    9 1
    15    8   23 1
    16    8   24 1
    17    9   10 1
    18   10   11 1
    19   10   25 1
    20   10   26 1
    21   11   12 1
    22   11   27 1
    23   11   28 1
    24   12   13 2
    25   13   14 1
    26   13   16 1
    27   14   15 1
    28   14   29 1
    29   15   30 1
    30   15   31 1
    31   15   32 1
    32   16   17 1
    33   16   33 1
    34   17   18 3
@<TRIPOS>MOLECULE
ZINC18115268
   33    33     0     0     0
SMALL
USER_CHARGES

@<TRIPOS>ATOM
      1 C1         -0.0365    1.5010    0.0011 C.3       1 <0>        -0.0820
      2 C2         -0.0079   -0.0057   -0.0034 C.2       1 <0>         0.0046
      3 C3          0.0049   -0.8052   -1.0870 C.2       1 <0>         0.0062
      4 N1          0.0299   -2.0776   -0.6636 N.2       1 <0>        -0.4775
      5 C4          0.0331   -2.0970    0.6412 C.2       1 <0>         0.1912
      6 N2          0.0160   -0.8246    1.0932 N.pl3     1 <0>        -0.5667
      7 C5         -0.0069   -0.3499   -2.5235 C.3       1 <0>         0.0056
      8 S1          1.6984   -0.1349   -3.1036 S.3       1 <0>        -0.2246
      9 C6          1.5114    0.4074   -4.8246 C.3       1 <0>        -0.1100
     10 C7          2.8934    0.6285   -5.4426 C.3       1 <0>         0.1240
     11 N3          2.7424    1.0664   -6.8325 N.pl3     1 <0>        -0.7512
     12 C8          3.8492    1.4270   -7.5637 C.2       1 <0>         0.6199
     13 N4          3.7071    1.9124   -8.7639 N.2       1 <0>        -0.6375
     14 C9          2.3670    2.1805   -9.2916 C.3       1 <0>         0.0441
     15 N5          5.1106    1.2747   -7.0262 N.pl3     1 <0>        -0.5929
     16 C10         6.2016    1.6301   -7.7469 C.1       1 <0>         0.4348
     17 N6          7.1163    1.9281   -8.3511 N.1       1 <0>        -0.3988
     18 H1          0.9841    1.8838   -0.0052 H         1 <0>         0.0805
     19 H2         -0.5635    1.8571   -0.8841 H         1 <0>         0.0825
     20 H3         -0.5506    1.8520    0.8958 H         1 <0>         0.0676
     21 H4          0.0507   -2.9838    1.2575 H         1 <0>         0.2122
     22 H5         -0.5079   -1.0981   -3.1377 H         1 <0>         0.0956
     23 H6         -0.5389    0.5984   -2.5998 H         1 <0>         0.0930
     24 H7          0.9784   -0.3568   -5.3904 H         1 <0>         0.0906
     25 H8          0.9474    1.3397   -4.8525 H         1 <0>         0.0901
     26 H9          3.4264    1.3927   -4.8768 H         1 <0>         0.0785
     27 H10         3.4574   -0.3038   -5.4147 H         1 <0>         0.0765
     28 H11         1.8614    1.1020   -7.2368 H         1 <0>         0.4170
     29 H12         1.8229    1.2418   -9.3956 H         1 <0>         0.0440
     30 H13         1.8312    2.8370   -8.6060 H         1 <0>         0.0436
     31 H14         2.4498    2.6623  -10.2658 H         1 <0>         0.0807
     32 H15         5.2165    0.9132   -6.1323 H         1 <0>         0.4360
     33 H16         0.0181   -0.5434    2.0216 H         1 <0>         0.4225
@<TRIPOS>BOND
     1    1    2 1
     2    1   18 1
     3    1   19 1
     4    1   20 1
     5    2    6 1
     6    2    3 2
     7    3    4 1
     8    3    7 1
     9    4    5 2
    10    5    6 1
    11    5   21 1
    12    6   33 1
    13    7    8 1
    14    7   22 1
    15    7   23 1
    16    8    9 1
    17    9   10 1
    18    9   24 1
    19    9   25 1
    20   10   11 1
    21   10   26 1
    22   10   27 1
    23   11   12 1
    24   11   28 1
    25   12   13 2
    26   12   15 1
    27   13   14 1
    28   14   29 1
    29   14   30 1
    30   14   31 1
    31   15   16 1
    32   15   32 1
    33   16   17 3
@<TRIPOS>MOLECULE
ZINC18115268
   33    33     0     0     0
SMALL
USER_CHARGES

@<TRIPOS>ATOM
      1 C1         -0.0364    1.5010    0.0011 C.3       1 <0>        -0.0727
      2 C2         -0.0079   -0.0057   -0.0033 C.2       1 <0>         0.0386
      3 C3          0.0047   -0.7937   -1.0953 C.2       1 <0>        -0.0274
      4 N1          0.0310   -2.0877   -0.6496 N.pl3     1 <0>        -0.5622
      5 H1          0.0451   -2.8860   -1.2004 H         1 <0>         0.4215
      6 C4          0.0337   -2.0453    0.7002 C.2       1 <0>         0.2052
      7 N2          0.0154   -0.7968    1.0796 N.2       1 <0>        -0.4916
      8 C5         -0.0083   -0.3385   -2.5318 C.3       1 <0>        -0.0058
      9 S1          1.6964   -0.1220   -3.1130 S.3       1 <0>        -0.2251
     10 C6          1.5079    0.4200   -4.8338 C.3       1 <0>        -0.1097
     11 C7          2.8893    0.6423   -5.4527 C.3       1 <0>         0.1238
     12 N3          2.7371    1.0801   -6.8425 N.pl3     1 <0>        -0.7516
     13 C8          3.8432    1.4416   -7.5744 C.2       1 <0>         0.6197
     14 N4          3.6999    1.9268   -8.7745 N.2       1 <0>        -0.6359
     15 C9          2.3592    2.1939   -9.3014 C.3       1 <0>         0.0438
     16 N5          5.1050    1.2903   -7.0376 N.pl3     1 <0>        -0.5928
     17 C10         6.1953    1.6466   -7.7590 C.1       1 <0>         0.4341
     18 N6          7.1093    1.9453   -8.3638 N.1       1 <0>        -0.3972
     19 H2          0.9842    1.8838   -0.0052 H         1 <0>         0.0750
     20 H3         -0.5635    1.8571   -0.8841 H         1 <0>         0.0671
     21 H4         -0.5506    1.8521    0.8959 H         1 <0>         0.0732
     22 H5          0.0520   -2.9025    1.3568 H         1 <0>         0.2131
     23 H6         -0.5092   -1.0871   -3.1457 H         1 <0>         0.0896
     24 H7         -0.5412    0.6093   -2.6078 H         1 <0>         0.1068
     25 H8          0.9752   -0.3445   -5.3993 H         1 <0>         0.0900
     26 H9          0.9431    1.3519   -4.8614 H         1 <0>         0.0931
     27 H10         3.4220    1.4069   -4.8872 H         1 <0>         0.0801
     28 H11         3.4541   -0.2896   -5.4251 H         1 <0>         0.0757
     29 H12         1.8558    1.1149   -7.2462 H         1 <0>         0.4170
     30 H13         2.4411    2.6757  -10.2757 H         1 <0>         0.0813
     31 H14         1.8159    1.2547   -9.4050 H         1 <0>         0.0437
     32 H15         1.8233    2.8499   -8.6154 H         1 <0>         0.0441
     33 H16         5.2118    0.9289   -6.1438 H         1 <0>         0.4357
@<TRIPOS>BOND
     1    1    2 1
     2    1   19 1
     3    1   20 1
     4    1   21 1
     5    2    7 1
     6    2    3 2
     7    3    4 1
     8    3    8 1
     9    4    5 1
    10    4    6 1
    11    6    7 2
    12    6   22 1
    13    8    9 1
    14    8   23 1
    15    8   24 1
    16    9   10 1
    17   10   11 1
    18   10   25 1
    19   10   26 1
    20   11   12 1
    21   11   27 1
    22   11   28 1
    23   12   13 1
    24   12   29 1
    25   13   14 2
    26   13   16 1
    27   14   15 1
    28   15   30 1
    29   15   31 1
    30   15   32 1
    31   16   17 1
    32   16   33 1
    33   17   18 3
@<TRIPOS>MOLECULE
ZINC00000504
   41    44     0     0     0
SMALL
USER_CHARGES

@<TRIPOS>ATOM
      1 C1         -0.0178    1.4648    0.0101 C.3       1 <0>        -0.0457
      2 N1          0.0021   -0.0041    0.0020 N.4       1 <0>        -0.3851
      3 C2         -1.3782   -0.5248    0.0610 C.3       1 <0>        -0.0107
      4 C3         -1.3147   -2.0017   -0.3247 C.3       1 <0>         0.1097
      5 N2         -0.2536   -2.6823    0.4304 N.pl3     1 <0>        -0.6570
      6 C4         -0.1632   -4.0681    0.2474 C.ar      1 <0>         0.1515
      7 C5          0.1651   -4.5655   -1.0110 C.ar      1 <0>        -0.1283
      8 C6          0.3219   -5.9257   -1.1894 C.ar      1 <0>        -0.1053
      9 C7          0.1595   -6.7897   -0.1216 C.ar      1 <0>        -0.1122
     10 C8         -0.1903   -6.2968    1.1226 C.ar      1 <0>        -0.0978
     11 C9         -0.3794   -4.9379    1.2936 C.ar      1 <0>        -0.0863
     12 C10        -0.9055   -4.4020    2.5876 C.3       1 <0>        -0.0401
     13 C11         0.0255   -3.4607    3.2849 C.ar      1 <0>        -0.0434
     14 C12         0.2033   -3.7275    4.6483 C.ar      1 <0>        -0.1164
     15 C13         1.0009   -2.9352    5.4386 C.ar      1 <0>        -0.1037
     16 C14         1.6407   -1.8450    4.8776 C.ar      1 <0>        -0.1092
     17 C15         1.4792   -1.5873    3.5373 C.ar      1 <0>        -0.1345
     18 C16         0.6836   -2.4040    2.7249 C.ar      1 <0>        -0.1120
     19 C17         0.6957   -2.0166    1.2712 C.3       1 <0>         0.2145
     20 H1          1.6762   -2.3177    0.9022 H         1 <0>         0.0814
     21 C18         0.7079   -0.4980    1.1840 C.3       1 <0>        -0.0096
     22 H2          1.0047    1.8421    0.0024 H         1 <0>         0.1256
     23 H3         -0.5450    1.8259   -0.8730 H         1 <0>         0.1278
     24 H4         -0.5280    1.8163    0.9069 H         1 <0>         0.1233
     25 H5         -1.7720   -0.4210    1.0720 H         1 <0>         0.1359
     26 H6         -2.0104    0.0166   -0.6429 H         1 <0>         0.1459
     27 H7         -2.2727   -2.4732   -0.1054 H         1 <0>         0.1007
     28 H8         -1.1096   -2.0872   -1.3918 H         1 <0>         0.0828
     29 H9          0.2970   -3.8905   -1.8436 H         1 <0>         0.1222
     30 H10         0.5722   -6.3158   -2.1649 H         1 <0>         0.1292
     31 H11         0.3058   -7.8509   -0.2596 H         1 <0>         0.1304
     32 H12        -0.3156   -6.9709    1.9570 H         1 <0>         0.1304
     33 H13        -1.8427   -3.8810    2.3915 H         1 <0>         0.0851
     34 H14        -1.1118   -5.2412    3.2519 H         1 <0>         0.0847
     35 H15        -0.2988   -4.5760    5.0892 H         1 <0>         0.1275
     36 H16         1.1270   -3.1618    6.4870 H         1 <0>         0.1317
     37 H17         2.2602   -1.2030    5.4861 H         1 <0>         0.1308
     38 H18         1.9776   -0.7345    3.1006 H         1 <0>         0.1191
     39 H19         1.7417   -0.1544    1.1475 H         1 <0>         0.1407
     40 H20         0.2329   -0.0891    2.0758 H         1 <0>         0.1370
     41 H21         0.4593   -0.3360   -0.8339 H         1 <0>         0.4294
@<TRIPOS>BOND
     1    1    2 1
     2    1   22 1
     3    1   23 1
     4    1   24 1
     5    2   21 1
     6    2    3 1
     7    2   41 1
     8    3    4 1
     9    3   25 1
    10    3   26 1
    11    4    5 1
    12    4   27 1
    13    4   28 1
    14    5   19 1
    15    5    6 1
    16    6   11 ar
    17    6    7 ar
    18    7    8 ar
    19    7   29 1
    20    8    9 ar
    21    8   30 1
    22    9   10 ar
    23    9   31 1
    24   10   11 ar
    25   10   32 1
    26   11   12 1
    27   12   13 1
    28   12   33 1
    29   12   34 1
    30   13   18 ar
    31   13   14 ar
    32   14   15 ar
    33   14   35 1
    34   15   16 ar
    35   15   36 1
    36   16   17 ar
    37   16   37 1
    38   17   18 ar
    39   17   38 1
    40   18   19 1
    41   19   20 1
    42   19   21 1
    43   21   39 1
    44   21   40 1
@<TRIPOS>MOLECULE
ZINC18217584
   18    18     0     0     0
SMALL
USER_CHARGES

@<TRIPOS>ATOM
      1 C1         -0.0165    1.3646    0.0095 C.2       1 <0>        -0.0270
      2 C2          1.2671    1.7717   -0.0005 C.2       1 <0>        -0.0303
      3 N1          2.0482    0.6814   -0.0138 N.2       1 <0>        -0.4943
      4 C3          1.2973   -0.3859   -0.0124 C.2       1 <0>         0.2060
      5 N2          0.0021   -0.0041    0.0020 N.pl3     1 <0>        -0.5630
      6 H1         -0.7708   -0.5902    0.0065 H         1 <0>         0.4305
      7 C4          1.7427    3.2017    0.0026 C.3       1 <0>        -0.0519
      8 C5          2.7000    3.4183    1.1763 C.3       1 <0>        -0.0028
      9 N3          3.1635    4.8122    1.1794 N.4       1 <0>        -0.6379
     10 H2         -0.8922    1.9965    0.0253 H         1 <0>         0.1810
     11 H3          1.6529   -1.4057   -0.0218 H         1 <0>         0.2158
     12 H4          2.2605    3.4145   -0.9326 H         1 <0>         0.0964
     13 H5          0.8868    3.8690    0.1039 H         1 <0>         0.0968
     14 H6          2.1821    3.2055    2.1116 H         1 <0>         0.1320
     15 H7          3.5559    2.7510    1.0750 H         1 <0>         0.1402
     16 H8          3.7948    4.9550    1.9534 H         1 <0>         0.4390
     17 H9          3.6429    5.0092    0.3137 H         1 <0>         0.4357
     18 H10         2.3712    5.4299    1.2732 H         1 <0>         0.4338
@<TRIPOS>BOND
     1    1    5 1
     2    1    2 2
     3    1   10 1
     4    2    3 1
     5    2    7 1
     6    3    4 2
     7    4    5 1
     8    4   11 1
     9    5    6 1
    10    7    8 1
    11    7   12 1
    12    7   13 1
    13    8    9 1
    14    8   14 1
    15    8   15 1
    16    9   16 1
    17    9   17 1
    18    9   18 1
