@<TRIPOS>MOLECULE
ZINC00020245
   46    48     0     0     0
SMALL
USER_CHARGES

@<TRIPOS>ATOM
      1 C1         -5.6836    1.3838    0.0162 C.3       1 <0>        -0.0473
      2 N1         -5.6620   -0.0833   -0.0564 N.4       1 <0>        -0.3868
      3 C2         -6.3713   -0.5242   -1.2649 C.3       1 <0>        -0.0522
      4 C3         -4.2702   -0.5505   -0.1076 C.3       1 <0>        -0.0086
      5 C4         -4.2434   -2.0795   -0.0575 C.3       1 <0>        -0.1781
      6 C5         -2.7938   -2.5661   -0.1108 C.3       1 <0>         0.1490
      7 N2         -2.7704   -4.0309   -0.1190 N.pl3     1 <0>        -0.6108
      8 C6         -2.7295   -4.7451   -1.3212 C.ar      1 <0>         0.1758
      9 C7         -1.6865   -4.4783   -2.2022 C.ar      1 <0>        -0.1411
     10 C8         -1.5734   -5.1772   -3.3856 C.ar      1 <0>        -0.1022
     11 C9         -2.5089   -6.1508   -3.6854 C.ar      1 <0>        -0.1266
     12 C10        -3.5489   -6.4041   -2.8209 C.ar      1 <0>        -0.1101
     13 C11        -3.6933   -5.6947   -1.6266 C.ar      1 <0>        -0.0998
     14 C12        -4.9357   -6.0340   -0.8354 C.3       1 <0>        -0.0687
     15 C13        -5.1005   -5.1892    0.4158 C.3       1 <0>        -0.0773
     16 C14        -3.9592   -5.4030    1.3779 C.ar      1 <0>        -0.0996
     17 C15        -2.7824   -4.7590    1.0748 C.ar      1 <0>         0.1523
     18 C16        -1.6837   -4.8488    1.9126 C.ar      1 <0>        -0.1184
     19 C17        -1.7825   -5.6251    3.0560 C.ar      1 <0>        -0.1094
     20 C18        -2.9565   -6.2950    3.3488 C.ar      1 <0>        -0.1165
     21 C19        -4.0679   -6.1865    2.5030 C.ar      1 <0>        -0.1028
     22 H1         -6.7163    1.7305    0.0542 H         1 <0>         0.1245
     23 H2         -5.1573    1.7109    0.9129 H         1 <0>         0.1235
     24 H3         -5.1933    1.7984   -0.8646 H         1 <0>         0.1221
     25 H4         -6.3552   -1.6128   -1.3188 H         1 <0>         0.1231
     26 H5         -7.4040   -0.1775   -1.2269 H         1 <0>         0.1246
     27 H6         -5.8810   -0.1096   -2.1457 H         1 <0>         0.1227
     28 H7         -3.8061   -0.2091   -1.0329 H         1 <0>         0.1308
     29 H8         -3.7207   -0.1494    0.7440 H         1 <0>         0.1320
     30 H9         -4.7075   -2.4209    0.8678 H         1 <0>         0.0908
     31 H10        -4.7929   -2.4806   -0.9091 H         1 <0>         0.0915
     32 H11        -2.3174   -2.1901   -1.0161 H         1 <0>         0.0824
     33 H12        -2.2550   -2.1990    0.7627 H         1 <0>         0.0801
     34 H13        -0.9599   -3.7176   -1.9576 H         1 <0>         0.1215
     35 H14        -0.7646   -4.9667   -4.0697 H         1 <0>         0.1276
     36 H15        -2.4229   -6.7145   -4.6025 H         1 <0>         0.1250
     37 H16        -4.2693   -7.1687   -3.0712 H         1 <0>         0.1222
     38 H17        -5.8074   -5.8880   -1.4734 H         1 <0>         0.0793
     39 H18        -4.8898   -7.0837   -0.5452 H         1 <0>         0.0765
     40 H19        -5.1365   -4.1371    0.1334 H         1 <0>         0.0724
     41 H20        -6.0358   -5.4578    0.9068 H         1 <0>         0.0709
     42 H21        -0.7686   -4.3248    1.6795 H         1 <0>         0.1257
     43 H22        -0.9372   -5.7074    3.7231 H         1 <0>         0.1275
     44 H23        -3.0178   -6.9071    4.2365 H         1 <0>         0.1269
     45 H24        -4.9880   -6.7067    2.7249 H         1 <0>         0.1290
     46 H25        -6.1159   -0.4671    0.7589 H         1 <0>         0.4268
@<TRIPOS>BOND
     1    1    2 1
     2    1   22 1
     3    1   23 1
     4    1   24 1
     5    2    3 1
     6    2    4 1
     7    2   46 1
     8    3   25 1
     9    3   26 1
    10    3   27 1
    11    4    5 1
    12    4   28 1
    13    4   29 1
    14    5    6 1
    15    5   30 1
    16    5   31 1
    17    6    7 1
    18    6   32 1
    19    6   33 1
    20    7   17 1
    21    7    8 1
    22    8   13 ar
    23    8    9 ar
    24    9   10 ar
    25    9   34 1
    26   10   11 ar
    27   10   35 1
    28   11   12 ar
    29   11   36 1
    30   12   13 ar
    31   12   37 1
    32   13   14 1
    33   14   15 1
    34   14   38 1
    35   14   39 1
    36   15   16 1
    37   15   40 1
    38   15   41 1
    39   16   21 ar
    40   16   17 ar
    41   17   18 ar
    42   18   19 ar
    43   18   42 1
    44   19   20 ar
    45   19   43 1
    46   20   21 ar
    47   20   44 1
    48   21   45 1
@<TRIPOS>MOLECULE
ZINC01915508
   64    68     0     0     0
SMALL
USER_CHARGES
8-[4-[4-(9-thia-8-azabicyclo[4.3.0]nona-2,4,7,10-tetraen-7-yl)piperazin-1-yl]butyl]-8-azaspiro[4.5]decane-7,9-dione
@<TRIPOS>ATOM
      1 C1         -0.1854    3.0363    3.0585 C.ar      1 <0>        -0.1227
      2 C2          0.9702    2.2871    2.8731 C.ar      1 <0>        -0.0631
      3 C3          1.7797    2.5384    1.7969 C.ar      1 <0>        -0.0775
      4 C4          1.4398    3.5390    0.9109 C.ar      1 <0>        -0.1195
      5 C5          0.2738    4.3208    1.0775 C.ar      1 <0>        -0.1259
      6 C6         -0.5340    4.0311    2.1987 C.ar      1 <0>        -0.0351
      7 C7          0.1089    5.3174    0.0302 C.2       1 <0>         0.2965
      8 N1          0.9929    5.4074   -0.9213 N.2       1 <0>        -0.4531
      9 S1          2.1517    4.2026   -0.5700 S.3       1 <0>         0.2239
     10 N2         -0.9928    6.1742    0.0458 N.pl3     1 <0>        -0.4740
     11 C8         -1.8260    5.9826   -1.1494 C.3       1 <0>         0.0288
     12 C9         -3.0618    6.8807   -1.0559 C.3       1 <0>         0.0019
     13 C10        -1.8041    8.4738    0.2628 C.3       1 <0>         0.0063
     14 C11        -0.5684    7.5757    0.1693 C.3       1 <0>         0.0281
     15 C12        -3.7969    9.1840   -0.9159 C.3       1 <0>        -0.0018
     16 C13        -4.4982    9.1379   -2.2750 C.3       1 <0>        -0.1459
     17 C14        -5.7059   10.0771   -2.2578 C.3       1 <0>        -0.1286
     18 C15        -6.4072   10.0310   -3.6168 C.3       1 <0>         0.0907
     19 N3         -7.5636   10.9302   -3.6003 N.am      1 <0>        -0.5674
     20 C16        -8.7518   10.4404   -3.2171 C.2       1 <0>         0.5275
     21 O1         -8.8357    9.2783   -2.8824 O.2       1 <0>        -0.4991
     22 C17        -9.9833   11.3079   -3.1892 C.3       1 <0>        -0.1340
     23 C18        -9.5725   12.7603   -2.9521 C.3       1 <0>        -0.0662
     24 C19       -10.8015   13.6767   -3.0258 C.3       1 <0>        -0.1145
     25 C20       -10.9201   14.3606   -1.6469 C.3       1 <0>        -0.1263
     26 C21        -9.4840   14.3020   -1.0687 C.3       1 <0>        -0.1244
     27 C22        -8.9806   12.9141   -1.5400 C.3       1 <0>        -0.1218
     28 C23        -8.5400   13.1786   -3.9978 C.3       1 <0>        -0.1329
     29 C24        -7.3893   12.2063   -3.9743 C.2       1 <0>         0.5269
     30 O2         -6.2846   12.5847   -4.3000 O.2       1 <0>        -0.4987
     31 H1         -0.8189    2.8271    3.9078 H         1 <0>         0.1379
     32 H2          1.2271    1.5059    3.5731 H         1 <0>         0.1446
     33 H3          2.6772    1.9577    1.6438 H         1 <0>         0.1426
     34 H4         -1.4362    4.5989    2.3719 H         1 <0>         0.1355
     35 H5         -1.2524    6.2448   -2.0384 H         1 <0>         0.0752
     36 H6         -2.1380    4.9401   -1.2119 H         1 <0>         0.1258
     37 H7         -3.6497    6.6005   -0.1819 H         1 <0>         0.1430
     38 H8         -3.6669    6.7619   -1.9547 H         1 <0>         0.1398
     39 H9         -2.3778    8.2117    1.1518 H         1 <0>         0.1425
     40 H10        -1.4921    9.5163    0.3257 H         1 <0>         0.1394
     41 H11         0.0365    7.6946    1.0683 H         1 <0>         0.1260
     42 H12         0.0195    7.8560   -0.7047 H         1 <0>         0.0753
     43 H13        -4.4917    8.8682   -0.1377 H         1 <0>         0.1343
     44 H14        -3.4629   10.2016   -0.7137 H         1 <0>         0.1317
     45 H15        -3.8034    9.4537   -3.0532 H         1 <0>         0.0910
     46 H16        -4.8321    8.1202   -2.4772 H         1 <0>         0.0910
     47 H17        -6.4007    9.7613   -1.4795 H         1 <0>         0.0800
     48 H18        -5.3719   11.0947   -2.0556 H         1 <0>         0.0795
     49 H19        -5.7124   10.3468   -4.3951 H         1 <0>         0.0985
     50 H20        -6.7411    9.0133   -3.8190 H         1 <0>         0.0987
     51 H21       -10.6438   10.9805   -2.3863 H         1 <0>         0.1190
     52 H22       -10.5031   11.2276   -4.1439 H         1 <0>         0.1155
     53 H23       -10.6624   14.4268   -3.8044 H         1 <0>         0.0769
     54 H24       -11.6956   13.0875   -3.2291 H         1 <0>         0.0769
     55 H25       -11.6116   13.8121   -1.0073 H         1 <0>         0.0700
     56 H26       -11.2444   15.3952   -1.7587 H         1 <0>         0.0725
     57 H27        -9.5035   14.3564    0.0198 H         1 <0>         0.0709
     58 H28        -8.8653   15.0981   -1.4826 H         1 <0>         0.0705
     59 H29        -9.3535   12.1291   -0.8821 H         1 <0>         0.0742
     60 H30        -7.8914   12.8959   -1.5784 H         1 <0>         0.0612
     61 H31        -8.1754   14.1800   -3.7693 H         1 <0>         0.1185
     62 H32        -9.0001   13.1744   -4.9859 H         1 <0>         0.1158
     63 N4         -2.6214    8.2879   -0.9547 N.4       1 <0>        -0.3991
     64 H33        -2.0524    8.5196   -1.7774 H         1 <0>         0.4266
@<TRIPOS>BOND
     1    1    6 ar
     2    1    2 ar
     3    1   31 1
     4    2    3 ar
     5    2   32 1
     6    3    4 ar
     7    3   33 1
     8    4    9 1
     9    4    5 ar
    10    5    6 ar
    11    5    7 1
    12    6   34 1
    13    7    8 2
    14    7   10 1
    15    8    9 1
    16   10   14 1
    17   10   11 1
    18   11   12 1
    19   11   35 1
    20   11   36 1
    21   12   37 1
    22   12   38 1
    23   12   63 1
    24   13   14 1
    25   13   39 1
    26   13   40 1
    27   13   63 1
    28   14   41 1
    29   14   42 1
    30   15   16 1
    31   15   43 1
    32   15   44 1
    33   15   63 1
    34   16   17 1
    35   16   45 1
    36   16   46 1
    37   17   18 1
    38   17   47 1
    39   17   48 1
    40   18   19 1
    41   18   49 1
    42   18   50 1
    43   19   29 am
    44   19   20 am
    45   20   21 2
    46   20   22 1
    47   22   23 1
    48   22   51 1
    49   22   52 1
    50   23   27 1
    51   23   24 1
    52   23   28 1
    53   24   25 1
    54   24   53 1
    55   24   54 1
    56   25   26 1
    57   25   55 1
    58   25   56 1
    59   26   27 1
    60   26   57 1
    61   26   58 1
    62   27   59 1
    63   27   60 1
    64   28   29 1
    65   28   61 1
    66   28   62 1
    67   29   30 2
    68   63   64 1
@<TRIPOS>MOLECULE
ZINC19868747
   35    37     0     0     0
SMALL
USER_CHARGES

@<TRIPOS>ATOM
      1 C1          1.7302    1.7441   -0.9395 C.3       1 <0>         0.0240
      2 N1          1.2923    0.3866   -0.5886 N.3       1 <0>        -0.5432
      3 C2          1.3850   -0.5124   -1.7468 C.3       1 <0>         0.0387
      4 C3          0.7532   -1.8628   -1.3929 C.3       1 <0>         0.1167
      5 N2          1.3840   -2.3658   -0.1631 N.am      1 <0>        -0.6105
      6 C4          1.4518   -1.4694    1.0010 C.3       1 <0>         0.0883
      7 C5          2.0561   -0.1344    0.5529 C.3       1 <0>         0.0410
      8 C6          1.8862   -3.6152   -0.1043 C.2       1 <0>         0.5853
      9 O1          1.8175   -4.3446   -1.0754 O.2       1 <0>        -0.5148
     10 C7          2.5172   -4.0965    1.1337 C.2       1 <0>         0.0219
     11 C8          3.5030   -5.0289    1.2044 C.2       1 <0>        -0.1018
     12 C9          3.8299   -5.2082    2.5703 C.ar      1 <0>        -0.1076
     13 C10         4.7524   -6.0229    3.2398 C.ar      1 <0>        -0.0492
     14 C11         4.8387   -5.9739    4.6014 C.ar      1 <0>        -0.0596
     15 C12         4.0183   -5.1217    5.3321 C.ar      1 <0>        -0.0784
     16 C13         3.1040   -4.3122    4.6965 C.ar      1 <0>        -0.1163
     17 C14         2.9980   -4.3442    3.3087 C.ar      1 <0>         0.1111
     18 N3          2.2062   -3.6685    2.4098 N.pl3     1 <0>        -0.5787
     19 H1          1.5375   -3.0029    2.6350 H         1 <0>         0.4234
     20 Cl1         5.9824   -6.9851    5.4279 Cl        1 <0>        -0.0682
     21 H2          2.7874    1.7277   -1.2047 H         1 <0>         0.0280
     22 H3          1.1486    2.1058   -1.7875 H         1 <0>         0.0730
     23 H4          1.5797    2.4063   -0.0869 H         1 <0>         0.0722
     24 H5          0.8548   -0.0730   -2.5916 H         1 <0>         0.0931
     25 H6          2.4324   -0.6588   -2.0106 H         1 <0>         0.0418
     26 H7         -0.3169   -1.7349   -1.2296 H         1 <0>         0.0811
     27 H8          0.9205   -2.5696   -2.2056 H         1 <0>         0.1017
     28 H9          0.4489   -1.3036    1.3944 H         1 <0>         0.0850
     29 H10         2.0810   -1.9161    1.7709 H         1 <0>         0.0956
     30 H11         3.0942   -0.2862    0.2570 H         1 <0>         0.0428
     31 H12         2.0126    0.5790    1.3757 H         1 <0>         0.0919
     32 H13         3.9556   -5.5417    0.3686 H         1 <0>         0.1591
     33 H14         5.3933   -6.6881    2.6802 H         1 <0>         0.1382
     34 H15         4.0989   -5.0947    6.4088 H         1 <0>         0.1403
     35 H16         2.4707   -3.6541    5.2729 H         1 <0>         0.1342
@<TRIPOS>BOND
     1    1    2 1
     2    1   21 1
     3    1   22 1
     4    1   23 1
     5    2    7 1
     6    2    3 1
     7    3    4 1
     8    3   24 1
     9    3   25 1
    10    4    5 1
    11    4   26 1
    12    4   27 1
    13    5    6 1
    14    5    8 am
    15    6    7 1
    16    6   28 1
    17    6   29 1
    18    7   30 1
    19    7   31 1
    20    8    9 2
    21    8   10 1
    22   10   18 1
    23   10   11 2
    24   11   12 1
    25   11   32 1
    26   12   17 ar
    27   12   13 ar
    28   13   14 ar
    29   13   33 1
    30   14   15 ar
    31   14   20 1
    32   15   16 ar
    33   15   34 1
    34   16   17 ar
    35   16   35 1
    36   17   18 1
    37   18   19 1
@<TRIPOS>MOLECULE
ZINC01552001
   57    59     0     0     0
SMALL
USER_CHARGES

@<TRIPOS>ATOM
      1 C1         -0.0167    1.3784    0.0096 C.ar      1 <0>        -0.0525
      2 C2          1.1695    2.0865    0.0021 C.ar      1 <0>        -0.1434
      3 C3          2.3802    1.4093   -0.0131 C.ar      1 <0>         0.1609
      4 C4          2.3963    0.0221   -0.0206 C.ar      1 <0>        -0.2065
      5 C5          1.2074   -0.6814   -0.0130 C.ar      1 <0>        -0.0488
      6 C6          0.0021   -0.0041    0.0020 C.ar      1 <0>        -0.1921
      7 C7         -1.2934   -0.7740    0.0107 C.3       1 <0>         0.0458
      8 N1         -1.7280   -1.0167   -1.3714 N.4       1 <0>        -0.3814
      9 C8         -2.0325    0.2647   -2.0192 C.3       1 <0>        -0.0128
     10 C9         -2.4078    0.0241   -3.4830 C.3       1 <0>        -0.1444
     11 C10        -3.6375   -0.8864   -3.5460 C.3       1 <0>        -0.1403
     12 C11        -3.3334   -2.1905   -2.8029 C.3       1 <0>        -0.1462
     13 C12        -2.9239   -1.8678   -1.3643 C.3       1 <0>        -0.0078
     14 O1          3.5484    2.1036   -0.0209 O.3       1 <0>        -0.3055
     15 C13         4.7565    1.3405   -0.0365 C.3       1 <0>         0.0607
     16 C14         5.9580    2.2878   -0.0434 C.3       1 <0>        -0.1528
     17 C15         7.2515    1.4708   -0.0601 C.3       1 <0>        -0.0055
     18 N2          8.4050    2.3803   -0.0667 N.4       1 <0>        -0.3819
     19 C16         8.4087    3.1544   -1.3138 C.3       1 <0>        -0.0131
     20 C17         9.5614    4.1604   -1.2907 C.3       1 <0>        -0.1466
     21 C18        10.8871    3.4064   -1.1522 C.3       1 <0>        -0.1407
     22 C19        10.8433    2.5449    0.1131 C.3       1 <0>        -0.1472
     23 C20         9.6430    1.5987    0.0380 C.3       1 <0>        -0.0064
     24 H1         -0.9594    1.9052    0.0259 H         1 <0>         0.1422
     25 H2          1.1543    3.1664    0.0076 H         1 <0>         0.1458
     26 H3          3.3375   -0.5074   -0.0328 H         1 <0>         0.1380
     27 H4          1.2194   -1.7613   -0.0189 H         1 <0>         0.1370
     28 H5         -1.1460   -1.7274    0.5180 H         1 <0>         0.1373
     29 H6         -2.0553   -0.1973    0.5352 H         1 <0>         0.1367
     30 H7         -2.8662    0.7424   -1.5046 H         1 <0>         0.1290
     31 H8         -1.1574    0.9128   -1.9707 H         1 <0>         0.1277
     32 H9         -2.6352    0.9766   -3.9617 H         1 <0>         0.1115
     33 H10        -1.5745   -0.4533   -3.9986 H         1 <0>         0.0853
     34 H11        -4.4847   -0.3877   -3.0754 H         1 <0>         0.0831
     35 H12        -3.8749   -1.1067   -4.5868 H         1 <0>         0.0951
     36 H13        -4.2225   -2.8210   -2.7956 H         1 <0>         0.1140
     37 H14        -2.5194   -2.7139   -3.3044 H         1 <0>         0.0866
     38 H15        -2.7069   -2.7941   -0.8324 H         1 <0>         0.1308
     39 H16        -3.7386   -1.3447   -0.8637 H         1 <0>         0.1300
     40 H17         4.7979    0.7076    0.8500 H         1 <0>         0.0782
     41 H18         4.7806    0.7165   -0.9299 H         1 <0>         0.0770
     42 H19         5.9165    2.9207   -0.9299 H         1 <0>         0.1016
     43 H20         5.9338    2.9118    0.8500 H         1 <0>         0.1022
     44 H21         7.2929    0.8379    0.8264 H         1 <0>         0.1354
     45 H22         7.2756    0.8468   -0.9535 H         1 <0>         0.1333
     46 H23         8.5337    2.4787   -2.1600 H         1 <0>         0.1295
     47 H24         7.4633    3.6879   -1.4126 H         1 <0>         0.1304
     48 H25         9.5635    4.7330   -2.2183 H         1 <0>         0.1137
     49 H26         9.4373    4.8368   -0.4450 H         1 <0>         0.0887
     50 H27        11.0360    2.7679   -2.0230 H         1 <0>         0.0825
     51 H28        11.7069    4.1210   -1.0784 H         1 <0>         0.0968
     52 H29        11.7616    1.9626    0.1890 H         1 <0>         0.1149
     53 H30        10.7458    3.1878    0.9880 H         1 <0>         0.0889
     54 H31         9.6089    0.9837    0.9373 H         1 <0>         0.1313
     55 H32         9.7417    0.9562   -0.8370 H         1 <0>         0.1295
     56 H33        -0.9893   -1.4806   -1.8786 H         1 <0>         0.4200
     57 H34         8.3393    3.0110    0.7181 H         1 <0>         0.4246
@<TRIPOS>BOND
     1    1    6 ar
     2    1    2 ar
     3    1   24 1
     4    2    3 ar
     5    2   25 1
     6    3    4 ar
     7    3   14 1
     8    4    5 ar
     9    4   26 1
    10    5    6 ar
    11    5   27 1
    12    6    7 1
    13    7    8 1
    14    7   28 1
    15    7   29 1
    16    8   13 1
    17    8    9 1
    18    8   56 1
    19    9   10 1
    20    9   30 1
    21    9   31 1
    22   10   11 1
    23   10   32 1
    24   10   33 1
    25   11   12 1
    26   11   34 1
    27   11   35 1
    28   12   13 1
    29   12   36 1
    30   12   37 1
    31   13   38 1
    32   13   39 1
    33   14   15 1
    34   15   16 1
    35   15   40 1
    36   15   41 1
    37   16   17 1
    38   16   42 1
    39   16   43 1
    40   17   18 1
    41   17   44 1
    42   17   45 1
    43   18   23 1
    44   18   19 1
    45   18   57 1
    46   19   20 1
    47   19   46 1
    48   19   47 1
    49   20   21 1
    50   20   48 1
    51   20   49 1
    52   21   22 1
    53   21   50 1
    54   21   51 1
    55   22   23 1
    56   22   52 1
    57   22   53 1
    58   23   54 1
    59   23   55 1
@<TRIPOS>MOLECULE
ZINC13518991
   19    20     0     0     0
SMALL
USER_CHARGES
(1R,2R)-2-(1H-imidazol-4-yl)cyclopropan-1-amine
@<TRIPOS>ATOM
      1 C1          1.9721    1.6218    2.3022 C.2       1 <0>        -0.0248
      2 C2          2.1321    0.7830    1.2609 C.2       1 <0>        -0.0109
      3 N1          3.1482   -0.0445    1.5470 N.2       1 <0>        -0.4867
      4 C3          3.6204    0.2461    2.7283 C.2       1 <0>         0.2063
      5 N2          2.9122    1.2779    3.2358 N.pl3     1 <0>        -0.5653
      6 H1          3.0490    1.7100    4.1272 H         1 <0>         0.4377
      7 C4          1.3165    0.7789   -0.0063 C.3       1 <0>        -0.0280
      8 H2          1.8888    0.7918   -0.9339 H         1 <0>         0.1399
      9 C5         -0.0187    1.5258    0.0104 C.3       1 <0>        -0.1436
     10 C6          0.0021   -0.0041    0.0020 C.3       1 <0>        -0.0684
     11 H3         -0.2732   -0.5162    0.9240 H         1 <0>         0.1771
     12 H4          1.2412    2.4126    2.3856 H         1 <0>         0.1805
     13 H5          4.4413   -0.2557    3.2190 H         1 <0>         0.2168
     14 H6         -0.3248    2.0300   -0.9061 H         1 <0>         0.1298
     15 H7         -0.3072    2.0201    0.9381 H         1 <0>         0.1335
     16 H8         -1.2698   -1.1652   -1.1259 H         1 <0>         0.4424
     17 H9         -0.4369   -0.0286   -2.0092 H         1 <0>         0.4350
     18 N3         -0.3728   -0.6970   -1.2432 N.4       1 <0>        -0.6150
     19 H10         0.3436   -1.3972   -1.4686 H         1 <0>         0.4437
@<TRIPOS>BOND
     1    1    5 1
     2    1    2 2
     3    1   12 1
     4    2    3 1
     5    2    7 1
     6    3    4 2
     7    4    5 1
     8    4   13 1
     9    5    6 1
    10    7    8 1
    11    7   10 1
    12    7    9 1
    13    9   10 1
    14    9   14 1
    15    9   15 1
    16   10   11 1
    17   10   18 1
    18   16   18 1
    19   17   18 1
    20   18   19 1
@<TRIPOS>MOLECULE
ZINC13518991
   20    21     0     0     0
SMALL
USER_CHARGES
(1R,2R)-2-(1H-imidazol-4-yl)cyclopropan-1-amine
@<TRIPOS>ATOM
      1 C1          1.9721    1.6218    2.3022 C.2       1 <0>         0.0629
      2 C2          2.1321    0.7830    1.2609 C.2       1 <0>         0.0231
      3 C3          3.6204    0.2461    2.7283 C.cat     1 <0>         0.3341
      4 N1          2.9122    1.2779    3.2358 N.pl3     1 <0>        -0.5124
      5 H1          3.0490    1.7100    4.1272 H         1 <0>         0.4846
      6 C4          1.3165    0.7789   -0.0063 C.3       1 <0>        -0.0864
      7 H2          1.8888    0.7918   -0.9339 H         1 <0>         0.1619
      8 C5         -0.0187    1.5258    0.0104 C.3       1 <0>        -0.1203
      9 C6          0.0021   -0.0041    0.0020 C.3       1 <0>        -0.0525
     10 H3         -0.2732   -0.5162    0.9240 H         1 <0>         0.1860
     11 H4          1.2412    2.4126    2.3856 H         1 <0>         0.2290
     12 H5          4.4413   -0.2557    3.2190 H         1 <0>         0.2734
     13 H6         -0.3248    2.0300   -0.9061 H         1 <0>         0.1473
     14 H7         -0.3072    2.0201    0.9381 H         1 <0>         0.1452
     15 H8         -1.2698   -1.1652   -1.1259 H         1 <0>         0.4541
     16 H9         -0.4369   -0.0286   -2.0092 H         1 <0>         0.4431
     17 N2         -0.3728   -0.6970   -1.2432 N.4       1 <0>        -0.6188
     18 H10         0.3436   -1.3972   -1.4686 H         1 <0>         0.4450
     19 N3          3.1477   -0.0435    1.5478 N.pl3     1 <0>        -0.4827
     20 H11         3.4987   -0.7882    0.9341 H         1 <0>         0.4835
@<TRIPOS>BOND
     1    1    4 1
     2    1    2 2
     3    1   11 1
     4    2    6 1
     5    2   19 1
     6    3    4 1
     7    3   12 1
     8    3   19 2
     9    4    5 1
    10    6    7 1
    11    6    9 1
    12    6    8 1
    13    8    9 1
    14    8   13 1
    15    8   14 1
    16    9   10 1
    17    9   17 1
    18   15   17 1
    19   16   17 1
    20   17   18 1
    21   19   20 1
@<TRIPOS>MOLECULE
ZINC13518995
   19    20     0     0     0
SMALL
USER_CHARGES
(1S,2S)-2-(1H-imidazol-4-yl)cyclopropan-1-amine
@<TRIPOS>ATOM
      1 C1         -0.7050    3.1521    0.0257 C.2       1 <0>        -0.0248
      2 C2          0.6414    3.1322    0.0128 C.2       1 <0>        -0.0108
      3 N1          1.0374    1.8508    0.0021 N.2       1 <0>        -0.4865
      4 C3         -0.0126    1.0758    0.0080 C.2       1 <0>         0.2063
      5 N2         -1.1205    1.8479    0.0168 N.pl3     1 <0>        -0.5652
      6 H1         -2.0676    1.5268    0.0168 H         1 <0>         0.4377
      7 C4          1.5450    4.3383    0.0111 C.3       1 <0>        -0.0261
      8 H2          2.3184    4.3453   -0.7570 H         1 <0>         0.1399
      9 C5          0.9302    5.6821    0.4074 C.3       1 <0>        -0.1486
     10 C6          1.8868    4.9669    1.3635 C.3       1 <0>        -0.0671
     11 H3          1.4584    4.5078    2.2545 H         1 <0>         0.1790
     12 H4         -1.3359    4.0287    0.0368 H         1 <0>         0.1805
     13 H5          0.0021   -0.0041    0.0020 H         1 <0>         0.2169
     14 H6          1.2989    6.5735   -0.1001 H         1 <0>         0.1303
     15 H7         -0.1278    5.6939    0.6693 H         1 <0>         0.1332
     16 H8          3.3513    5.9206    2.4516 H         1 <0>         0.4426
     17 H9          3.9416    4.8446    1.3292 H         1 <0>         0.4412
     18 N3          3.2312    5.5521    1.5096 N.4       1 <0>        -0.6153
     19 H10         3.3414    6.3173    0.8339 H         1 <0>         0.4368
@<TRIPOS>BOND
     1    1    5 1
     2    1    2 2
     3    1   12 1
     4    2    3 1
     5    2    7 1
     6    3    4 2
     7    4    5 1
     8    4   13 1
     9    5    6 1
    10    7    8 1
    11    7   10 1
    12    7    9 1
    13    9   10 1
    14    9   14 1
    15    9   15 1
    16   10   11 1
    17   10   18 1
    18   16   18 1
    19   17   18 1
    20   18   19 1
@<TRIPOS>MOLECULE
ZINC13518995
   20    21     0     0     0
SMALL
USER_CHARGES
(1S,2S)-2-(1H-imidazol-4-yl)cyclopropan-1-amine
@<TRIPOS>ATOM
      1 C1         -0.7050    3.1521    0.0257 C.2       1 <0>         0.0629
      2 C2          0.6414    3.1322    0.0128 C.2       1 <0>         0.0232
      3 C3         -0.0126    1.0758    0.0080 C.cat     1 <0>         0.3343
      4 N1         -1.1205    1.8479    0.0168 N.pl3     1 <0>        -0.5124
      5 H1         -2.0676    1.5268    0.0168 H         1 <0>         0.4846
      6 C4          1.5450    4.3383    0.0111 C.3       1 <0>        -0.0845
      7 H2          2.3184    4.3453   -0.7570 H         1 <0>         0.1618
      8 C5          0.9302    5.6821    0.4074 C.3       1 <0>        -0.1253
      9 C6          1.8868    4.9669    1.3635 C.3       1 <0>        -0.0515
     10 H3          1.4584    4.5078    2.2545 H         1 <0>         0.1878
     11 H4         -1.3359    4.0287    0.0368 H         1 <0>         0.2290
     12 H5          0.0021   -0.0041    0.0020 H         1 <0>         0.2734
     13 H6          1.2989    6.5735   -0.1001 H         1 <0>         0.1478
     14 H7         -0.1278    5.6939    0.6693 H         1 <0>         0.1449
     15 H8          3.3513    5.9206    2.4516 H         1 <0>         0.4541
     16 H9          3.9416    4.8446    1.3292 H         1 <0>         0.4429
     17 N2          3.2312    5.5521    1.5096 N.4       1 <0>        -0.6192
     18 H10         3.3414    6.3173    0.8339 H         1 <0>         0.4452
     19 N3          1.0361    1.8512    0.0021 N.pl3     1 <0>        -0.4826
     20 H11         2.0115    1.5306   -0.0090 H         1 <0>         0.4836
@<TRIPOS>BOND
     1    1    4 1
     2    1    2 2
     3    1   11 1
     4    2    6 1
     5    2   19 1
     6    3    4 1
     7    3   12 1
     8    3   19 2
     9    4    5 1
    10    6    7 1
    11    6    9 1
    12    6    8 1
    13    8    9 1
    14    8   13 1
    15    8   14 1
    16    9   10 1
    17    9   17 1
    18   15   17 1
    19   16   17 1
    20   17   18 1
    21   19   20 1
@<TRIPOS>MOLECULE
ZINC01892860
   38    40     0     0     0
SMALL
USER_CHARGES

@<TRIPOS>ATOM
      1 C1         -0.0169    1.3962    0.0097 C.ar      1 <0>        -0.0188
      2 C2          1.1625    2.0954    0.0022 C.ar      1 <0>        -0.1651
      3 C3          2.3762    1.4165   -0.0135 C.ar      1 <0>         0.1662
      4 C4          2.4006    0.0259   -0.0212 C.ar      1 <0>        -0.2246
      5 C5          1.2269   -0.6828   -0.0138 C.ar      1 <0>        -0.0273
      6 C6          0.0021   -0.0041    0.0020 C.ar      1 <0>        -0.2066
      7 C7         -1.2581   -0.7581    0.0100 C.2       1 <0>         0.4281
      8 O1         -2.3178   -0.1681    0.0233 O.2       1 <0>        -0.4587
      9 C8         -1.2347   -2.2649    0.0017 C.3       1 <0>        -0.2225
     10 C9         -2.2150   -2.9815   -0.9291 C.3       1 <0>        -0.1476
     11 C10        -2.4480   -2.9935    0.5829 C.3       1 <0>        -0.1501
     12 O2          3.5404    2.1130   -0.0218 O.3       1 <0>        -0.3084
     13 C11         4.7507    1.3535   -0.0378 C.3       1 <0>         0.0562
     14 C12         5.9494    2.3043   -0.0452 C.3       1 <0>        -0.1155
     15 C13         7.2453    1.4912   -0.0624 C.3       1 <0>        -0.0389
     16 C14         8.4259    2.4277   -0.0696 C.2       1 <0>        -0.0275
     17 C15         8.9817    3.0104   -1.1490 C.2       1 <0>        -0.0181
     18 N1         10.0067    3.7674   -0.7302 N.2       1 <0>        -0.4935
     19 C16        10.1072    3.6759    0.5677 C.2       1 <0>         0.1869
     20 N2          9.1358    2.8542    1.0203 N.pl3     1 <0>        -0.5676
     21 H1          8.9728    2.6101    1.9448 H         1 <0>         0.4194
     22 H2         -0.9588    1.9243    0.0260 H         1 <0>         0.1415
     23 H3          1.1490    3.1753    0.0081 H         1 <0>         0.1389
     24 H4          3.3458   -0.4966   -0.0334 H         1 <0>         0.1353
     25 H5          1.2469   -1.7626   -0.0205 H         1 <0>         0.1358
     26 H6         -0.2556   -2.7207    0.1493 H         1 <0>         0.1249
     27 H7         -2.8768   -2.3632   -1.5355 H         1 <0>         0.1023
     28 H8         -1.8808   -3.9090   -1.3942 H         1 <0>         0.1060
     29 H9         -2.2673   -3.9288    1.1127 H         1 <0>         0.1052
     30 H10        -3.2632   -2.3830    0.9714 H         1 <0>         0.1050
     31 H11         4.7943    0.7207    0.8486 H         1 <0>         0.0663
     32 H12         4.7763    0.7297   -0.9313 H         1 <0>         0.0696
     33 H13         5.9057    2.9372   -0.9316 H         1 <0>         0.0830
     34 H14         5.9237    2.9282    0.8483 H         1 <0>         0.0740
     35 H15         7.2889    0.8584    0.8240 H         1 <0>         0.0743
     36 H16         7.2709    0.8673   -0.9558 H         1 <0>         0.0930
     37 H17         8.6588    2.8894   -2.1725 H         1 <0>         0.1696
     38 H18        10.8428    4.1775    1.1790 H         1 <0>         0.2092
@<TRIPOS>BOND
     1    1    6 ar
     2    1    2 ar
     3    1   22 1
     4    2    3 ar
     5    2   23 1
     6    3    4 ar
     7    3   12 1
     8    4    5 ar
     9    4   24 1
    10    5    6 ar
    11    5   25 1
    12    6    7 1
    13    7    8 2
    14    7    9 1
    15    9   11 1
    16    9   10 1
    17    9   26 1
    18   10   11 1
    19   10   27 1
    20   10   28 1
    21   11   29 1
    22   11   30 1
    23   12   13 1
    24   13   14 1
    25   13   31 1
    26   13   32 1
    27   14   15 1
    28   14   33 1
    29   14   34 1
    30   15   16 1
    31   15   35 1
    32   15   36 1
    33   16   20 1
    34   16   17 2
    35   17   18 1
    36   17   37 1
    37   18   19 2
    38   19   20 1
    39   19   38 1
    40   20   21 1
@<TRIPOS>MOLECULE
ZINC01892860
   39    41     0     0     0
SMALL
USER_CHARGES

@<TRIPOS>ATOM
      1 C1         -0.0169    1.3962    0.0097 C.ar      1 <0>        -0.0189
      2 C2          1.1625    2.0954    0.0022 C.ar      1 <0>        -0.1606
      3 C3          2.3762    1.4165   -0.0135 C.ar      1 <0>         0.1572
      4 C4          2.4006    0.0259   -0.0212 C.ar      1 <0>        -0.2224
      5 C5          1.2269   -0.6828   -0.0138 C.ar      1 <0>        -0.0284
      6 C6          0.0021   -0.0041    0.0020 C.ar      1 <0>        -0.1965
      7 C7         -1.2581   -0.7581    0.0100 C.2       1 <0>         0.4253
      8 O1         -2.3178   -0.1681    0.0233 O.2       1 <0>        -0.4527
      9 C8         -1.2347   -2.2649    0.0017 C.3       1 <0>        -0.2245
     10 C9         -2.2150   -2.9815   -0.9291 C.3       1 <0>        -0.1467
     11 C10        -2.4480   -2.9935    0.5829 C.3       1 <0>        -0.1489
     12 O2          3.5404    2.1130   -0.0218 O.3       1 <0>        -0.3105
     13 C11         4.7507    1.3535   -0.0378 C.3       1 <0>         0.0546
     14 C12         5.9494    2.3043   -0.0452 C.3       1 <0>        -0.1206
     15 C13         7.2453    1.4912   -0.0624 C.3       1 <0>        -0.0608
     16 C14         8.4259    2.4277   -0.0696 C.2       1 <0>         0.0335
     17 C15         8.9723    3.0039   -1.1573 C.2       1 <0>         0.0370
     18 N1         10.0150    3.7732   -0.7163 N.pl3     1 <0>        -0.5090
     19 H1         10.6046    4.3131   -1.2656 H         1 <0>         0.4686
     20 C16        10.0696    3.6402    0.6265 C.cat     1 <0>         0.3079
     21 N2          9.1131    2.8380    1.0067 N.pl3     1 <0>        -0.4748
     22 H2         -0.9588    1.9243    0.0260 H         1 <0>         0.1443
     23 H3          1.1490    3.1753    0.0081 H         1 <0>         0.1393
     24 H4          3.3458   -0.4966   -0.0334 H         1 <0>         0.1336
     25 H5          1.2469   -1.7626   -0.0205 H         1 <0>         0.1381
     26 H6         -0.2556   -2.7207    0.1493 H         1 <0>         0.1243
     27 H7         -2.8768   -2.3632   -1.5355 H         1 <0>         0.1031
     28 H8         -1.8808   -3.9090   -1.3942 H         1 <0>         0.1071
     29 H9         -2.2673   -3.9288    1.1127 H         1 <0>         0.1065
     30 H10        -3.2632   -2.3830    0.9714 H         1 <0>         0.1060
     31 H11         4.7943    0.7207    0.8486 H         1 <0>         0.0700
     32 H12         4.7763    0.7297   -0.9313 H         1 <0>         0.0726
     33 H13         5.9057    2.9372   -0.9316 H         1 <0>         0.0877
     34 H14         5.9237    2.9282    0.8483 H         1 <0>         0.0805
     35 H15         7.2889    0.8584    0.8240 H         1 <0>         0.1009
     36 H16         7.2709    0.8673   -0.9558 H         1 <0>         0.1173
     37 H17         8.6499    2.8822   -2.1808 H         1 <0>         0.2275
     38 H18        10.7840    4.1213    1.2782 H         1 <0>         0.2672
     39 H19         8.9293    2.5779    1.9229 H         1 <0>         0.4653
@<TRIPOS>BOND
     1    1    6 ar
     2    1    2 ar
     3    1   22 1
     4    2    3 ar
     5    2   23 1
     6    3    4 ar
     7    3   12 1
     8    4    5 ar
     9    4   24 1
    10    5    6 ar
    11    5   25 1
    12    6    7 1
    13    7    8 2
    14    7    9 1
    15    9   11 1
    16    9   10 1
    17    9   26 1
    18   10   11 1
    19   10   27 1
    20   10   28 1
    21   11   29 1
    22   11   30 1
    23   12   13 1
    24   13   14 1
    25   13   31 1
    26   13   32 1
    27   14   15 1
    28   14   33 1
    29   14   34 1
    30   15   16 1
    31   15   35 1
    32   15   36 1
    33   16   21 1
    34   16   17 2
    35   17   18 1
    36   17   37 1
    37   18   19 1
    38   18   20 1
    39   20   21 2
    40   20   38 1
    41   21   39 1
@<TRIPOS>MOLECULE
ZINC01892860
   39    41     0     0     0
SMALL
USER_CHARGES

@<TRIPOS>ATOM
      1 C1         -0.0169    1.3962    0.0097 C.ar      1 <0>        -0.0189
      2 C2          1.1625    2.0954    0.0022 C.ar      1 <0>        -0.1606
      3 C3          2.3762    1.4165   -0.0135 C.ar      1 <0>         0.1572
      4 C4          2.4006    0.0259   -0.0212 C.ar      1 <0>        -0.2224
      5 C5          1.2269   -0.6828   -0.0138 C.ar      1 <0>        -0.0284
      6 C6          0.0021   -0.0041    0.0020 C.ar      1 <0>        -0.1965
      7 C7         -1.2581   -0.7581    0.0100 C.2       1 <0>         0.4253
      8 O1         -2.3178   -0.1681    0.0233 O.2       1 <0>        -0.4527
      9 C8         -1.2347   -2.2649    0.0017 C.3       1 <0>        -0.2245
     10 C9         -2.2150   -2.9815   -0.9291 C.3       1 <0>        -0.1467
     11 C10        -2.4480   -2.9935    0.5829 C.3       1 <0>        -0.1489
     12 O2          3.5404    2.1130   -0.0218 O.3       1 <0>        -0.3104
     13 C11         4.7507    1.3535   -0.0378 C.3       1 <0>         0.0547
     14 C12         5.9494    2.3043   -0.0452 C.3       1 <0>        -0.1201
     15 C13         7.2453    1.4912   -0.0624 C.3       1 <0>        -0.0608
     16 C14         8.4259    2.4277   -0.0696 C.2       1 <0>         0.0635
     17 N1          9.1358    2.8542    1.0203 N.pl3     1 <0>        -0.5108
     18 C15        10.1053    3.6783    0.5680 C.cat     1 <0>         0.3073
     19 N2         10.0094    3.7640   -0.7306 N.pl3     1 <0>        -0.4727
     20 C16         8.9890    3.0012   -1.1501 C.2       1 <0>         0.0056
     21 H1         -0.9588    1.9243    0.0260 H         1 <0>         0.1443
     22 H2          1.1490    3.1753    0.0081 H         1 <0>         0.1393
     23 H3          3.3458   -0.4966   -0.0334 H         1 <0>         0.1337
     24 H4          1.2469   -1.7626   -0.0205 H         1 <0>         0.1381
     25 H5         -0.2556   -2.7207    0.1493 H         1 <0>         0.1243
     26 H6         -2.8768   -2.3632   -1.5355 H         1 <0>         0.1031
     27 H7         -1.8808   -3.9090   -1.3942 H         1 <0>         0.1071
     28 H8         -2.2673   -3.9288    1.1127 H         1 <0>         0.1065
     29 H9         -3.2632   -2.3830    0.9714 H         1 <0>         0.1060
     30 H10         4.7943    0.7207    0.8486 H         1 <0>         0.0702
     31 H11         4.7763    0.7297   -0.9313 H         1 <0>         0.0727
     32 H12         5.9057    2.9372   -0.9316 H         1 <0>         0.0879
     33 H13         5.9237    2.9282    0.8483 H         1 <0>         0.0810
     34 H14         7.2889    0.8584    0.8240 H         1 <0>         0.1020
     35 H15         7.2709    0.8673   -0.9558 H         1 <0>         0.1186
     36 H16        10.8383    4.1831    1.1797 H         1 <0>         0.2671
     37 H17         8.6728    2.8717   -2.1747 H         1 <0>         0.2253
     38 H18         8.9728    2.6101    1.9448 H         1 <0>         0.4657
     39 H19        10.5871    4.2932   -1.3026 H         1 <0>         0.4682
@<TRIPOS>BOND
     1    1    6 ar
     2    1    2 ar
     3    1   21 1
     4    2    3 ar
     5    2   22 1
     6    3    4 ar
     7    3   12 1
     8    4    5 ar
     9    4   23 1
    10    5    6 ar
    11    5   24 1
    12    6    7 1
    13    7    8 2
    14    7    9 1
    15    9   11 1
    16    9   10 1
    17    9   25 1
    18   10   11 1
    19   10   26 1
    20   10   27 1
    21   11   28 1
    22   11   29 1
    23   12   13 1
    24   13   14 1
    25   13   30 1
    26   13   31 1
    27   14   15 1
    28   14   32 1
    29   14   33 1
    30   15   34 1
    31   15   35 1
    32   15   16 1
    33   16   17 1
    34   16   20 2
    35   17   18 1
    36   17   38 1
    37   18   36 1
    38   18   19 2
    39   19   20 1
    40   19   39 1
    41   20   37 1
@<TRIPOS>MOLECULE
ZINC01892860
   38    40     0     0     0
SMALL
USER_CHARGES

@<TRIPOS>ATOM
      1 C1         -0.0169    1.3962    0.0097 C.ar      1 <0>        -0.0188
      2 C2          1.1625    2.0954    0.0022 C.ar      1 <0>        -0.1665
      3 C3          2.3762    1.4165   -0.0135 C.ar      1 <0>         0.1685
      4 C4          2.4006    0.0259   -0.0212 C.ar      1 <0>        -0.2252
      5 C5          1.2269   -0.6828   -0.0138 C.ar      1 <0>        -0.0271
      6 C6          0.0021   -0.0041    0.0020 C.ar      1 <0>        -0.2089
      7 C7         -1.2581   -0.7581    0.0100 C.2       1 <0>         0.4286
      8 O1         -2.3178   -0.1681    0.0233 O.2       1 <0>        -0.4599
      9 C8         -1.2347   -2.2649    0.0017 C.3       1 <0>        -0.2221
     10 C9         -2.2150   -2.9815   -0.9291 C.3       1 <0>        -0.1479
     11 C10        -2.4480   -2.9935    0.5829 C.3       1 <0>        -0.1503
     12 O2          3.5404    2.1130   -0.0218 O.3       1 <0>        -0.3077
     13 C11         4.7507    1.3535   -0.0378 C.3       1 <0>         0.0561
     14 C12         5.9494    2.3043   -0.0452 C.3       1 <0>        -0.1106
     15 C13         7.2453    1.4912   -0.0624 C.3       1 <0>        -0.0289
     16 C14         8.4259    2.4277   -0.0696 C.2       1 <0>         0.0011
     17 N1          8.6474    3.4100   -0.9557 N.2       1 <0>        -0.4885
     18 C15         9.7636    4.0161   -0.6562 C.2       1 <0>         0.1872
     19 N2         10.2924    3.4325    0.4408 N.pl3     1 <0>        -0.5707
     20 C16         9.4406    2.4288    0.8158 C.2       1 <0>        -0.0525
     21 H1         -0.9588    1.9243    0.0260 H         1 <0>         0.1408
     22 H2          1.1490    3.1753    0.0081 H         1 <0>         0.1386
     23 H3          3.3458   -0.4966   -0.0334 H         1 <0>         0.1357
     24 H4          1.2469   -1.7626   -0.0205 H         1 <0>         0.1352
     25 H5         -0.2556   -2.7207    0.1493 H         1 <0>         0.1250
     26 H6         -2.8768   -2.3632   -1.5355 H         1 <0>         0.1020
     27 H7         -1.8808   -3.9090   -1.3942 H         1 <0>         0.1058
     28 H8         -2.2673   -3.9288    1.1127 H         1 <0>         0.1049
     29 H9         -3.2632   -2.3830    0.9714 H         1 <0>         0.1048
     30 H10         4.7943    0.7207    0.8486 H         1 <0>         0.0657
     31 H11         4.7763    0.7297   -0.9313 H         1 <0>         0.0671
     32 H12         5.9057    2.9372   -0.9316 H         1 <0>         0.0836
     33 H13         5.9237    2.9282    0.8483 H         1 <0>         0.0726
     34 H14         7.2889    0.8584    0.8240 H         1 <0>         0.0774
     35 H15         7.2709    0.8673   -0.9558 H         1 <0>         0.0781
     36 H16        10.1934    4.8467   -1.1965 H         1 <0>         0.2087
     37 H17         9.5602    1.7642    1.6587 H         1 <0>         0.1764
     38 H18        11.1196    3.6805    0.8825 H         1 <0>         0.4217
@<TRIPOS>BOND
     1    1    6 ar
     2    1    2 ar
     3    1   21 1
     4    2    3 ar
     5    2   22 1
     6    3    4 ar
     7    3   12 1
     8    4    5 ar
     9    4   23 1
    10    5    6 ar
    11    5   24 1
    12    6    7 1
    13    7    8 2
    14    7    9 1
    15    9   11 1
    16    9   10 1
    17    9   25 1
    18   10   11 1
    19   10   26 1
    20   10   27 1
    21   11   28 1
    22   11   29 1
    23   12   13 1
    24   13   14 1
    25   13   30 1
    26   13   31 1
    27   14   15 1
    28   14   32 1
    29   14   33 1
    30   15   34 1
    31   15   35 1
    32   15   16 1
    33   16   17 1
    34   16   20 2
    35   17   18 2
    36   18   36 1
    37   18   19 1
    38   19   20 1
    39   19   38 1
    40   20   37 1
@<TRIPOS>MOLECULE
ZINC14951170
   39    40     0     0     0
SMALL
USER_CHARGES

@<TRIPOS>ATOM
      1 C1         -0.0167    1.3782    0.0096 C.ar      1 <0>        -0.0763
      2 C2          1.1706    2.0858    0.0021 C.ar      1 <0>        -0.1096
      3 C3          2.3780    1.4104   -0.0130 C.ar      1 <0>        -0.0066
      4 C4          2.3961    0.0270   -0.0206 C.ar      1 <0>        -0.1095
      5 C5          1.2082   -0.6795   -0.0130 C.ar      1 <0>        -0.0760
      6 C6          0.0021   -0.0041    0.0020 C.ar      1 <0>        -0.1499
      7 C7         -1.2928   -0.7750    0.0107 C.3       1 <0>         0.1275
      8 N1         -1.7261   -1.0173   -1.3676 N.pl3     1 <0>        -0.5917
      9 C8         -2.8302   -1.6720   -1.5986 C.cat     1 <0>         0.4623
     10 N2         -3.2371   -1.8996   -2.8928 N.pl3     1 <0>        -0.8007
     11 S1         -3.8008   -2.2649   -0.2528 S.3       1 <0>         0.0840
     12 C9         -5.2034   -3.0908   -1.0536 C.3       1 <0>        -0.1548
     13 C10        -6.1386   -3.6595    0.0155 C.3       1 <0>        -0.1084
     14 C11        -7.3215   -4.3561   -0.6600 C.3       1 <0>        -0.0544
     15 C12        -8.2426   -4.9162    0.3930 C.2       1 <0>         0.0191
     16 C13        -8.1105   -6.1072    1.0077 C.2       1 <0>         0.0438
     17 N3         -9.1543   -6.2174    1.8862 N.pl3     1 <0>        -0.5082
     18 C14        -9.8885   -5.0892    1.7779 C.cat     1 <0>         0.3182
     19 N4         -9.3345   -4.3135    0.8866 N.pl3     1 <0>        -0.4762
     20 H1         -9.3333   -6.9661    2.4765 H         1 <0>         0.4716
     21 Cl1         3.8696    2.2984   -0.0231 Cl        1 <0>        -0.0368
     22 H2         -0.9592    1.9053    0.0259 H         1 <0>         0.1385
     23 H3          1.1558    3.1656    0.0076 H         1 <0>         0.1466
     24 H4          3.3383   -0.5007   -0.0327 H         1 <0>         0.1467
     25 H5          1.2222   -1.7594   -0.0193 H         1 <0>         0.1387
     26 H6         -1.1447   -1.7283    0.5180 H         1 <0>         0.1228
     27 H7         -2.0551   -0.1989    0.5352 H         1 <0>         0.1224
     28 H8         -2.7028   -1.5732   -3.6337 H         1 <0>         0.4322
     29 H9         -4.0583   -2.3865   -3.0646 H         1 <0>         0.4353
     30 H10        -5.7469   -2.3716   -1.6664 H         1 <0>         0.1184
     31 H11        -4.8365   -3.9011   -1.6837 H         1 <0>         0.1208
     32 H12        -5.5951   -4.3787    0.6283 H         1 <0>         0.0974
     33 H13        -6.5055   -2.8492    0.6455 H         1 <0>         0.0904
     34 H14        -7.8650   -3.6369   -1.2728 H         1 <0>         0.1042
     35 H15        -6.9546   -5.1663   -1.2900 H         1 <0>         0.1200
     36 H16        -7.3310   -6.8355    0.8394 H         1 <0>         0.2277
     37 H17       -10.7836   -4.8643    2.3388 H         1 <0>         0.2697
     38 H18        -1.1917   -0.6909   -2.1085 H         1 <0>         0.4350
     39 H19        -9.6617   -3.4397    0.6215 H         1 <0>         0.4658
@<TRIPOS>BOND
     1    1    6 ar
     2    1    2 ar
     3    1   22 1
     4    2    3 ar
     5    2   23 1
     6    3    4 ar
     7    3   21 1
     8    4    5 ar
     9    4   24 1
    10    5    6 ar
    11    5   25 1
    12    6    7 1
    13    7    8 1
    14    7   26 1
    15    7   27 1
    16    8    9 2
    17    8   38 1
    18    9   10 1
    19    9   11 1
    20   10   28 1
    21   10   29 1
    22   11   12 1
    23   12   13 1
    24   12   30 1
    25   12   31 1
    26   13   14 1
    27   13   32 1
    28   13   33 1
    29   14   34 1
    30   14   35 1
    31   14   15 1
    32   15   19 1
    33   15   16 2
    34   16   36 1
    35   16   17 1
    36   17   18 1
    37   17   20 1
    38   18   37 1
    39   18   19 2
    40   19   39 1
@<TRIPOS>MOLECULE
ZINC14951170
   38    39     0     0     0
SMALL
USER_CHARGES

@<TRIPOS>ATOM
      1 C1         -0.0167    1.3782    0.0096 C.ar      1 <0>        -0.0773
      2 C2          1.1706    2.0858    0.0021 C.ar      1 <0>        -0.1097
      3 C3          2.3780    1.4104   -0.0130 C.ar      1 <0>        -0.0104
      4 C4          2.3961    0.0270   -0.0206 C.ar      1 <0>        -0.1099
      5 C5          1.2082   -0.6795   -0.0130 C.ar      1 <0>        -0.0775
      6 C6          0.0021   -0.0041    0.0020 C.ar      1 <0>        -0.1381
      7 C7         -1.2928   -0.7750    0.0107 C.3       1 <0>         0.1298
      8 N1         -1.7261   -1.0173   -1.3676 N.pl3     1 <0>        -0.6435
      9 C8         -2.8907   -1.7079   -1.6112 C.cat     1 <0>         0.4683
     10 N2         -3.6091   -2.1467   -0.6150 N.pl3     1 <0>        -0.7533
     11 S1         -3.4118   -1.9994   -3.2689 S.3       1 <0>         0.0755
     12 C9         -4.9616   -2.9240   -3.0856 C.3       1 <0>        -0.1439
     13 C10        -5.5297   -3.2466   -4.4691 C.3       1 <0>        -0.0992
     14 C11        -6.8370   -4.0265   -4.3145 C.3       1 <0>        -0.0205
     15 C12        -7.3965   -4.3443   -5.6772 C.2       1 <0>        -0.0136
     16 C13        -7.7232   -5.5687   -6.1327 C.2       1 <0>        -0.0442
     17 N3         -8.1905   -5.4049   -7.4088 N.pl3     1 <0>        -0.5673
     18 H1         -8.5043   -6.1060   -8.0012 H         1 <0>         0.4255
     19 C14        -8.1331   -4.0851   -7.6889 C.2       1 <0>         0.1946
     20 N4         -7.6619   -3.4564   -6.6469 N.2       1 <0>        -0.4919
     21 Cl1         3.8696    2.2984   -0.0231 Cl        1 <0>        -0.0438
     22 H2         -0.9592    1.9053    0.0259 H         1 <0>         0.1380
     23 H3          1.1558    3.1656    0.0076 H         1 <0>         0.1447
     24 H4          3.3383   -0.5007   -0.0327 H         1 <0>         0.1446
     25 H5          1.2222   -1.7594   -0.0193 H         1 <0>         0.1377
     26 H6         -1.1447   -1.7283    0.5180 H         1 <0>         0.1053
     27 H7         -2.0551   -0.1989    0.5352 H         1 <0>         0.1054
     28 H8         -1.1917   -0.6909   -2.1085 H         1 <0>         0.4436
     29 H9         -4.4303   -2.6336   -0.7868 H         1 <0>         0.4414
     30 H10        -4.7697   -3.8516   -2.5463 H         1 <0>         0.1142
     31 H11        -5.6801   -2.3222   -2.5291 H         1 <0>         0.1154
     32 H12        -5.7217   -2.3190   -5.0084 H         1 <0>         0.0945
     33 H13        -4.8113   -3.8485   -5.0256 H         1 <0>         0.0841
     34 H14        -6.6450   -4.9541   -3.7752 H         1 <0>         0.0812
     35 H15        -7.5554   -3.4247   -3.7580 H         1 <0>         0.0815
     36 H16        -7.6334   -6.5009   -5.5946 H         1 <0>         0.1772
     37 H17        -8.4315   -3.6256   -8.6195 H         1 <0>         0.2111
     38 H18        -3.3223   -1.9862    0.2976 H         1 <0>         0.4303
@<TRIPOS>BOND
     1    1    6 ar
     2    1    2 ar
     3    1   22 1
     4    2    3 ar
     5    2   23 1
     6    3    4 ar
     7    3   21 1
     8    4    5 ar
     9    4   24 1
    10    5    6 ar
    11    5   25 1
    12    6    7 1
    13    7    8 1
    14    7   26 1
    15    7   27 1
    16    8    9 1
    17    8   28 1
    18    9   10 2
    19    9   11 1
    20   10   29 1
    21   10   38 1
    22   11   12 1
    23   12   13 1
    24   12   30 1
    25   12   31 1
    26   13   14 1
    27   13   32 1
    28   13   33 1
    29   14   15 1
    30   14   34 1
    31   14   35 1
    32   15   20 1
    33   15   16 2
    34   16   17 1
    35   16   36 1
    36   17   18 1
    37   17   19 1
    38   19   20 2
    39   19   37 1
@<TRIPOS>MOLECULE
ZINC14951170
   38    39     0     0     0
SMALL
USER_CHARGES

@<TRIPOS>ATOM
      1 C1         -0.0167    1.3782    0.0096 C.ar      1 <0>        -0.0770
      2 C2          1.1706    2.0858    0.0021 C.ar      1 <0>        -0.1104
      3 C3          2.3780    1.4104   -0.0130 C.ar      1 <0>        -0.0098
      4 C4          2.3961    0.0270   -0.0206 C.ar      1 <0>        -0.1102
      5 C5          1.2082   -0.6795   -0.0130 C.ar      1 <0>        -0.0766
      6 C6          0.0021   -0.0041    0.0020 C.ar      1 <0>        -0.1423
      7 C7         -1.2928   -0.7750    0.0107 C.3       1 <0>         0.1279
      8 N1         -1.7261   -1.0173   -1.3676 N.pl3     1 <0>        -0.6001
      9 C8         -2.8302   -1.6720   -1.5986 C.cat     1 <0>         0.4596
     10 N2         -3.2371   -1.8996   -2.8928 N.pl3     1 <0>        -0.8019
     11 S1         -3.8008   -2.2649   -0.2528 S.3       1 <0>         0.0819
     12 C9         -5.2034   -3.0908   -1.0536 C.3       1 <0>        -0.1446
     13 C10        -6.1386   -3.6595    0.0155 C.3       1 <0>        -0.0993
     14 C11        -7.3215   -4.3561   -0.6600 C.3       1 <0>        -0.0210
     15 C12        -8.2426   -4.9162    0.3930 C.2       1 <0>        -0.0131
     16 C13        -9.5614   -4.6673    0.5044 C.2       1 <0>        -0.0445
     17 N3        -10.0073   -5.3726    1.5895 N.pl3     1 <0>        -0.5673
     18 C14        -8.9447   -6.0283    2.1038 C.2       1 <0>         0.1943
     19 N4         -7.8938   -5.7546    1.3802 N.2       1 <0>        -0.4919
     20 H1        -10.9167   -5.3968    1.9261 H         1 <0>         0.4254
     21 Cl1         3.8696    2.2984   -0.0231 Cl        1 <0>        -0.0434
     22 H2         -0.9592    1.9053    0.0259 H         1 <0>         0.1391
     23 H3          1.1558    3.1656    0.0076 H         1 <0>         0.1449
     24 H4          3.3383   -0.5007   -0.0327 H         1 <0>         0.1450
     25 H5          1.2222   -1.7594   -0.0193 H         1 <0>         0.1394
     26 H6         -1.1447   -1.7283    0.5180 H         1 <0>         0.1222
     27 H7         -2.0551   -0.1989    0.5352 H         1 <0>         0.1217
     28 H8         -2.7028   -1.5732   -3.6337 H         1 <0>         0.4278
     29 H9         -4.0583   -2.3865   -3.0646 H         1 <0>         0.4373
     30 H10        -5.7469   -2.3716   -1.6664 H         1 <0>         0.1138
     31 H11        -4.8365   -3.9011   -1.6837 H         1 <0>         0.1150
     32 H12        -5.5951   -4.3787    0.6283 H         1 <0>         0.0936
     33 H13        -6.5055   -2.8492    0.6455 H         1 <0>         0.0831
     34 H14        -7.8650   -3.6369   -1.2728 H         1 <0>         0.0811
     35 H15        -6.9546   -5.1663   -1.2900 H         1 <0>         0.0813
     36 H16       -10.1534   -4.0330   -0.1387 H         1 <0>         0.1771
     37 H17        -8.9625   -6.6754    2.9684 H         1 <0>         0.2110
     38 H18        -1.1917   -0.6909   -2.1085 H         1 <0>         0.4308
@<TRIPOS>BOND
     1    1    6 ar
     2    1    2 ar
     3    1   22 1
     4    2    3 ar
     5    2   23 1
     6    3    4 ar
     7    3   21 1
     8    4    5 ar
     9    4   24 1
    10    5    6 ar
    11    5   25 1
    12    6    7 1
    13    7    8 1
    14    7   26 1
    15    7   27 1
    16    8    9 2
    17    8   38 1
    18    9   10 1
    19    9   11 1
    20   10   28 1
    21   10   29 1
    22   11   12 1
    23   12   13 1
    24   12   30 1
    25   12   31 1
    26   13   14 1
    27   13   32 1
    28   13   33 1
    29   14   34 1
    30   14   35 1
    31   14   15 1
    32   15   19 1
    33   15   16 2
    34   16   36 1
    35   16   17 1
    36   17   18 1
    37   17   20 1
    38   18   37 1
    39   18   19 2
@<TRIPOS>MOLECULE
ZINC14951170
   38    39     0     0     0
SMALL
USER_CHARGES

@<TRIPOS>ATOM
      1 C1         -0.0167    1.3782    0.0096 C.ar      1 <0>        -0.0764
      2 C2          1.1706    2.0858    0.0021 C.ar      1 <0>        -0.1092
      3 C3          2.3780    1.4104   -0.0130 C.ar      1 <0>        -0.0085
      4 C4          2.3961    0.0270   -0.0206 C.ar      1 <0>        -0.1094
      5 C5          1.2082   -0.6795   -0.0130 C.ar      1 <0>        -0.0767
      6 C6          0.0021   -0.0041    0.0020 C.ar      1 <0>        -0.1442
      7 C7         -1.2928   -0.7750    0.0107 C.3       1 <0>         0.1192
      8 N1         -1.7261   -1.0173   -1.3676 N.pl3     1 <0>        -0.5973
      9 C8         -2.8302   -1.6720   -1.5986 C.cat     1 <0>         0.4675
     10 N2         -3.5880   -2.1349   -0.5479 N.pl3     1 <0>        -0.7982
     11 S1         -3.3513   -1.9636   -3.2563 S.3       1 <0>         0.0686
     12 C9         -4.9012   -2.8882   -3.0730 C.3       1 <0>        -0.1398
     13 C10        -5.4693   -3.2108   -4.4565 C.3       1 <0>        -0.1052
     14 C11        -6.7765   -3.9907   -4.3018 C.3       1 <0>        -0.0310
     15 C12        -7.3361   -4.3084   -5.6645 C.2       1 <0>        -0.0447
     16 C13        -8.1073   -3.5059   -6.4227 C.2       1 <0>        -0.0093
     17 N3         -8.3925   -4.1579   -7.5597 N.2       1 <0>        -0.4916
     18 C14        -7.8274   -5.3339   -7.5348 C.2       1 <0>         0.1983
     19 N4         -7.1533   -5.4659   -6.3720 N.pl3     1 <0>        -0.5676
     20 Cl1         3.8696    2.2984   -0.0231 Cl        1 <0>        -0.0414
     21 H1         -0.9592    1.9053    0.0259 H         1 <0>         0.1387
     22 H2          1.1558    3.1656    0.0076 H         1 <0>         0.1458
     23 H3          3.3383   -0.5007   -0.0327 H         1 <0>         0.1456
     24 H4          1.2222   -1.7594   -0.0193 H         1 <0>         0.1383
     25 H5         -1.1447   -1.7283    0.5180 H         1 <0>         0.1145
     26 H6         -2.0551   -0.1989    0.5352 H         1 <0>         0.1149
     27 H7         -3.3011   -1.9744    0.3647 H         1 <0>         0.4281
     28 H8         -4.4092   -2.6218   -0.7196 H         1 <0>         0.4372
     29 H9         -4.7093   -3.8158   -2.5337 H         1 <0>         0.1148
     30 H10        -5.6197   -2.2864   -2.5165 H         1 <0>         0.1179
     31 H11        -5.6612   -2.2832   -4.9958 H         1 <0>         0.0930
     32 H12        -4.7508   -3.8126   -5.0130 H         1 <0>         0.0843
     33 H13        -6.5846   -4.9183   -3.7625 H         1 <0>         0.0781
     34 H14        -7.4950   -3.3888   -3.7453 H         1 <0>         0.0962
     35 H15        -8.4381   -2.5117   -6.1612 H         1 <0>         0.1699
     36 H16        -7.8857   -6.0770   -8.3164 H         1 <0>         0.2122
     37 H17        -1.1917   -0.6909   -2.1085 H         1 <0>         0.4474
     38 H18        -6.6377   -6.2375   -6.0900 H         1 <0>         0.4200
@<TRIPOS>BOND
     1    1    6 ar
     2    1    2 ar
     3    1   21 1
     4    2    3 ar
     5    2   22 1
     6    3    4 ar
     7    3   20 1
     8    4    5 ar
     9    4   23 1
    10    5    6 ar
    11    5   24 1
    12    6    7 1
    13    7    8 1
    14    7   25 1
    15    7   26 1
    16    8    9 2
    17    8   37 1
    18    9   10 1
    19    9   11 1
    20   10   27 1
    21   10   28 1
    22   11   12 1
    23   12   13 1
    24   12   29 1
    25   12   30 1
    26   13   14 1
    27   13   31 1
    28   13   32 1
    29   14   33 1
    30   14   34 1
    31   14   15 1
    32   15   19 1
    33   15   16 2
    34   16   35 1
    35   16   17 1
    36   17   18 2
    37   18   36 1
    38   18   19 1
    39   19   38 1
@<TRIPOS>MOLECULE
ZINC14951170
   38    39     0     0     0
SMALL
USER_CHARGES

@<TRIPOS>ATOM
      1 C1         -0.0167    1.3782    0.0096 C.ar      1 <0>        -0.0766
      2 C2          1.1706    2.0858    0.0021 C.ar      1 <0>        -0.1093
      3 C3          2.3780    1.4104   -0.0130 C.ar      1 <0>        -0.0090
      4 C4          2.3961    0.0270   -0.0206 C.ar      1 <0>        -0.1095
      5 C5          1.2082   -0.6795   -0.0130 C.ar      1 <0>        -0.0768
      6 C6          0.0021   -0.0041    0.0020 C.ar      1 <0>        -0.1431
      7 C7         -1.2928   -0.7750    0.0107 C.3       1 <0>         0.1194
      8 N1         -1.7261   -1.0173   -1.3676 N.pl3     1 <0>        -0.5991
      9 C8         -2.8302   -1.6720   -1.5986 C.cat     1 <0>         0.4669
     10 N2         -3.5880   -2.1349   -0.5479 N.pl3     1 <0>        -0.7986
     11 S1         -3.3513   -1.9636   -3.2563 S.3       1 <0>         0.0683
     12 C9         -4.9012   -2.8882   -3.0730 C.3       1 <0>        -0.1379
     13 C10        -5.4693   -3.2108   -4.4565 C.3       1 <0>        -0.1002
     14 C11        -6.7765   -3.9907   -4.3018 C.3       1 <0>        -0.0206
     15 C12        -7.3361   -4.3084   -5.6645 C.2       1 <0>        -0.0132
     16 C13        -7.6628   -5.5329   -6.1200 C.2       1 <0>        -0.0445
     17 N3         -8.1301   -5.3691   -7.3961 N.pl3     1 <0>        -0.5673
     18 C14        -8.0727   -4.0493   -7.6762 C.2       1 <0>         0.1943
     19 N4         -7.6015   -3.4206   -6.6342 N.2       1 <0>        -0.4919
     20 H1         -8.4439   -6.0701   -7.9886 H         1 <0>         0.4255
     21 Cl1         3.8696    2.2984   -0.0231 Cl        1 <0>        -0.0423
     22 H2         -0.9592    1.9053    0.0259 H         1 <0>         0.1387
     23 H3          1.1558    3.1656    0.0076 H         1 <0>         0.1455
     24 H4          3.3383   -0.5007   -0.0327 H         1 <0>         0.1453
     25 H5          1.2222   -1.7594   -0.0193 H         1 <0>         0.1384
     26 H6         -1.1447   -1.7283    0.5180 H         1 <0>         0.1140
     27 H7         -2.0551   -0.1989    0.5352 H         1 <0>         0.1141
     28 H8         -3.3011   -1.9744    0.3647 H         1 <0>         0.4272
     29 H9         -4.4092   -2.6218   -0.7196 H         1 <0>         0.4375
     30 H10        -4.7093   -3.8158   -2.5337 H         1 <0>         0.1142
     31 H11        -5.6197   -2.2864   -2.5165 H         1 <0>         0.1154
     32 H12        -5.6612   -2.2832   -4.9958 H         1 <0>         0.0938
     33 H13        -4.7508   -3.8126   -5.0130 H         1 <0>         0.0833
     34 H14        -6.5846   -4.9183   -3.7625 H         1 <0>         0.0812
     35 H15        -7.4950   -3.3888   -3.7453 H         1 <0>         0.0815
     36 H16        -7.5730   -6.4650   -5.5820 H         1 <0>         0.1771
     37 H17        -8.3711   -3.5898   -8.6069 H         1 <0>         0.2111
     38 H18        -1.1917   -0.6909   -2.1085 H         1 <0>         0.4471
@<TRIPOS>BOND
     1    1    6 ar
     2    1    2 ar
     3    1   22 1
     4    2    3 ar
     5    2   23 1
     6    3    4 ar
     7    3   21 1
     8    4    5 ar
     9    4   24 1
    10    5    6 ar
    11    5   25 1
    12    6    7 1
    13    7    8 1
    14    7   26 1
    15    7   27 1
    16    8    9 2
    17    8   38 1
    18    9   10 1
    19    9   11 1
    20   10   28 1
    21   10   29 1
    22   11   12 1
    23   12   13 1
    24   12   30 1
    25   12   31 1
    26   13   14 1
    27   13   32 1
    28   13   33 1
    29   14   34 1
    30   14   35 1
    31   14   15 1
    32   15   19 1
    33   15   16 2
    34   16   36 1
    35   16   17 1
    36   17   18 1
    37   17   20 1
    38   18   37 1
    39   18   19 2
@<TRIPOS>MOLECULE
ZINC14951170
   38    39     0     0     0
SMALL
USER_CHARGES

@<TRIPOS>ATOM
      1 C1         -0.0167    1.3782    0.0096 C.ar      1 <0>        -0.0769
      2 C2          1.1706    2.0858    0.0021 C.ar      1 <0>        -0.1102
      3 C3          2.3780    1.4104   -0.0130 C.ar      1 <0>        -0.0092
      4 C4          2.3961    0.0270   -0.0206 C.ar      1 <0>        -0.1100
      5 C5          1.2082   -0.6795   -0.0130 C.ar      1 <0>        -0.0764
      6 C6          0.0021   -0.0041    0.0020 C.ar      1 <0>        -0.1435
      7 C7         -1.2928   -0.7750    0.0107 C.3       1 <0>         0.1276
      8 N1         -1.7261   -1.0173   -1.3676 N.pl3     1 <0>        -0.5983
      9 C8         -2.8302   -1.6720   -1.5986 C.cat     1 <0>         0.4603
     10 N2         -3.2371   -1.8996   -2.8928 N.pl3     1 <0>        -0.8016
     11 S1         -3.8008   -2.2649   -0.2528 S.3       1 <0>         0.0825
     12 C9         -5.2034   -3.0908   -1.0536 C.3       1 <0>        -0.1465
     13 C10        -6.1386   -3.6595    0.0155 C.3       1 <0>        -0.1043
     14 C11        -7.3215   -4.3561   -0.6600 C.3       1 <0>        -0.0313
     15 C12        -8.2426   -4.9162    0.3930 C.2       1 <0>        -0.0446
     16 C13        -8.1222   -6.1045    1.0152 C.2       1 <0>        -0.0094
     17 N3         -9.1407   -6.2256    1.8794 N.2       1 <0>        -0.4917
     18 C14        -9.8878   -5.1574    1.8165 C.2       1 <0>         0.1982
     19 N4         -9.3592   -4.3124    0.9053 N.pl3     1 <0>        -0.5675
     20 Cl1         3.8696    2.2984   -0.0231 Cl        1 <0>        -0.0424
     21 H1         -0.9592    1.9053    0.0259 H         1 <0>         0.1390
     22 H2          1.1558    3.1656    0.0076 H         1 <0>         0.1451
     23 H3          3.3383   -0.5007   -0.0327 H         1 <0>         0.1454
     24 H4          1.2222   -1.7594   -0.0193 H         1 <0>         0.1394
     25 H5         -1.1447   -1.7283    0.5180 H         1 <0>         0.1225
     26 H6         -2.0551   -0.1989    0.5352 H         1 <0>         0.1219
     27 H7         -2.7028   -1.5732   -3.6337 H         1 <0>         0.4287
     28 H8         -4.0583   -2.3865   -3.0646 H         1 <0>         0.4370
     29 H9         -5.7469   -2.3716   -1.6664 H         1 <0>         0.1144
     30 H10        -4.8365   -3.9011   -1.6837 H         1 <0>         0.1175
     31 H11        -5.5951   -4.3787    0.6283 H         1 <0>         0.0928
     32 H12        -6.5055   -2.8492    0.6455 H         1 <0>         0.0841
     33 H13        -7.8650   -3.6369   -1.2728 H         1 <0>         0.0780
     34 H14        -6.9546   -5.1663   -1.2900 H         1 <0>         0.0961
     35 H15        -7.3421   -6.8324    0.8476 H         1 <0>         0.1699
     36 H16       -10.7789   -4.9773    2.3995 H         1 <0>         0.2121
     37 H17        -1.1917   -0.6909   -2.1085 H         1 <0>         0.4316
     38 H18        -9.7070   -3.4413    0.6583 H         1 <0>         0.4200
@<TRIPOS>BOND
     1    1    6 ar
     2    1    2 ar
     3    1   21 1
     4    2    3 ar
     5    2   22 1
     6    3    4 ar
     7    3   20 1
     8    4    5 ar
     9    4   23 1
    10    5    6 ar
    11    5   24 1
    12    6    7 1
    13    7    8 1
    14    7   25 1
    15    7   26 1
    16    8    9 2
    17    8   37 1
    18    9   10 1
    19    9   11 1
    20   10   27 1
    21   10   28 1
    22   11   12 1
    23   12   13 1
    24   12   29 1
    25   12   30 1
    26   13   14 1
    27   13   31 1
    28   13   32 1
    29   14   33 1
    30   14   34 1
    31   14   15 1
    32   15   19 1
    33   15   16 2
    34   16   35 1
    35   16   17 1
    36   17   18 2
    37   18   36 1
    38   18   19 1
    39   19   38 1
@<TRIPOS>MOLECULE
ZINC14951170
   38    39     0     0     0
SMALL
USER_CHARGES

@<TRIPOS>ATOM
      1 C1         -0.0167    1.3782    0.0096 C.ar      1 <0>        -0.0772
      2 C2          1.1706    2.0858    0.0021 C.ar      1 <0>        -0.1096
      3 C3          2.3780    1.4104   -0.0130 C.ar      1 <0>        -0.0099
      4 C4          2.3961    0.0270   -0.0206 C.ar      1 <0>        -0.1098
      5 C5          1.2082   -0.6795   -0.0130 C.ar      1 <0>        -0.0774
      6 C6          0.0021   -0.0041    0.0020 C.ar      1 <0>        -0.1391
      7 C7         -1.2928   -0.7750    0.0107 C.3       1 <0>         0.1296
      8 N1         -1.7261   -1.0173   -1.3676 N.pl3     1 <0>        -0.6417
      9 C8         -2.8907   -1.7079   -1.6112 C.cat     1 <0>         0.4690
     10 N2         -3.6091   -2.1467   -0.6150 N.pl3     1 <0>        -0.7529
     11 S1         -3.4118   -1.9994   -3.2689 S.3       1 <0>         0.0759
     12 C9         -4.9616   -2.9240   -3.0856 C.3       1 <0>        -0.1458
     13 C10        -5.5297   -3.2466   -4.4691 C.3       1 <0>        -0.1042
     14 C11        -6.8370   -4.0265   -4.3145 C.3       1 <0>        -0.0308
     15 C12        -7.3965   -4.3443   -5.6772 C.2       1 <0>        -0.0452
     16 C13        -8.1677   -3.5418   -6.4354 C.2       1 <0>        -0.0089
     17 N3         -8.4529   -4.1938   -7.5723 N.2       1 <0>        -0.4916
     18 C14        -7.8878   -5.3698   -7.5474 C.2       1 <0>         0.1986
     19 N4         -7.2137   -5.5017   -6.3847 N.pl3     1 <0>        -0.5675
     20 Cl1         3.8696    2.2984   -0.0231 Cl        1 <0>        -0.0429
     21 H1         -0.9592    1.9053    0.0259 H         1 <0>         0.1380
     22 H2          1.1558    3.1656    0.0076 H         1 <0>         0.1450
     23 H3          3.3383   -0.5007   -0.0327 H         1 <0>         0.1448
     24 H4          1.2222   -1.7594   -0.0193 H         1 <0>         0.1376
     25 H5         -1.1447   -1.7283    0.5180 H         1 <0>         0.1058
     26 H6         -2.0551   -0.1989    0.5352 H         1 <0>         0.1061
     27 H7         -1.1917   -0.6909   -2.1085 H         1 <0>         0.4440
     28 H8         -4.4303   -2.6336   -0.7868 H         1 <0>         0.4411
     29 H9         -4.7697   -3.8516   -2.5463 H         1 <0>         0.1147
     30 H10        -5.6801   -2.3222   -2.5291 H         1 <0>         0.1178
     31 H11        -5.7217   -2.3190   -5.0084 H         1 <0>         0.0937
     32 H12        -4.8113   -3.8485   -5.0256 H         1 <0>         0.0850
     33 H13        -6.6450   -4.9541   -3.7752 H         1 <0>         0.0781
     34 H14        -7.5554   -3.4247   -3.7580 H         1 <0>         0.0962
     35 H15        -8.4985   -2.5475   -6.1738 H         1 <0>         0.1700
     36 H16        -7.9461   -6.1128   -8.3290 H         1 <0>         0.2123
     37 H17        -3.3223   -1.9862    0.2976 H         1 <0>         0.4312
     38 H18        -6.6981   -6.2734   -6.1026 H         1 <0>         0.4201
@<TRIPOS>BOND
     1    1    6 ar
     2    1    2 ar
     3    1   21 1
     4    2    3 ar
     5    2   22 1
     6    3    4 ar
     7    3   20 1
     8    4    5 ar
     9    4   23 1
    10    5    6 ar
    11    5   24 1
    12    6    7 1
    13    7    8 1
    14    7   25 1
    15    7   26 1
    16    8    9 1
    17    8   27 1
    18    9   10 2
    19    9   11 1
    20   10   28 1
    21   10   37 1
    22   11   12 1
    23   12   13 1
    24   12   29 1
    25   12   30 1
    26   13   14 1
    27   13   31 1
    28   13   32 1
    29   14   15 1
    30   14   33 1
    31   14   34 1
    32   15   19 1
    33   15   16 2
    34   16   17 1
    35   16   35 1
    36   17   18 2
    37   18   19 1
    38   18   36 1
    39   19   38 1
@<TRIPOS>MOLECULE
ZINC13795220
   23    23     0     0     0
SMALL
USER_CHARGES
4-hex-3-ynyl-1H-imidazole
@<TRIPOS>ATOM
      1 C1          2.9778   -6.8232   -1.3704 C.3       1 <0>        -0.1484
      2 C2          4.1558   -5.8541   -1.2508 C.3       1 <0>        -0.0108
      3 C3          3.6536   -4.4705   -1.2385 C.1       1 <0>        -0.1917
      4 C4          3.2530   -3.3670   -1.2288 C.1       1 <0>        -0.1839
      5 C5          2.7508   -1.9833   -1.2166 C.3       1 <0>         0.0028
      6 C6          1.8104   -1.7926   -0.0249 C.3       1 <0>        -0.0270
      7 C7          1.2963   -0.3761   -0.0123 C.2       1 <0>        -0.0001
      8 C8          0.0021   -0.0041    0.0020 C.2       1 <0>        -0.0520
      9 N1         -0.0165    1.3646    0.0095 N.pl3     1 <0>        -0.5740
     10 H1         -0.8294    1.9469    0.0204 H         1 <0>         0.4272
     11 C9          1.2679    1.7816   -0.0005 C.2       1 <0>         0.1863
     12 N2          2.0475    0.7351   -0.0135 N.2       1 <0>        -0.4901
     13 H2          2.4368   -6.6249   -2.2956 H         1 <0>         0.0571
     14 H3          3.3497   -7.8477   -1.3795 H         1 <0>         0.0642
     15 H4          2.3079   -6.6873   -0.5215 H         1 <0>         0.0573
     16 H5          4.8257   -5.9900   -2.0997 H         1 <0>         0.0843
     17 H6          4.6968   -6.0524   -0.3256 H         1 <0>         0.0845
     18 H7          2.2098   -1.7850   -2.1418 H         1 <0>         0.0824
     19 H8          3.5900   -1.2930   -1.1313 H         1 <0>         0.0931
     20 H9          2.3515   -1.9910    0.9003 H         1 <0>         0.0776
     21 H10         0.9712   -2.4830   -0.1101 H         1 <0>         0.0770
     22 H11        -0.8562   -0.6596    0.0072 H         1 <0>         0.1760
     23 H12         1.5957    2.8106    0.0019 H         1 <0>         0.2082
@<TRIPOS>BOND
     1    1    2 1
     2    1   13 1
     3    1   14 1
     4    1   15 1
     5    2    3 1
     6    2   16 1
     7    2   17 1
     8    3    4 3
     9    4    5 1
    10    5    6 1
    11    5   18 1
    12    5   19 1
    13    6    7 1
    14    6   20 1
    15    6   21 1
    16    7   12 1
    17    7    8 2
    18    8    9 1
    19    8   22 1
    20    9   10 1
    21    9   11 1
    22   11   12 2
    23   11   23 1
@<TRIPOS>MOLECULE
ZINC13795220
   24    24     0     0     0
SMALL
USER_CHARGES
4-hex-3-ynyl-1H-imidazole
@<TRIPOS>ATOM
      1 C1          2.9778   -6.8232   -1.3704 C.3       1 <0>        -0.1503
      2 C2          4.1558   -5.8541   -1.2508 C.3       1 <0>        -0.0238
      3 C3          3.6536   -4.4705   -1.2385 C.1       1 <0>        -0.1321
      4 C4          3.2530   -3.3670   -1.2288 C.1       1 <0>        -0.2302
      5 C5          2.7508   -1.9833   -1.2166 C.3       1 <0>         0.0051
      6 C6          1.8104   -1.7926   -0.0249 C.3       1 <0>        -0.0606
      7 C7          1.2963   -0.3761   -0.0123 C.2       1 <0>         0.0350
      8 C8          0.0021   -0.0041    0.0020 C.2       1 <0>         0.0335
      9 N1         -0.0165    1.3646    0.0095 N.pl3     1 <0>        -0.5151
     10 H1         -0.8294    1.9469    0.0204 H         1 <0>         0.4758
     11 C9          1.2679    1.7816   -0.0005 C.cat     1 <0>         0.3055
     12 H2          2.4368   -6.6249   -2.2956 H         1 <0>         0.0591
     13 H3          3.3497   -7.8477   -1.3795 H         1 <0>         0.0709
     14 H4          2.3079   -6.6873   -0.5215 H         1 <0>         0.0583
     15 H5          4.8257   -5.9900   -2.0997 H         1 <0>         0.0928
     16 H6          4.6968   -6.0524   -0.3256 H         1 <0>         0.0922
     17 H7          2.2098   -1.7850   -2.1418 H         1 <0>         0.0931
     18 H8          3.5900   -1.2930   -1.1313 H         1 <0>         0.0819
     19 H9          2.3515   -1.9910    0.9003 H         1 <0>         0.1059
     20 H10         0.9712   -2.4830   -0.1101 H         1 <0>         0.1159
     21 H11        -0.8562   -0.6596    0.0072 H         1 <0>         0.2256
     22 H12         1.5957    2.8106    0.0019 H         1 <0>         0.2650
     23 N2          2.0461    0.7351   -0.0135 N.pl3     1 <0>        -0.4840
     24 H13         3.0726    0.7586   -0.0231 H         1 <0>         0.4804
@<TRIPOS>BOND
     1    1    2 1
     2    1   12 1
     3    1   13 1
     4    1   14 1
     5    2    3 1
     6    2   15 1
     7    2   16 1
     8    3    4 3
     9    4    5 1
    10    5    6 1
    11    5   17 1
    12    5   18 1
    13    6    7 1
    14    6   19 1
    15    6   20 1
    16    7    8 2
    17    7   23 1
    18    8    9 1
    19    8   21 1
    20    9   10 1
    21    9   11 1
    22   11   22 1
    23   11   23 2
    24   23   24 1
@<TRIPOS>MOLECULE
ZINC00403074
   21    21     0     0     0
SMALL
USER_CHARGES

@<TRIPOS>ATOM
      1 C1          1.4110    4.3881    0.0110 C.3       1 <0>         0.0640
      2 N1          0.5992    3.1686    0.0125 N.pl3     1 <0>        -0.4584
      3 C2         -0.7496    3.1039    0.0246 C.2       1 <0>         0.2108
      4 N2         -1.1084    1.8492    0.0167 N.2       1 <0>        -0.4887
      5 C3         -0.0126    1.0758    0.0080 C.2       1 <0>         0.0076
      6 C4          1.0662    1.8819    0.0020 C.2       1 <0>        -0.0681
      7 C5          2.5100    1.4504   -0.0138 C.3       1 <0>        -0.0624
      8 C6          2.9489    1.1907   -1.4563 C.3       1 <0>        -0.0021
      9 H1          1.6029    4.6955   -1.0170 H         1 <0>         0.0815
     10 H2          0.8763    5.1812    0.5336 H         1 <0>         0.0983
     11 H3          2.3578    4.1949    0.5152 H         1 <0>         0.0841
     12 H4         -1.4204    3.9503    0.0348 H         1 <0>         0.2139
     13 H5          0.0021   -0.0041    0.0020 H         1 <0>         0.1733
     14 H6          3.1289    2.2367    0.4184 H         1 <0>         0.0919
     15 H7          2.6226    0.5370    0.5703 H         1 <0>         0.1097
     16 H8          2.3300    0.4045   -1.8885 H         1 <0>         0.1386
     17 H9          2.8363    2.1041   -2.0404 H         1 <0>         0.1316
     18 H10         4.6704    0.5924   -2.4139 H         1 <0>         0.4427
     19 H11         4.9432    1.4541   -1.0179 H         1 <0>         0.4365
     20 N3          4.3547    0.7487   -1.4582 N.4       1 <0>        -0.6467
     21 H12         4.4332   -0.1292   -0.9316 H         1 <0>         0.4416
@<TRIPOS>BOND
     1    1    2 1
     2    1    9 1
     3    1   10 1
     4    1   11 1
     5    2    6 1
     6    2    3 1
     7    3    4 2
     8    3   12 1
     9    4    5 1
    10    5    6 2
    11    5   13 1
    12    6    7 1
    13    7    8 1
    14    7   14 1
    15    7   15 1
    16    8   16 1
    17    8   17 1
    18    8   20 1
    19   18   20 1
    20   19   20 1
    21   20   21 1
@<TRIPOS>MOLECULE
ZINC01537834
   55    57     0     0     0
SMALL
USER_CHARGES

@<TRIPOS>ATOM
      1 C1         -0.0161    1.3371    0.0094 C.2       1 <0>         0.0036
      2 C2          1.2587    1.7711   -0.0004 C.2       1 <0>         0.0691
      3 N1          2.0558    0.6583   -0.0140 N.pl3     1 <0>        -0.5103
      4 H1          3.0256    0.6452   -0.0234 H         1 <0>         0.4638
      5 C3          1.2397   -0.4176   -0.0120 C.cat     1 <0>         0.3054
      6 N2          0.0021   -0.0041    0.0020 N.pl3     1 <0>        -0.4719
      7 C4          1.7192    3.2060    0.0024 C.3       1 <0>        -0.0290
      8 C5          1.9795    3.6608   -1.4355 C.3       1 <0>        -0.1289
      9 C6          2.4141    5.1298   -1.4314 C.3       1 <0>         0.1086
     10 N3          3.5670    5.2794   -0.5331 N.am      1 <0>        -0.6241
     11 C7          3.4544    4.7913    0.8482 C.3       1 <0>         0.1074
     12 C8          3.0082    3.3261    0.8186 C.3       1 <0>        -0.1391
     13 C9          4.7065    5.8530   -0.9679 C.2       1 <0>         0.5153
     14 O1          4.7871    6.2515   -2.1105 O.2       1 <0>        -0.5255
     15 C10         5.8804    5.9993   -0.0343 C.3       1 <0>        -0.1394
     16 C11         7.0371    6.6769   -0.7717 C.3       1 <0>        -0.1070
     17 C12         8.2289    6.8254    0.1761 C.3       1 <0>        -0.1198
     18 C13         9.3856    7.5030   -0.5613 C.3       1 <0>        -0.1162
     19 C14        10.5775    7.6515    0.3866 C.3       1 <0>        -0.0864
     20 C15        10.2085    8.6056    1.5243 C.3       1 <0>        -0.1150
     21 C16        11.4003    8.7541    2.4721 C.3       1 <0>        -0.1210
     22 C17        12.5970    9.3168    1.7025 C.3       1 <0>        -0.1218
     23 C18        12.9659    8.3627    0.5648 C.3       1 <0>        -0.1208
     24 C19        11.7741    8.2142   -0.3831 C.3       1 <0>        -0.1159
     25 H2         -0.8984    1.9597    0.0252 H         1 <0>         0.2248
     26 H3          1.5585   -1.4495   -0.0206 H         1 <0>         0.2665
     27 H4          0.9476    3.8341    0.4477 H         1 <0>         0.1229
     28 H5          2.7685    3.0492   -1.8733 H         1 <0>         0.0721
     29 H6          1.0672    3.5529   -2.0220 H         1 <0>         0.0886
     30 H7          2.6957    5.4303   -2.4406 H         1 <0>         0.1037
     31 H8          1.5924    5.7529   -1.0783 H         1 <0>         0.0761
     32 H9          4.4225    4.8686    1.3431 H         1 <0>         0.0987
     33 H10         2.7176    5.3869    1.3872 H         1 <0>         0.0807
     34 H11         2.8280    2.9801    1.8363 H         1 <0>         0.0891
     35 H12         3.7875    2.7177    0.3596 H         1 <0>         0.0700
     36 H13         5.5897    6.6073    0.8224 H         1 <0>         0.0956
     37 H14         6.1960    5.0143    0.3096 H         1 <0>         0.0918
     38 H15         7.3277    6.0689   -1.6284 H         1 <0>         0.0692
     39 H16         6.7214    7.6619   -1.1156 H         1 <0>         0.0715
     40 H17         7.9383    7.4334    1.0328 H         1 <0>         0.0656
     41 H18         8.5446    5.8404    0.5200 H         1 <0>         0.0604
     42 H19         9.6763    6.8950   -1.4180 H         1 <0>         0.0624
     43 H20         9.0700    8.4880   -0.9052 H         1 <0>         0.0637
     44 H21        10.8369    6.6767    0.7995 H         1 <0>         0.0679
     45 H22         9.9490    9.5804    1.1113 H         1 <0>         0.0613
     46 H23         9.3560    8.2047    2.0726 H         1 <0>         0.0611
     47 H24        11.1374    9.4338    3.2827 H         1 <0>         0.0606
     48 H25        11.6598    7.7793    2.8851 H         1 <0>         0.0599
     49 H26        12.3375   10.2916    1.2896 H         1 <0>         0.0613
     50 H27        13.4460    9.4226    2.3778 H         1 <0>         0.0609
     51 H28        13.8185    8.7636    0.0165 H         1 <0>         0.0617
     52 H29        13.2254    7.3879    0.9778 H         1 <0>         0.0603
     53 H30        12.0370    7.5345   -1.1936 H         1 <0>         0.0606
     54 H31        11.5147    9.1890   -0.7960 H         1 <0>         0.0620
     55 H32        -0.7811   -0.5763    0.0069 H         1 <0>         0.4679
@<TRIPOS>BOND
     1    1    6 1
     2    1    2 2
     3    1   25 1
     4    2    3 1
     5    2    7 1
     6    3    4 1
     7    3    5 1
     8    5    6 2
     9    5   26 1
    10    6   55 1
    11    7   12 1
    12    7    8 1
    13    7   27 1
    14    8    9 1
    15    8   28 1
    16    8   29 1
    17    9   10 1
    18    9   30 1
    19    9   31 1
    20   10   11 1
    21   10   13 am
    22   11   12 1
    23   11   32 1
    24   11   33 1
    25   12   34 1
    26   12   35 1
    27   13   14 2
    28   13   15 1
    29   15   16 1
    30   15   36 1
    31   15   37 1
    32   16   17 1
    33   16   38 1
    34   16   39 1
    35   17   18 1
    36   17   40 1
    37   17   41 1
    38   18   19 1
    39   18   42 1
    40   18   43 1
    41   19   24 1
    42   19   20 1
    43   19   44 1
    44   20   21 1
    45   20   45 1
    46   20   46 1
    47   21   22 1
    48   21   47 1
    49   21   48 1
    50   22   23 1
    51   22   49 1
    52   22   50 1
    53   23   24 1
    54   23   51 1
    55   23   52 1
    56   24   53 1
    57   24   54 1
@<TRIPOS>MOLECULE
ZINC01537834
   55    57     0     0     0
SMALL
USER_CHARGES
5-cyclohexyl-1-[4-(1H-imidazol-4-yl)-1-piperidyl]-pentan-1-one
@<TRIPOS>ATOM
      1 C1          3.1931    8.8491    3.4645 C.2       1 <0>         0.0315
      2 C2          3.6712    8.9890    2.2133 C.2       1 <0>         0.0386
      3 C3          4.2880   10.7385    3.3157 C.cat     1 <0>         0.3047
      4 N1          3.5842    9.9586    4.1642 N.pl3     1 <0>        -0.5139
      5 H1          3.3858   10.1550    5.1244 H         1 <0>         0.4757
      6 C4          3.4915    8.0097    1.0820 C.3       1 <0>        -0.0271
      7 C5          4.5757    6.9327    1.1629 C.3       1 <0>        -0.1280
      8 C6          4.4108    5.9588   -0.0081 C.3       1 <0>         0.1092
      9 N2          3.0380    5.4351    0.0022 N.am      1 <0>        -0.6236
     10 C7          1.9189    6.3870    0.0119 C.3       1 <0>         0.1062
     11 C8          2.1118    7.3560    1.1882 C.3       1 <0>        -0.1306
     12 C9          2.8098    4.1068   -0.0027 C.2       1 <0>         0.5158
     13 O1          3.7422    3.3313   -0.0158 O.2       1 <0>        -0.5264
     14 C10         1.3960    3.5852    0.0080 C.3       1 <0>        -0.1396
     15 C11         1.4167    2.0553   -0.0004 C.3       1 <0>        -0.1070
     16 C12        -0.0187    1.5258    0.0104 C.3       1 <0>        -0.1199
     17 C13         0.0021   -0.0041    0.0020 C.3       1 <0>        -0.1161
     18 C14        -1.4333   -0.5336    0.0129 C.3       1 <0>        -0.0870
     19 C15        -2.1103   -0.1453    1.3289 C.3       1 <0>        -0.1142
     20 C16        -3.5456   -0.6748    1.3397 C.3       1 <0>        -0.1211
     21 C17        -3.5280   -2.1989    1.2056 C.3       1 <0>        -0.1215
     22 C18        -2.8510   -2.5872   -0.1103 C.3       1 <0>        -0.1212
     23 C19        -1.4157   -2.0577   -0.1212 C.3       1 <0>        -0.1159
     24 H2          2.6125    8.0208    3.8430 H         1 <0>         0.2227
     25 H3          4.7369   11.6898    3.5605 H         1 <0>         0.2651
     26 H4          3.5720    8.5354    0.1305 H         1 <0>         0.1049
     27 H5          4.4802    6.3902    2.1035 H         1 <0>         0.0791
     28 H6          5.5588    7.4008    1.1110 H         1 <0>         0.0811
     29 H7          5.1168    5.1353    0.0993 H         1 <0>         0.1034
     30 H8          4.5955    6.4812   -0.9467 H         1 <0>         0.0728
     31 H9          1.9045    6.9436   -0.9252 H         1 <0>         0.0779
     32 H10         0.9802    5.8461    0.1324 H         1 <0>         0.0996
     33 H11         2.0395    6.8096    2.1285 H         1 <0>         0.0799
     34 H12         1.3409    8.1259    1.1546 H         1 <0>         0.0887
     35 H13         0.8688    3.9463   -0.8751 H         1 <0>         0.0952
     36 H14         0.8858    3.9367    0.9048 H         1 <0>         0.0931
     37 H15         1.9439    1.6943    0.8826 H         1 <0>         0.0697
     38 H16         1.9269    1.7038   -0.8972 H         1 <0>         0.0708
     39 H17        -0.5459    1.8868   -0.8726 H         1 <0>         0.0622
     40 H18        -0.5289    1.8773    0.9072 H         1 <0>         0.0642
     41 H19         0.5123   -0.3556   -0.8948 H         1 <0>         0.0633
     42 H20         0.5293   -0.3651    0.8851 H         1 <0>         0.0626
     43 H21        -1.9862   -0.1019   -0.8214 H         1 <0>         0.0689
     44 H22        -1.5574   -0.5770    2.1631 H         1 <0>         0.0604
     45 H23        -2.1228    0.9405    1.4244 H         1 <0>         0.0607
     46 H24        -4.0985   -0.2431    0.5055 H         1 <0>         0.0605
     47 H25        -4.0279   -0.3982    2.2772 H         1 <0>         0.0599
     48 H26        -4.5506   -2.5761    1.2134 H         1 <0>         0.0609
     49 H27        -2.9751   -2.6306    2.0399 H         1 <0>         0.0608
     50 H28        -3.4039   -2.1555   -0.9446 H         1 <0>         0.0609
     51 H29        -2.8385   -3.6730   -0.2059 H         1 <0>         0.0617
     52 H30        -0.9334   -2.3344   -1.0587 H         1 <0>         0.0612
     53 H31        -0.8628   -2.4894    0.7131 H         1 <0>         0.0614
     54 N3          4.3396   10.1494    2.1532 N.pl3     1 <0>        -0.4827
     55 H32         4.8174   10.5170    1.3220 H         1 <0>         0.4806
@<TRIPOS>BOND
     1    1    4 1
     2    1    2 2
     3    1   24 1
     4    2    6 1
     5    2   54 1
     6    3    4 1
     7    3   25 1
     8    3   54 2
     9    4    5 1
    10    6   11 1
    11    6    7 1
    12    6   26 1
    13    7    8 1
    14    7   27 1
    15    7   28 1
    16    8    9 1
    17    8   29 1
    18    8   30 1
    19    9   10 1
    20    9   12 am
    21   10   11 1
    22   10   31 1
    23   10   32 1
    24   11   33 1
    25   11   34 1
    26   12   13 2
    27   12   14 1
    28   14   15 1
    29   14   35 1
    30   14   36 1
    31   15   16 1
    32   15   37 1
    33   15   38 1
    34   16   17 1
    35   16   39 1
    36   16   40 1
    37   17   18 1
    38   17   41 1
    39   17   42 1
    40   18   23 1
    41   18   19 1
    42   18   43 1
    43   19   20 1
    44   19   44 1
    45   19   45 1
    46   20   21 1
    47   20   46 1
    48   20   47 1
    49   21   22 1
    50   21   48 1
    51   21   49 1
    52   22   23 1
    53   22   50 1
    54   22   51 1
    55   23   52 1
    56   23   53 1
    57   54   55 1
@<TRIPOS>MOLECULE
ZINC01537834
   54    56     0     0     0
SMALL
USER_CHARGES

@<TRIPOS>ATOM
      1 C1         -0.0161    1.3371    0.0094 C.2       1 <0>        -0.0190
      2 C2          1.2587    1.7711   -0.0004 C.2       1 <0>        -0.0208
      3 N1          2.0558    0.6583   -0.0140 N.pl3     1 <0>        -0.5678
      4 H1          3.0256    0.6452   -0.0234 H         1 <0>         0.4189
      5 C3          1.2397   -0.4176   -0.0120 C.2       1 <0>         0.1848
      6 N2          0.0021   -0.0041    0.0020 N.2       1 <0>        -0.4931
      7 C4          1.7192    3.2060    0.0024 C.3       1 <0>        -0.0089
      8 C5          1.7710    3.7219    1.4423 C.3       1 <0>        -0.1246
      9 C6          2.2725    5.1695    1.4440 C.3       1 <0>         0.1107
     10 N3          1.4226    5.9654    0.5480 N.am      1 <0>        -0.6168
     11 C7          1.2312    5.5082   -0.8351 C.3       1 <0>         0.1068
     12 C8          0.7414    4.0569   -0.8113 C.3       1 <0>        -0.1250
     13 C9          0.8294    7.0934    0.9867 C.2       1 <0>         0.5150
     14 O1          0.9949    7.4600    2.1308 O.2       1 <0>        -0.5377
     15 C10        -0.0395    7.8989    0.0555 C.3       1 <0>        -0.1400
     16 C11        -0.5864    9.1203    0.7970 C.3       1 <0>        -0.1052
     17 C12        -1.4686    9.9382   -0.1484 C.3       1 <0>        -0.1203
     18 C13        -2.0155   11.1596    0.5932 C.3       1 <0>        -0.1155
     19 C14        -2.8976   11.9774   -0.3523 C.3       1 <0>        -0.0869
     20 C15        -2.0415   12.5429   -1.4872 C.3       1 <0>        -0.1154
     21 C16        -2.9237   13.3607   -2.4327 C.3       1 <0>        -0.1209
     22 C17        -3.5700   14.5118   -1.6592 C.3       1 <0>        -0.1208
     23 C18        -4.4261   13.9464   -0.5242 C.3       1 <0>        -0.1205
     24 C19        -3.5440   13.1285    0.4212 C.3       1 <0>        -0.1156
     25 H2         -0.8984    1.9597    0.0252 H         1 <0>         0.1665
     26 H3          1.5585   -1.4495   -0.0206 H         1 <0>         0.2083
     27 H4          2.7125    3.2695   -0.4418 H         1 <0>         0.0788
     28 H5          0.7732    3.6820    1.8792 H         1 <0>         0.0743
     29 H6          2.4498    3.1011    2.0270 H         1 <0>         0.0744
     30 H7          2.2175    5.5740    2.4547 H         1 <0>         0.0961
     31 H8          3.3035    5.1994    1.0918 H         1 <0>         0.0673
     32 H9          0.4892    6.1362   -1.3282 H         1 <0>         0.0919
     33 H10         2.1774    5.5657   -1.3732 H         1 <0>         0.0720
     34 H11         0.6874    3.6744   -1.8305 H         1 <0>         0.0827
     35 H12        -0.2467    4.0138   -0.3532 H         1 <0>         0.0765
     36 H13         0.5513    8.2275   -0.7996 H         1 <0>         0.0928
     37 H14        -0.8691    7.2829   -0.2914 H         1 <0>         0.0937
     38 H15        -1.1773    8.7917    1.6521 H         1 <0>         0.0691
     39 H16         0.2432    9.7364    1.1439 H         1 <0>         0.0690
     40 H17        -0.8777   10.2667   -1.0034 H         1 <0>         0.0644
     41 H18        -2.2982    9.3221   -0.4952 H         1 <0>         0.0616
     42 H19        -2.6063   10.8310    1.4482 H         1 <0>         0.0625
     43 H20        -1.1859   11.7756    0.9400 H         1 <0>         0.0623
     44 H21        -3.6756   11.3372   -0.7682 H         1 <0>         0.0687
     45 H22        -1.2636   13.1831   -1.0713 H         1 <0>         0.0606
     46 H23        -1.5811   11.7228   -2.0383 H         1 <0>         0.0629
     47 H24        -2.3137   13.7636   -3.2413 H         1 <0>         0.0597
     48 H25        -3.7016   12.7205   -2.8487 H         1 <0>         0.0603
     49 H26        -2.7920   15.1520   -1.2433 H         1 <0>         0.0604
     50 H27        -4.1984   15.0945   -2.3328 H         1 <0>         0.0594
     51 H28        -4.8865   14.7664    0.0268 H         1 <0>         0.0602
     52 H29        -5.2040   13.3061   -0.9402 H         1 <0>         0.0605
     53 H30        -4.1539   12.7257    1.2298 H         1 <0>         0.0607
     54 H31        -2.7660   13.7687    0.8372 H         1 <0>         0.0611
@<TRIPOS>BOND
     1    1    6 1
     2    1    2 2
     3    1   25 1
     4    2    3 1
     5    2    7 1
     6    3    4 1
     7    3    5 1
     8    5    6 2
     9    5   26 1
    10    7   12 1
    11    7    8 1
    12    7   27 1
    13    8    9 1
    14    8   28 1
    15    8   29 1
    16    9   10 1
    17    9   30 1
    18    9   31 1
    19   10   11 1
    20   10   13 am
    21   11   12 1
    22   11   32 1
    23   11   33 1
    24   12   34 1
    25   12   35 1
    26   13   14 2
    27   13   15 1
    28   15   16 1
    29   15   36 1
    30   15   37 1
    31   16   17 1
    32   16   38 1
    33   16   39 1
    34   17   18 1
    35   17   40 1
    36   17   41 1
    37   18   19 1
    38   18   42 1
    39   18   43 1
    40   19   24 1
    41   19   20 1
    42   19   44 1
    43   20   21 1
    44   20   45 1
    45   20   46 1
    46   21   22 1
    47   21   47 1
    48   21   48 1
    49   22   23 1
    50   22   49 1
    51   22   50 1
    52   23   24 1
    53   23   51 1
    54   23   52 1
    55   24   53 1
    56   24   54 1
@<TRIPOS>MOLECULE
ZINC01537834
   54    56     0     0     0
SMALL
USER_CHARGES

@<TRIPOS>ATOM
      1 C1         -0.0165    1.3646    0.0095 C.2       1 <0>        -0.0520
      2 C2          1.2671    1.7717   -0.0005 C.2       1 <0>         0.0086
      3 N1          2.0482    0.6814   -0.0138 N.2       1 <0>        -0.4901
      4 C3          1.2973   -0.3859   -0.0124 C.2       1 <0>         0.1855
      5 N2          0.0021   -0.0041    0.0020 N.pl3     1 <0>        -0.5704
      6 H1         -0.7708   -0.5902    0.0065 H         1 <0>         0.4211
      7 C4          1.7427    3.2017    0.0026 C.3       1 <0>        -0.0018
      8 C5          0.7750    4.0626   -0.8126 C.3       1 <0>        -0.1250
      9 C6          1.2800    5.5087   -0.8361 C.3       1 <0>         0.1106
     10 N3          1.4743    5.9643    0.5471 N.am      1 <0>        -0.6153
     11 C7          2.3146    5.1597    1.4445 C.3       1 <0>         0.1063
     12 C8          1.7980    3.7175    1.4424 C.3       1 <0>        -0.1231
     13 C9          0.8931    7.0990    0.9844 C.2       1 <0>         0.5144
     14 O1          0.2021    7.7546    0.2338 O.2       1 <0>        -0.5405
     15 C10         1.1020    7.5530    2.4061 C.3       1 <0>        -0.1401
     16 C11         0.3390    8.8581    2.6420 C.3       1 <0>        -0.1048
     17 C12         0.5510    9.3191    4.0854 C.3       1 <0>        -0.1204
     18 C13        -0.2120   10.6241    4.3213 C.3       1 <0>        -0.1154
     19 C14         0.0001   11.0851    5.7647 C.3       1 <0>        -0.0869
     20 C15        -0.6283   10.0702    6.7217 C.3       1 <0>        -0.1154
     21 C16        -0.4163   10.5312    8.1652 C.3       1 <0>        -0.1209
     22 C17        -1.0750   11.8974    8.3662 C.3       1 <0>        -0.1208
     23 C18        -0.4466   12.9124    7.4091 C.3       1 <0>        -0.1205
     24 C19        -0.6586   12.4514    5.9657 C.3       1 <0>        -0.1155
     25 H2         -0.8922    1.9965    0.0253 H         1 <0>         0.1736
     26 H3          1.6529   -1.4057   -0.0218 H         1 <0>         0.2081
     27 H4          2.7371    3.2547   -0.4405 H         1 <0>         0.0862
     28 H5          0.7183    3.6805   -1.8319 H         1 <0>         0.0780
     29 H6         -0.2141    4.0301   -0.3559 H         1 <0>         0.0676
     30 H7          2.2275    5.5562   -1.3729 H         1 <0>         0.0690
     31 H8          0.5454    6.1444   -1.3304 H         1 <0>         0.0945
     32 H9          3.3464    5.1787    1.0937 H         1 <0>         0.0733
     33 H10         2.2625    5.5650    2.4550 H         1 <0>         0.0883
     34 H11         0.7992    3.6882    1.8780 H         1 <0>         0.0672
     35 H12         2.4694    3.0897    2.0282 H         1 <0>         0.0796
     36 H13         0.7336    6.7881    3.0897 H         1 <0>         0.0923
     37 H14         2.1651    7.7167    2.5828 H         1 <0>         0.0928
     38 H15         0.7074    9.6230    1.9584 H         1 <0>         0.0690
     39 H16        -0.7241    8.6945    2.4653 H         1 <0>         0.0686
     40 H17         0.1826    8.5542    4.7690 H         1 <0>         0.0642
     41 H18         1.6141    9.4827    4.2621 H         1 <0>         0.0615
     42 H19         0.1565   11.3890    3.6377 H         1 <0>         0.0625
     43 H20        -1.2750   10.4605    4.1446 H         1 <0>         0.0622
     44 H21         1.0681   11.1633    5.9680 H         1 <0>         0.0687
     45 H22        -1.6963    9.9921    6.5185 H         1 <0>         0.0605
     46 H23        -0.1590    9.0969    6.5785 H         1 <0>         0.0630
     47 H24        -0.8639    9.8082    8.8470 H         1 <0>         0.0596
     48 H25         0.6518   10.6094    8.3684 H         1 <0>         0.0603
     49 H26        -2.1430   11.8193    8.1629 H         1 <0>         0.0604
     50 H27        -0.9239   12.2259    9.3945 H         1 <0>         0.0593
     51 H28        -0.9159   13.8857    7.5523 H         1 <0>         0.0601
     52 H29         0.6214   12.9905    7.6124 H         1 <0>         0.0605
     53 H30        -0.2110   13.1744    5.2839 H         1 <0>         0.0607
     54 H31        -1.7267   12.3732    5.7624 H         1 <0>         0.0610
@<TRIPOS>BOND
     1    1    5 1
     2    1    2 2
     3    1   25 1
     4    2    3 1
     5    2    7 1
     6    3    4 2
     7    4    5 1
     8    4   26 1
     9    5    6 1
    10    7   12 1
    11    7    8 1
    12    7   27 1
    13    8    9 1
    14    8   28 1
    15    8   29 1
    16    9   10 1
    17    9   30 1
    18    9   31 1
    19   10   11 1
    20   10   13 am
    21   11   12 1
    22   11   32 1
    23   11   33 1
    24   12   34 1
    25   12   35 1
    26   13   14 2
    27   13   15 1
    28   15   16 1
    29   15   36 1
    30   15   37 1
    31   16   17 1
    32   16   38 1
    33   16   39 1
    34   17   18 1
    35   17   40 1
    36   17   41 1
    37   18   19 1
    38   18   42 1
    39   18   43 1
    40   19   24 1
    41   19   20 1
    42   19   44 1
    43   20   21 1
    44   20   45 1
    45   20   46 1
    46   21   22 1
    47   21   47 1
    48   21   48 1
    49   22   23 1
    50   22   49 1
    51   22   50 1
    52   23   24 1
    53   23   51 1
    54   23   52 1
    55   24   53 1
    56   24   54 1
@<TRIPOS>MOLECULE
ZINC14828480
   40    41     0     0     0
SMALL
USER_CHARGES

@<TRIPOS>ATOM
      1 C1         -8.2828    2.3236    2.4537 C.3       1 <0>         0.0241
      2 O1         -7.0055    2.3355    1.8131 O.3       1 <0>        -0.3031
      3 C2         -6.5192    1.1409    1.3843 C.ar      1 <0>         0.1572
      4 C3         -7.2587   -0.0178    1.5710 C.ar      1 <0>        -0.2042
      5 C4         -6.7623   -1.2308    1.1344 C.ar      1 <0>        -0.0471
      6 C5         -5.5293   -1.2910    0.5114 C.ar      1 <0>        -0.1171
      7 C6         -4.7898   -0.1382    0.3237 C.ar      1 <0>        -0.0379
      8 C7         -5.2844    1.0790    0.7536 C.ar      1 <0>        -0.1291
      9 Br1        -4.2764    2.6570    0.4893 Br        1 <0>        -0.0357
     10 C8         -4.9904   -2.6159    0.0366 C.3       1 <0>        -0.0560
     11 C9         -5.4377   -2.8611   -1.3814 C.2       1 <0>         0.1093
     12 N1         -4.7509   -2.3843   -2.3673 N.2       1 <0>        -0.2904
     13 O2         -3.5163   -1.7358   -2.1220 O.3       1 <0>        -0.3866
     14 C10        -6.6599   -3.6455   -1.6446 C.2       1 <0>         0.5765
     15 O3         -7.3057   -4.0938   -0.7175 O.2       1 <0>        -0.5134
     16 N2         -7.0599   -3.8648   -2.9128 N.am      1 <0>        -0.7113
     17 C11        -8.2730   -4.6434   -3.1740 C.3       1 <0>         0.1253
     18 C12        -8.5001   -4.7428   -4.6838 C.3       1 <0>        -0.0439
     19 C13        -9.7480   -5.5437   -4.9525 C.2       1 <0>         0.0007
     20 C14       -10.8020   -5.1435   -5.6891 C.2       1 <0>        -0.0474
     21 N3        -11.7078   -6.1696   -5.6746 N.pl3     1 <0>        -0.5700
     22 H1        -12.5709   -6.1817   -6.1171 H         1 <0>         0.4223
     23 C15       -11.1755   -7.1619   -4.9292 C.2       1 <0>         0.1894
     24 N4        -10.0012   -6.7825   -4.5048 N.2       1 <0>        -0.4873
     25 H2         -8.5522    3.3386    2.7458 H         1 <0>         0.1048
     26 H3         -9.0314    1.9331    1.7644 H         1 <0>         0.0583
     27 H4         -8.2391    1.6901    3.3397 H         1 <0>         0.0592
     28 H5         -8.2217    0.0283    2.0578 H         1 <0>         0.1386
     29 H6         -7.3378   -2.1330    1.2800 H         1 <0>         0.1399
     30 H7         -3.8269   -0.1879   -0.1628 H         1 <0>         0.1435
     31 H8         -3.9012   -2.6005    0.0765 H         1 <0>         0.1011
     32 H9         -5.3663   -3.4123    0.6790 H         1 <0>         0.1047
     33 H10        -3.0761   -1.4130   -2.9202 H         1 <0>         0.4102
     34 H11        -6.5445   -3.5070   -3.6526 H         1 <0>         0.4089
     35 H12        -8.1593   -5.6440   -2.7570 H         1 <0>         0.0830
     36 H13        -9.1276   -4.1513   -2.7097 H         1 <0>         0.0713
     37 H14        -8.6138   -3.7421   -5.1008 H         1 <0>         0.0823
     38 H15        -7.6455   -5.2349   -5.1481 H         1 <0>         0.0832
     39 H16       -10.9116   -4.1950   -6.1938 H         1 <0>         0.1772
     40 H17       -11.6424   -8.1134   -4.7220 H         1 <0>         0.2095
@<TRIPOS>BOND
     1    1    2 1
     2    1   25 1
     3    1   26 1
     4    1   27 1
     5    2    3 1
     6    3    8 ar
     7    3    4 ar
     8    4    5 ar
     9    4   28 1
    10    5    6 ar
    11    5   29 1
    12    6    7 ar
    13    6   10 1
    14    7    8 ar
    15    7   30 1
    16    8    9 1
    17   10   11 1
    18   10   31 1
    19   10   32 1
    20   11   12 2
    21   11   14 1
    22   12   13 1
    23   13   33 1
    24   14   15 2
    25   14   16 am
    26   16   17 1
    27   16   34 1
    28   17   18 1
    29   17   35 1
    30   17   36 1
    31   18   19 1
    32   18   37 1
    33   18   38 1
    34   19   24 1
    35   19   20 2
    36   20   21 1
    37   20   39 1
    38   21   22 1
    39   21   23 1
    40   23   24 2
    41   23   40 1
@<TRIPOS>MOLECULE
ZINC14828480
   40    41     0     0     0
SMALL
USER_CHARGES

@<TRIPOS>ATOM
      1 C1         -0.0594    1.3613    0.2334 C.3       1 <0>         0.0244
      2 O1         -0.0439   -0.0670    0.1942 O.3       1 <0>        -0.3029
      3 C2         -1.2479   -0.6964    0.1559 C.ar      1 <0>         0.1584
      4 C3         -2.4200    0.0456    0.1503 C.ar      1 <0>        -0.2011
      5 C4         -3.6426   -0.5963    0.1114 C.ar      1 <0>        -0.0478
      6 C5         -3.6993   -1.9775    0.0780 C.ar      1 <0>        -0.1127
      7 C6         -2.5331   -2.7200    0.0834 C.ar      1 <0>        -0.0368
      8 C7         -1.3069   -2.0825    0.1165 C.ar      1 <0>        -0.1243
      9 Br1         0.2882   -3.0981    0.1155 Br        1 <0>        -0.0344
     10 C8         -5.0346   -2.6748    0.0361 C.3       1 <0>        -0.0223
     11 C9         -5.4525   -2.8739   -1.3980 C.2       1 <0>         0.0861
     12 N1         -4.6894   -2.4623   -2.3567 N.2       1 <0>        -0.2553
     13 O2         -5.0270   -2.7467   -3.7022 O.3       1 <0>        -0.3622
     14 C10        -6.7332   -3.5390   -1.7080 C.2       1 <0>         0.5245
     15 O3         -7.0269   -3.7846   -2.8616 O.2       1 <0>        -0.4977
     16 N2         -7.5770   -3.8739   -0.7118 N.am      1 <0>        -0.7250
     17 C11        -8.7947   -4.6328   -1.0074 C.3       1 <0>         0.1225
     18 C12        -9.5692   -4.8795    0.2888 C.3       1 <0>        -0.0528
     19 C13       -10.8219   -5.6602   -0.0153 C.2       1 <0>        -0.0295
     20 C14       -10.9278   -6.9985   -0.1218 C.2       1 <0>        -0.0128
     21 N3        -12.2066   -7.2927   -0.3995 N.2       1 <0>        -0.4934
     22 H1        -12.3184   -4.2075   -0.2167 H         1 <0>         0.4198
     23 C15       -12.8971   -6.1876   -0.4691 C.2       1 <0>         0.1903
     24 N4        -12.0719   -5.1456   -0.2304 N.pl3     1 <0>        -0.5666
     25 H2          0.9641    1.7352    0.2615 H         1 <0>         0.1051
     26 H3         -0.5617    1.7438   -0.6552 H         1 <0>         0.0585
     27 H4         -0.5925    1.6946    1.1238 H         1 <0>         0.0587
     28 H5         -2.3767    1.1244    0.1767 H         1 <0>         0.1374
     29 H6         -4.5552   -0.0187    0.1074 H         1 <0>         0.1304
     30 H7         -2.5800   -3.7986    0.0577 H         1 <0>         0.1375
     31 H8         -4.9543   -3.6436    0.5290 H         1 <0>         0.1104
     32 H9         -5.7786   -2.0661    0.5501 H         1 <0>         0.1063
     33 H10        -4.3969   -2.3984   -4.3478 H         1 <0>         0.4016
     34 H11        -7.3779   -3.6126    0.2008 H         1 <0>         0.4026
     35 H12        -9.4169   -4.0660   -1.7001 H         1 <0>         0.0689
     36 H13        -8.5269   -5.5884   -1.4582 H         1 <0>         0.0774
     37 H14        -8.9470   -5.4463    0.9815 H         1 <0>         0.0977
     38 H15        -9.8370   -3.9239    0.7395 H         1 <0>         0.0789
     39 H16       -10.1239   -7.7101   -0.0043 H         1 <0>         0.1705
     40 H17       -13.9542   -6.1180   -0.6793 H         1 <0>         0.2097
@<TRIPOS>BOND
     1    1    2 1
     2    1   25 1
     3    1   26 1
     4    1   27 1
     5    2    3 1
     6    3    8 ar
     7    3    4 ar
     8    4    5 ar
     9    4   28 1
    10    5    6 ar
    11    5   29 1
    12    6    7 ar
    13    6   10 1
    14    7    8 ar
    15    7   30 1
    16    8    9 1
    17   10   11 1
    18   10   31 1
    19   10   32 1
    20   11   12 2
    21   11   14 1
    22   12   13 1
    23   13   33 1
    24   14   15 2
    25   14   16 am
    26   16   17 1
    27   16   34 1
    28   17   18 1
    29   17   35 1
    30   17   36 1
    31   18   37 1
    32   18   38 1
    33   18   19 1
    34   19   20 2
    35   19   24 1
    36   20   21 1
    37   20   39 1
    38   21   23 2
    39   22   24 1
    40   23   40 1
    41   23   24 1
@<TRIPOS>MOLECULE
ZINC14828480
   41    42     0     0     0
SMALL
USER_CHARGES

@<TRIPOS>ATOM
      1 C1          0.1989    1.3665   -0.0652 C.3       1 <0>         0.0235
      2 O1          0.1930   -0.0625   -0.0540 O.3       1 <0>        -0.3014
      3 C2          0.7773   -0.6736    1.0101 C.ar      1 <0>         0.1627
      4 C3          1.3396    0.0863    2.0253 C.ar      1 <0>        -0.2008
      5 C4          1.9330   -0.5371    3.1058 C.ar      1 <0>        -0.0474
      6 C5          1.9670   -1.9177    3.1764 C.ar      1 <0>        -0.1204
      7 C6          1.4076   -2.6780    2.1664 C.ar      1 <0>        -0.0370
      8 C7          0.8075   -2.0592    1.0857 C.ar      1 <0>        -0.1257
      9 Br1         0.0350   -3.0993   -0.2917 Br        1 <0>        -0.0307
     10 C8          2.6156   -2.5948    4.3563 C.3       1 <0>        -0.0191
     11 C9          1.5877   -2.8160    5.4359 C.2       1 <0>         0.0790
     12 N1          0.3659   -2.4356    5.2529 N.2       1 <0>        -0.2441
     13 O2         -0.6231   -2.7415    6.2189 O.3       1 <0>        -0.3624
     14 C10         1.9760   -3.4671    6.7023 C.2       1 <0>         0.5308
     15 O3          1.1301   -3.7312    7.5343 O.2       1 <0>        -0.4935
     16 N2          3.2686   -3.7689    6.9362 N.am      1 <0>        -0.7303
     17 C11         3.6402   -4.5145    8.1413 C.3       1 <0>         0.1202
     18 C12         5.1558   -4.7232    8.1648 C.3       1 <0>        -0.0759
     19 C13         5.5381   -5.4901    9.4044 C.2       1 <0>         0.0323
     20 C14         5.7620   -4.9632   10.6234 C.2       1 <0>         0.0421
     21 N3          6.0796   -6.0048   11.4528 N.pl3     1 <0>        -0.5090
     22 H1          6.2941   -5.9441   12.3968 H         1 <0>         0.4691
     23 C15         6.0387   -7.1327   10.7113 C.cat     1 <0>         0.3109
     24 N4          5.7092   -6.8178    9.4884 N.pl3     1 <0>        -0.4740
     25 H2          1.2279    1.7257   -0.0498 H         1 <0>         0.0598
     26 H3         -0.2976    1.7248   -0.9669 H         1 <0>         0.1073
     27 H4         -0.3291    1.7388    0.8127 H         1 <0>         0.0594
     28 H5          1.3137    1.1646    1.9708 H         1 <0>         0.1388
     29 H6          2.3711    0.0544    3.8962 H         1 <0>         0.1301
     30 H7          1.4358   -3.7561    2.2237 H         1 <0>         0.1359
     31 H8          3.0265   -3.5547    4.0437 H         1 <0>         0.1076
     32 H9          3.4171   -1.9645    4.7415 H         1 <0>         0.1053
     33 H10        -1.5057   -2.4161    5.9948 H         1 <0>         0.4069
     34 H11         3.9528   -3.4925    6.3066 H         1 <0>         0.4068
     35 H12         3.3372   -3.9520    9.0244 H         1 <0>         0.0805
     36 H13         3.1401   -5.4830    8.1380 H         1 <0>         0.0730
     37 H14         5.4588   -5.2856    7.2817 H         1 <0>         0.1061
     38 H15         5.6559   -3.7547    8.1681 H         1 <0>         0.1216
     39 H16         5.7028   -3.9195   10.8944 H         1 <0>         0.2282
     40 H17         6.2410   -8.1305   11.0715 H         1 <0>         0.2679
     41 H18         5.6062   -7.4447    8.7555 H         1 <0>         0.4658
@<TRIPOS>BOND
     1    1    2 1
     2    1   25 1
     3    1   26 1
     4    1   27 1
     5    2    3 1
     6    3    8 ar
     7    3    4 ar
     8    4    5 ar
     9    4   28 1
    10    5    6 ar
    11    5   29 1
    12    6    7 ar
    13    6   10 1
    14    7    8 ar
    15    7   30 1
    16    8    9 1
    17   10   11 1
    18   10   31 1
    19   10   32 1
    20   11   12 2
    21   11   14 1
    22   12   13 1
    23   13   33 1
    24   14   15 2
    25   14   16 am
    26   16   17 1
    27   16   34 1
    28   17   18 1
    29   17   35 1
    30   17   36 1
    31   18   19 1
    32   18   37 1
    33   18   38 1
    34   19   24 1
    35   19   20 2
    36   20   21 1
    37   20   39 1
    38   21   22 1
    39   21   23 1
    40   23   24 2
    41   23   40 1
    42   24   41 1
@<TRIPOS>MOLECULE
ZINC14828480
   40    41     0     0     0
SMALL
USER_CHARGES

@<TRIPOS>ATOM
      1 C1         -8.2828    2.3236    2.4537 C.3       1 <0>         0.0238
      2 O1         -7.0055    2.3355    1.8131 O.3       1 <0>        -0.3028
      3 C2         -6.5192    1.1409    1.3843 C.ar      1 <0>         0.1583
      4 C3         -7.2587   -0.0178    1.5710 C.ar      1 <0>        -0.2040
      5 C4         -6.7623   -1.2308    1.1344 C.ar      1 <0>        -0.0471
      6 C5         -5.5293   -1.2910    0.5114 C.ar      1 <0>        -0.1188
      7 C6         -4.7898   -0.1382    0.3237 C.ar      1 <0>        -0.0378
      8 C7         -5.2844    1.0790    0.7536 C.ar      1 <0>        -0.1292
      9 Br1        -4.2764    2.6570    0.4893 Br        1 <0>        -0.0348
     10 C8         -4.9904   -2.6159    0.0366 C.3       1 <0>        -0.0554
     11 C9         -5.4377   -2.8611   -1.3814 C.2       1 <0>         0.1082
     12 N1         -4.7509   -2.3843   -2.3673 N.2       1 <0>        -0.2900
     13 O2         -3.5163   -1.7358   -2.1220 O.3       1 <0>        -0.3848
     14 C10        -6.6599   -3.6455   -1.6446 C.2       1 <0>         0.5783
     15 O3         -7.3057   -4.0938   -0.7175 O.2       1 <0>        -0.5115
     16 N2         -7.0599   -3.8648   -2.9128 N.am      1 <0>        -0.7128
     17 C11        -8.2730   -4.6434   -3.1740 C.3       1 <0>         0.1215
     18 C12        -8.5001   -4.7428   -4.6838 C.3       1 <0>        -0.0539
     19 C13        -9.7480   -5.5437   -4.9525 C.2       1 <0>        -0.0291
     20 C14       -11.0115   -5.0781   -4.9747 C.2       1 <0>        -0.0123
     21 N3        -11.8277   -6.1062   -5.2500 N.2       1 <0>        -0.4933
     22 H1         -9.0657   -7.4969   -5.2838 H         1 <0>         0.4200
     23 C15       -11.1181   -7.1912   -5.3991 C.2       1 <0>         0.1908
     24 N4         -9.8146   -6.8831   -5.2267 N.pl3     1 <0>        -0.5664
     25 H2         -8.5522    3.3386    2.7458 H         1 <0>         0.1053
     26 H3         -9.0314    1.9331    1.7644 H         1 <0>         0.0588
     27 H4         -8.2391    1.6901    3.3397 H         1 <0>         0.0593
     28 H5         -8.2217    0.0283    2.0578 H         1 <0>         0.1391
     29 H6         -7.3378   -2.1330    1.2800 H         1 <0>         0.1394
     30 H7         -3.8269   -0.1879   -0.1628 H         1 <0>         0.1433
     31 H8         -3.9012   -2.6005    0.0765 H         1 <0>         0.1014
     32 H9         -5.3663   -3.4123    0.6790 H         1 <0>         0.1043
     33 H10        -3.0761   -1.4130   -2.9202 H         1 <0>         0.4109
     34 H11        -6.5445   -3.5070   -3.6526 H         1 <0>         0.4105
     35 H12        -8.1593   -5.6440   -2.7570 H         1 <0>         0.0727
     36 H13        -9.1276   -4.1513   -2.7097 H         1 <0>         0.0809
     37 H14        -8.6138   -3.7421   -5.1008 H         1 <0>         0.0975
     38 H15        -7.6455   -5.2349   -5.1481 H         1 <0>         0.0796
     39 H16       -11.3143   -4.0561   -4.8014 H         1 <0>         0.1704
     40 H17       -11.5083   -8.1723   -5.6263 H         1 <0>         0.2100
@<TRIPOS>BOND
     1    1    2 1
     2    1   25 1
     3    1   26 1
     4    1   27 1
     5    2    3 1
     6    3    8 ar
     7    3    4 ar
     8    4    5 ar
     9    4   28 1
    10    5    6 ar
    11    5   29 1
    12    6    7 ar
    13    6   10 1
    14    7    8 ar
    15    7   30 1
    16    8    9 1
    17   10   11 1
    18   10   31 1
    19   10   32 1
    20   11   12 2
    21   11   14 1
    22   12   13 1
    23   13   33 1
    24   14   15 2
    25   14   16 am
    26   16   17 1
    27   16   34 1
    28   17   18 1
    29   17   35 1
    30   17   36 1
    31   18   37 1
    32   18   38 1
    33   18   19 1
    34   19   20 2
    35   19   24 1
    36   20   21 1
    37   20   39 1
    38   21   23 2
    39   22   24 1
    40   23   40 1
    41   23   24 1
@<TRIPOS>MOLECULE
ZINC14828480
   41    42     0     0     0
SMALL
USER_CHARGES

@<TRIPOS>ATOM
      1 C1          6.2065    2.5009    5.9432 C.3       1 <0>         0.0238
      2 O1          5.0133    2.4801    5.1573 O.3       1 <0>        -0.3012
      3 C2          4.4289    1.2697    4.9547 C.ar      1 <0>         0.1606
      4 C3          4.9893    0.1267    5.5058 C.ar      1 <0>        -0.2053
      5 C4          4.3936   -1.1024    5.2985 C.ar      1 <0>        -0.0496
      6 C5          3.2395   -1.1943    4.5422 C.ar      1 <0>        -0.1225
      7 C6          2.6786   -0.0571    3.9916 C.ar      1 <0>        -0.0369
      8 C7          3.2674    1.1760    4.2008 C.ar      1 <0>        -0.1294
      9 Br1         2.4953    2.7325    3.4544 Br        1 <0>        -0.0293
     10 C8          2.5924   -2.5366    4.3176 C.3       1 <0>        -0.0555
     11 C9          1.5943   -2.8031    5.4147 C.2       1 <0>         0.1047
     12 N1          0.3855   -2.3569    5.3112 N.2       1 <0>        -0.2896
     13 O2         -0.0353   -1.7229    4.1170 O.3       1 <0>        -0.3777
     14 C10         1.9970   -3.5735    6.6075 C.2       1 <0>         0.5860
     15 O3          3.1336   -3.9931    6.7049 O.2       1 <0>        -0.5057
     16 N2          1.1043   -3.8118    7.5888 N.am      1 <0>        -0.7196
     17 C11         1.5039   -4.5765    8.7727 C.3       1 <0>         0.1194
     18 C12         0.3127   -4.7025    9.7245 C.3       1 <0>        -0.0769
     19 C13         0.7238   -5.4891   10.9424 C.2       1 <0>         0.0324
     20 C14         0.7356   -6.8314   11.0507 C.2       1 <0>         0.0429
     21 N3          1.1732   -7.1230   12.3145 N.pl3     1 <0>        -0.5089
     22 H1          1.2890   -8.0083   12.6936 H         1 <0>         0.4693
     23 C15         1.4138   -5.9479   12.9349 C.cat     1 <0>         0.3111
     24 N4          1.1476   -4.9752   12.1066 N.pl3     1 <0>        -0.4741
     25 H2          6.9677    1.8847    5.4646 H         1 <0>         0.0603
     26 H3          6.5686    3.5257    6.0270 H         1 <0>         0.1072
     27 H4          5.9936    2.1084    6.9375 H         1 <0>         0.0573
     28 H5          5.8908    0.1975    6.0962 H         1 <0>         0.1388
     29 H6          4.8299   -1.9924    5.7272 H         1 <0>         0.1370
     30 H7          1.7774   -0.1315    3.4011 H         1 <0>         0.1439
     31 H8          2.0824   -2.5374    3.3543 H         1 <0>         0.1039
     32 H9          3.3564   -3.3140    4.3247 H         1 <0>         0.1042
     33 H10        -0.9544   -1.4230    4.1337 H         1 <0>         0.4135
     34 H11         0.1972   -3.4770    7.5111 H         1 <0>         0.4144
     35 H12         1.8333   -5.5703    8.4693 H         1 <0>         0.0843
     36 H13         2.3206   -4.0619    9.2790 H         1 <0>         0.0765
     37 H14        -0.0167   -3.7087   10.0280 H         1 <0>         0.1059
     38 H15        -0.5040   -5.2171    9.2183 H         1 <0>         0.1223
     39 H16         0.4535   -7.5414   10.2873 H         1 <0>         0.2287
     40 H17         1.7713   -5.8323   13.9474 H         1 <0>         0.2679
     41 H18         1.2398   -4.0297   12.3026 H         1 <0>         0.4658
@<TRIPOS>BOND
     1    1    2 1
     2    1   25 1
     3    1   26 1
     4    1   27 1
     5    2    3 1
     6    3    8 ar
     7    3    4 ar
     8    4    5 ar
     9    4   28 1
    10    5    6 ar
    11    5   29 1
    12    6    7 ar
    13    6   10 1
    14    7    8 ar
    15    7   30 1
    16    8    9 1
    17   10   11 1
    18   10   31 1
    19   10   32 1
    20   11   12 2
    21   11   14 1
    22   12   13 1
    23   13   33 1
    24   14   15 2
    25   14   16 am
    26   16   17 1
    27   16   34 1
    28   17   18 1
    29   17   35 1
    30   17   36 1
    31   18   19 1
    32   18   37 1
    33   18   38 1
    34   19   24 1
    35   19   20 2
    36   20   21 1
    37   20   39 1
    38   21   22 1
    39   21   23 1
    40   23   24 2
    41   23   40 1
    42   24   41 1
@<TRIPOS>MOLECULE
ZINC03818809
   48    51     0     0     0
SMALL
USER_CHARGES
4-[2-[2-(2-methylpyrrolidin-1-yl)ethyl]benzofuran-5-yl]benzonitrile
@<TRIPOS>ATOM
      1 C1         -3.2172   10.1483   -2.7373 C.3       1 <0>        -0.1814
      2 C2         -3.8440    8.7528   -2.7156 C.3       1 <0>         0.0223
      3 H1         -3.3431    8.1076   -3.4374 H         1 <0>         0.1397
      4 C3         -5.3474    8.8473   -3.0507 C.3       1 <0>        -0.1390
      5 C4         -6.0180    8.8467   -1.6517 C.3       1 <0>        -0.1431
      6 C5         -5.0938    7.8864   -0.8622 C.3       1 <0>        -0.0135
      7 C6         -2.9092    6.9581   -1.3779 C.3       1 <0>        -0.0003
      8 C7         -2.6101    6.5283    0.0597 C.3       1 <0>        -0.0628
      9 C8         -1.7647    5.2809    0.0455 C.2       1 <0>         0.0021
     10 C9         -0.4251    5.2626    0.0329 C.2       1 <0>        -0.1659
     11 C10        -0.0356    3.8471    0.0221 C.ar      1 <0>        -0.1367
     12 C11         1.1830    3.1738    0.0073 C.ar      1 <0>        -0.0523
     13 C12         1.1935    1.7842    0.0002 C.ar      1 <0>        -0.0584
     14 C13        -0.0126    1.0758    0.0080 C.ar      1 <0>        -0.0686
     15 C14        -1.2083    1.7350    0.0172 C.ar      1 <0>        -0.1029
     16 C15        -1.2419    3.1252    0.0298 C.ar      1 <0>         0.0669
     17 O1         -2.2457    4.0255    0.0437 O.3       1 <0>        -0.1902
     18 C16         2.4830    1.0525   -0.0160 C.ar      1 <0>        -0.0199
     19 C17         3.6855    1.7599   -0.0294 C.ar      1 <0>        -0.1120
     20 C18         4.8833    1.0819   -0.0388 C.ar      1 <0>        -0.0647
     21 C19         4.8945   -0.3157   -0.0464 C.ar      1 <0>        -0.0195
     22 C20         3.6890   -1.0230   -0.0387 C.ar      1 <0>        -0.0637
     23 C21         2.4927   -0.3426   -0.0236 C.ar      1 <0>        -0.1102
     24 C22         6.1399   -1.0224   -0.0625 C.1       1 <0>         0.2433
     25 N1          7.1279   -1.5829   -0.0753 N.1       1 <0>        -0.4015
     26 H2         -2.1651   10.0784   -2.4612 H         1 <0>         0.0812
     27 H3         -3.3027   10.5695   -3.7390 H         1 <0>         0.1068
     28 H4         -3.7372   10.7913   -2.0272 H         1 <0>         0.0822
     29 H5         -5.5663    9.7732   -3.5826 H         1 <0>         0.1134
     30 H6         -5.6678    7.9827   -3.6320 H         1 <0>         0.0997
     31 H7         -6.0092    9.8449   -1.2141 H         1 <0>         0.0986
     32 H8         -7.0339    8.4553   -1.7058 H         1 <0>         0.1171
     33 H9         -5.3618    6.8495   -1.0651 H         1 <0>         0.1342
     34 H10        -5.1558    8.0931    0.2063 H         1 <0>         0.1346
     35 H11        -1.9733    7.1594   -1.8991 H         1 <0>         0.1351
     36 H12        -3.4467    6.1608   -1.8911 H         1 <0>         0.1344
     37 H13        -3.5460    6.3271    0.5810 H         1 <0>         0.1074
     38 H14        -2.0726    7.3257    0.5730 H         1 <0>         0.1173
     39 H15         0.2353    6.1172    0.0313 H         1 <0>         0.1631
     40 H16         2.1110    3.7262    0.0018 H         1 <0>         0.1379
     41 H17         0.0021   -0.0041    0.0020 H         1 <0>         0.1464
     42 H18        -2.1316    1.1746    0.0189 H         1 <0>         0.1398
     43 H19         3.6765    2.8398   -0.0280 H         1 <0>         0.1356
     44 H20         5.8141    1.6297   -0.0451 H         1 <0>         0.1382
     45 H21         3.6962   -2.1030   -0.0442 H         1 <0>         0.1393
     46 H22         1.5610   -0.8888   -0.0180 H         1 <0>         0.1384
     47 N2         -3.7387    8.1910   -1.3569 N.4       1 <0>        -0.3959
     48 H23        -3.2983    8.8808   -0.7369 H         1 <0>         0.4273
@<TRIPOS>BOND
     1    1    2 1
     2    1   26 1
     3    1   27 1
     4    1   28 1
     5    2    3 1
     6    2    4 1
     7    2   47 1
     8    4    5 1
     9    4   29 1
    10    4   30 1
    11    5    6 1
    12    5   31 1
    13    5   32 1
    14    6   33 1
    15    6   34 1
    16    6   47 1
    17    7    8 1
    18    7   35 1
    19    7   36 1
    20    7   47 1
    21    8    9 1
    22    8   37 1
    23    8   38 1
    24    9   17 1
    25    9   10 2
    26   10   11 1
    27   10   39 1
    28   11   16 ar
    29   11   12 ar
    30   12   13 ar
    31   12   40 1
    32   13   14 ar
    33   13   18 1
    34   14   15 ar
    35   14   41 1
    36   15   16 ar
    37   15   42 1
    38   16   17 1
    39   18   23 ar
    40   18   19 ar
    41   19   20 ar
    42   19   43 1
    43   20   21 ar
    44   20   44 1
    45   21   22 ar
    46   21   24 1
    47   22   23 ar
    48   22   45 1
    49   23   46 1
    50   24   25 3
    51   47   48 1
@<TRIPOS>MOLECULE
ZINC13589385
   48    51     0     0     0
SMALL
USER_CHARGES
4-[2-[2-[(2S)-2-methylpyrrolidin-1-yl]ethyl]benzofuran-5-yl]benzonitrile
@<TRIPOS>ATOM
      1 C1          3.7311    2.9048    0.5039 C.3       1 <0>        -0.1813
      2 C2          2.7228    4.0457    0.3541 C.3       1 <0>         0.0242
      3 H1          2.5211    4.4954    1.3263 H         1 <0>         0.1391
      4 C3          3.2772    5.1128   -0.6130 C.3       1 <0>        -0.1392
      5 C4          2.0192    5.5516   -1.4078 C.3       1 <0>        -0.1436
      6 C5          1.2403    4.2175   -1.5223 C.3       1 <0>        -0.0134
      7 C6          1.5288    2.0773   -0.4102 C.3       1 <0>        -0.0062
      8 C7          0.1522    1.5592   -0.8316 C.3       1 <0>        -0.0635
      9 C8          0.2125    0.0646   -1.0149 C.2       1 <0>         0.0030
     10 C9         -0.0271   -0.8362   -0.0525 C.2       1 <0>        -0.1665
     11 C10         0.1446   -2.1548   -0.6749 C.ar      1 <0>        -0.1364
     12 C11         0.0397   -3.4663   -0.2194 C.ar      1 <0>        -0.0524
     13 C12         0.2767   -4.5145   -1.1006 C.ar      1 <0>        -0.0584
     14 C13         0.6160   -4.2466   -2.4308 C.ar      1 <0>        -0.0687
     15 C14         0.7192   -2.9607   -2.8787 C.ar      1 <0>        -0.1029
     16 C15         0.4867   -1.8969   -2.0139 C.ar      1 <0>         0.0667
     17 O1          0.5088   -0.5575   -2.1692 O.3       1 <0>        -0.1902
     18 C16         0.1690   -5.9166   -0.6309 C.ar      1 <0>        -0.0199
     19 C17        -0.1639   -6.1830    0.6976 C.ar      1 <0>        -0.1120
     20 C18        -0.2690   -7.4843    1.1338 C.ar      1 <0>        -0.0647
     21 C19        -0.0312   -8.5389    0.2479 C.ar      1 <0>        -0.0195
     22 C20         0.3074   -8.2706   -1.0814 C.ar      1 <0>        -0.0638
     23 C21         0.4062   -6.9684   -1.5163 C.ar      1 <0>        -0.1102
     24 C22        -0.1338   -9.8932    0.7019 C.1       1 <0>         0.2433
     25 N1         -0.2153  -10.9675    1.0621 N.1       1 <0>        -0.4015
     26 H2          3.8683    2.4124   -0.4588 H         1 <0>         0.0817
     27 H3          4.6852    3.3058    0.8461 H         1 <0>         0.1042
     28 H4          3.3583    2.1835    1.2311 H         1 <0>         0.0831
     29 H5          3.6964    5.9534   -0.0601 H         1 <0>         0.1130
     30 H6          4.0245    4.6794   -1.2778 H         1 <0>         0.1000
     31 H7          1.4448    6.2926   -0.8517 H         1 <0>         0.0993
     32 H8          2.2920    5.9309   -2.3925 H         1 <0>         0.1171
     33 H9          1.6327    3.6184   -2.3439 H         1 <0>         0.1331
     34 H10         0.1771    4.4100   -1.6659 H         1 <0>         0.1351
     35 H11         1.8220    1.6076    0.5287 H         1 <0>         0.1391
     36 H12         2.2598    1.8351   -1.1815 H         1 <0>         0.1355
     37 H13        -0.1410    2.0289   -1.7704 H         1 <0>         0.1065
     38 H14        -0.5789    1.8015   -0.0602 H         1 <0>         0.1170
     39 H15        -0.2935   -0.6332    0.9742 H         1 <0>         0.1630
     40 H16        -0.2226   -3.6670    0.8088 H         1 <0>         0.1379
     41 H17         0.7986   -5.0654   -3.1109 H         1 <0>         0.1463
     42 H18         0.9827   -2.7693   -3.9084 H         1 <0>         0.1397
     43 H19        -0.3432   -5.3678    1.3830 H         1 <0>         0.1356
     44 H20        -0.5307   -7.6902    2.1611 H         1 <0>         0.1382
     45 H21         0.4917   -9.0846   -1.7668 H         1 <0>         0.1393
     46 H22         0.6677   -6.7608   -2.5433 H         1 <0>         0.1384
     47 N2          1.4614    3.5505   -0.2261 N.4       1 <0>        -0.3950
     48 H23         0.6849    3.7740    0.4073 H         1 <0>         0.4301
@<TRIPOS>BOND
     1    1    2 1
     2    1   26 1
     3    1   27 1
     4    1   28 1
     5    2    3 1
     6    2    4 1
     7    2   47 1
     8    4    5 1
     9    4   29 1
    10    4   30 1
    11    5    6 1
    12    5   31 1
    13    5   32 1
    14    6   33 1
    15    6   34 1
    16    6   47 1
    17    7    8 1
    18    7   35 1
    19    7   36 1
    20    7   47 1
    21    8    9 1
    22    8   37 1
    23    8   38 1
    24    9   17 1
    25    9   10 2
    26   10   11 1
    27   10   39 1
    28   11   16 ar
    29   11   12 ar
    30   12   13 ar
    31   12   40 1
    32   13   14 ar
    33   13   18 1
    34   14   15 ar
    35   14   41 1
    36   15   16 ar
    37   15   42 1
    38   16   17 1
    39   18   23 ar
    40   18   19 ar
    41   19   20 ar
    42   19   43 1
    43   20   21 ar
    44   20   44 1
    45   21   22 ar
    46   21   24 1
    47   22   23 ar
    48   22   45 1
    49   23   46 1
    50   24   25 3
    51   47   48 1
@<TRIPOS>MOLECULE
ZINC13795217
   18    18     0     0     0
SMALL
USER_CHARGES

@<TRIPOS>ATOM
      1 C1          0.0180   -1.1779   -0.0044 C.1       1 <0>        -0.1567
      2 C2          0.0021   -0.0041    0.0020 C.1       1 <0>        -0.2273
      3 C3         -0.0179    1.4678    0.0101 C.3       1 <0>        -0.0006
      4 C4          1.4175    1.9974   -0.0007 C.3       1 <0>        -0.0602
      5 C5          1.3971    3.5042    0.0075 C.2       1 <0>         0.0330
      6 C6          1.2751    4.2999   -1.0721 C.2       1 <0>         0.0361
      7 N1          1.3026    5.5908   -0.6177 N.pl3     1 <0>        -0.5093
      8 H1          1.2356    6.3931   -1.1589 H         1 <0>         0.4684
      9 C7          1.4405    5.5390    0.7247 C.cat     1 <0>         0.3070
     10 N2          1.4913    4.2878    1.0920 N.pl3     1 <0>        -0.4748
     11 H2          0.0322   -2.2278   -0.0102 H         1 <0>         0.2227
     12 H3         -0.5451    1.8289   -0.8729 H         1 <0>         0.0955
     13 H4         -0.5281    1.8193    0.9069 H         1 <0>         0.0882
     14 H5          1.9447    1.6363    0.8823 H         1 <0>         0.1007
     15 H6          1.9277    1.6458   -0.8975 H         1 <0>         0.1171
     16 H7          1.1752    3.9809   -2.0990 H         1 <0>         0.2278
     17 H8          1.4955    6.3917    1.3852 H         1 <0>         0.2670
     18 H9          1.5844    3.9740    2.0051 H         1 <0>         0.4654
@<TRIPOS>BOND
     1    1    2 3
     2    1   11 1
     3    2    3 1
     4    3    4 1
     5    3   12 1
     6    3   13 1
     7    4    5 1
     8    4   14 1
     9    4   15 1
    10    5   10 1
    11    5    6 2
    12    6    7 1
    13    6   16 1
    14    7    8 1
    15    7    9 1
    16    9   10 2
    17    9   17 1
    18   10   18 1
@<TRIPOS>MOLECULE
ZINC13795217
   17    17     0     0     0
SMALL
USER_CHARGES

@<TRIPOS>ATOM
      1 C1          0.0180   -1.1779   -0.0044 C.1       1 <0>        -0.1993
      2 C2          0.0021   -0.0041    0.0020 C.1       1 <0>        -0.1955
      3 C3         -0.0179    1.4678    0.0101 C.3       1 <0>        -0.0066
      4 C4          1.4175    1.9974   -0.0007 C.3       1 <0>        -0.0377
      5 C5          1.3971    3.5042    0.0075 C.2       1 <0>        -0.0281
      6 C6          1.2758    4.3113   -1.0637 C.2       1 <0>        -0.0190
      7 N1          1.3022    5.5808   -0.6318 N.2       1 <0>        -0.4939
      8 C7          1.4352    5.5911    0.6664 C.2       1 <0>         0.1859
      9 N2          1.4922    4.3155    1.1059 N.pl3     1 <0>        -0.5676
     10 H1          0.0322   -2.2278   -0.0102 H         1 <0>         0.2181
     11 H2         -0.5451    1.8289   -0.8729 H         1 <0>         0.0932
     12 H3         -0.5281    1.8193    0.9069 H         1 <0>         0.0841
     13 H4          1.9447    1.6363    0.8823 H         1 <0>         0.0744
     14 H5          1.9277    1.6458   -0.8975 H         1 <0>         0.0932
     15 H6          1.1750    3.9922   -2.0905 H         1 <0>         0.1701
     16 H7          1.4869    6.4736    1.2869 H         1 <0>         0.2091
     17 H8          1.5854    4.0279    2.0276 H         1 <0>         0.4196
@<TRIPOS>BOND
     1    1    2 3
     2    1   10 1
     3    2    3 1
     4    3    4 1
     5    3   11 1
     6    3   12 1
     7    4    5 1
     8    4   13 1
     9    4   14 1
    10    5    9 1
    11    5    6 2
    12    6    7 1
    13    6   15 1
    14    7    8 2
    15    8    9 1
    16    8   16 1
    17    9   17 1
@<TRIPOS>MOLECULE
ZINC04097188
   68    72     0     0     0
SMALL
USER_CHARGES

@<TRIPOS>ATOM
      1 C1         -0.0187    1.5258    0.0104 C.3       1 <0>        -0.1896
      2 C2          0.0021   -0.0041    0.0020 C.3       1 <0>         0.0255
      3 H1         -1.0107   -0.3920    0.1113 H         1 <0>         0.1397
      4 C3          0.6266   -0.5176   -1.3119 C.3       1 <0>        -0.0884
      5 H2         -0.1119   -0.6752   -2.0979 H         1 <0>         0.1302
      6 C4          1.7513    0.4610   -1.7327 C.3       1 <0>        -0.1475
      7 C5          3.0882   -0.3174   -1.6037 C.3       1 <0>        -0.1270
      8 C6          2.6513   -1.7814   -1.7325 C.3       1 <0>        -0.0772
      9 H3          2.4325   -2.0219   -2.7729 H         1 <0>         0.0970
     10 C7          1.3395   -1.8095   -0.8929 C.3       1 <0>        -0.0735
     11 C8          0.6189   -3.1144   -1.1352 C.3       1 <0>        -0.1068
     12 C9          1.5255   -4.2387   -0.6081 C.3       1 <0>        -0.1247
     13 C10         2.9025   -4.2081   -1.2664 C.3       1 <0>        -0.0754
     14 H4          2.7799   -4.4153   -2.3295 H         1 <0>         0.0765
     15 C11         3.6083   -2.8046   -1.1440 C.3       1 <0>        -0.0714
     16 H5          3.8076   -2.5762   -0.0970 H         1 <0>         0.0770
     17 C12         4.9054   -2.8147   -1.9610 C.3       1 <0>        -0.0900
     18 C13         5.7800   -3.9386   -1.4875 C.2       1 <0>        -0.1193
     19 C14         5.3091   -5.0156   -0.9305 C.2       1 <0>        -0.1319
     20 C15         3.7793   -5.2940   -0.6651 C.3       1 <0>        -0.0080
     21 C16         3.3854   -6.6607   -1.2326 C.3       1 <0>        -0.1059
     22 C17         4.2846   -7.7398   -0.6263 C.3       1 <0>        -0.1415
     23 C18         5.7383   -7.4868   -1.0294 C.3       1 <0>         0.0191
     24 H6          5.8126   -7.4485   -2.1162 H         1 <0>         0.1323
     25 C19         6.2918   -6.0912   -0.4987 C.3       1 <0>        -0.0926
     26 N1          6.5843   -8.5737   -0.5188 N.4       1 <0>        -0.3856
     27 C20         6.1344   -9.8521   -1.0856 C.3       1 <0>        -0.0533
     28 C21         7.9804   -8.3307   -0.9059 C.3       1 <0>        -0.0523
     29 C22         3.5249   -5.3314    0.8432 C.3       1 <0>        -0.1541
     30 C23         1.6785   -1.6179    0.5905 C.3       1 <0>        -0.0109
     31 N2          0.8553   -0.5039    1.0939 N.4       1 <0>        -0.3835
     32 C24         1.7293    0.5772    1.5687 C.3       1 <0>        -0.0584
     33 H7          0.9999    1.9024    0.1036 H         1 <0>         0.0926
     34 H8         -0.4565    1.8883   -0.9196 H         1 <0>         0.1058
     35 H9         -0.6143    1.8764    0.8533 H         1 <0>         0.0849
     36 H10         1.6026    0.7791   -2.7646 H         1 <0>         0.0891
     37 H11         1.7586    1.3277   -1.0717 H         1 <0>         0.0873
     38 H12         3.7708   -0.0468   -2.4093 H         1 <0>         0.0867
     39 H13         3.5471   -0.1364   -0.6316 H         1 <0>         0.0660
     40 H14        -0.3296   -3.1199   -0.5982 H         1 <0>         0.0755
     41 H15         0.4432   -3.2488   -2.2025 H         1 <0>         0.0875
     42 H16         1.6440   -4.1243    0.4694 H         1 <0>         0.0702
     43 H17         1.0549   -5.2004   -0.8126 H         1 <0>         0.0787
     44 H18         4.6701   -2.9562   -3.0158 H         1 <0>         0.0865
     45 H19         5.4269   -1.8668   -1.8277 H         1 <0>         0.0825
     46 H20         6.8487   -3.8493   -1.6154 H         1 <0>         0.1148
     47 H21         2.3454   -6.8718   -0.9837 H         1 <0>         0.0889
     48 H22         3.5061   -6.6531   -2.3159 H         1 <0>         0.0766
     49 H23         4.1999   -7.7141    0.4601 H         1 <0>         0.0908
     50 H24         3.9725   -8.7186   -0.9905 H         1 <0>         0.0937
     51 H25         7.2866   -5.8521   -0.8747 H         1 <0>         0.1020
     52 H26         6.3149   -6.1520    0.5894 H         1 <0>         0.0859
     53 H27         6.2087   -9.8138   -2.1724 H         1 <0>         0.1230
     54 H28         6.7622  -10.6586   -0.7067 H         1 <0>         0.1276
     55 H29         5.0985  -10.0324   -0.7983 H         1 <0>         0.1250
     56 H30         8.3143   -7.3822   -0.4853 H         1 <0>         0.1232
     57 H31         8.6082   -9.1372   -0.5270 H         1 <0>         0.1273
     58 H32         8.0547   -8.2924   -1.9927 H         1 <0>         0.1229
     59 H33         2.4738   -5.5523    1.0290 H         1 <0>         0.0706
     60 H34         4.1445   -6.1048    1.2971 H         1 <0>         0.0559
     61 H35         3.7751   -4.3637    1.2779 H         1 <0>         0.0573
     62 H36         1.4462   -2.5280    1.1437 H         1 <0>         0.1322
     63 H37         2.7357   -1.3763    0.7002 H         1 <0>         0.1342
     64 H38         1.1195    1.4035    1.9341 H         1 <0>         0.1302
     65 H39         2.3601    0.2062    2.3765 H         1 <0>         0.1217
     66 H40         2.3568    0.9241    0.7477 H         1 <0>         0.1231
     67 H41         0.2758   -0.8278    1.8537 H         1 <0>         0.4270
     68 H42         6.5156   -8.6091    0.4873 H         1 <0>         0.4242
@<TRIPOS>BOND
     1    1    2 1
     2    1   33 1
     3    1   34 1
     4    1   35 1
     5    2    3 1
     6    2   31 1
     7    2    4 1
     8    4    5 1
     9    4   10 1
    10    4    6 1
    11    6    7 1
    12    6   36 1
    13    6   37 1
    14    7    8 1
    15    7   38 1
    16    7   39 1
    17    8    9 1
    18    8   15 1
    19    8   10 1
    20   10   11 1
    21   10   30 1
    22   11   12 1
    23   11   40 1
    24   11   41 1
    25   12   13 1
    26   12   42 1
    27   12   43 1
    28   13   14 1
    29   13   20 1
    30   13   15 1
    31   15   16 1
    32   15   17 1
    33   17   18 1
    34   17   44 1
    35   17   45 1
    36   18   19 2
    37   18   46 1
    38   19   25 1
    39   19   20 1
    40   20   21 1
    41   20   29 1
    42   21   22 1
    43   21   47 1
    44   21   48 1
    45   22   23 1
    46   22   49 1
    47   22   50 1
    48   23   24 1
    49   23   25 1
    50   23   26 1
    51   25   51 1
    52   25   52 1
    53   26   27 1
    54   26   28 1
    55   26   68 1
    56   27   53 1
    57   27   54 1
    58   27   55 1
    59   28   56 1
    60   28   57 1
    61   28   58 1
    62   29   59 1
    63   29   60 1
    64   29   61 1
    65   30   31 1
    66   30   62 1
    67   30   63 1
    68   31   32 1
    69   31   67 1
    70   32   64 1
    71   32   65 1
    72   32   66 1
@<TRIPOS>MOLECULE
ZINC08699907
   33    34     0     0     0
SMALL
USER_CHARGES

@<TRIPOS>ATOM
      1 C1         -0.0167    1.3782    0.0096 C.ar      1 <0>        -0.0917
      2 C2          1.1707    2.0857    0.0021 C.ar      1 <0>        -0.0929
      3 C3          2.3778    1.4105   -0.0131 C.ar      1 <0>        -0.0820
      4 C4          2.3961    0.0274   -0.0207 C.ar      1 <0>        -0.0930
      5 C5          1.2082   -0.6793   -0.0132 C.ar      1 <0>        -0.0922
      6 C6          0.0021   -0.0041    0.0020 C.ar      1 <0>        -0.0840
      7 C7         -1.2928   -0.7750    0.0103 C.3       1 <0>         0.1047
      8 O1         -1.7149   -1.0115   -1.3343 O.3       1 <0>        -0.3814
      9 C8         -2.9400   -1.7396   -1.4394 C.3       1 <0>         0.0584
     10 C9         -3.2931   -1.9335   -2.9154 C.3       1 <0>        -0.1187
     11 C10        -4.6048   -2.7132   -3.0278 C.3       1 <0>        -0.0618
     12 C11        -4.9526   -2.9041   -4.4817 C.2       1 <0>         0.0656
     13 N1         -4.6601   -3.9957   -5.2540 N.pl3     1 <0>        -0.5109
     14 C12        -5.1506   -3.7543   -6.4888 C.cat     1 <0>         0.3053
     15 N2         -5.7181   -2.5792   -6.4913 N.pl3     1 <0>        -0.4725
     16 C13        -5.6159   -2.0361   -5.2691 C.2       1 <0>         0.0033
     17 Br1         4.0026    2.3779   -0.0240 Br        1 <0>        -0.0404
     18 H1         -0.9592    1.9053    0.0260 H         1 <0>         0.1330
     19 H2          1.1559    3.1656    0.0077 H         1 <0>         0.1372
     20 H3          3.3384   -0.5003   -0.0329 H         1 <0>         0.1369
     21 H4          1.2224   -1.7592   -0.0191 H         1 <0>         0.1324
     22 H5         -1.1448   -1.7283    0.5176 H         1 <0>         0.0643
     23 H6         -2.0553   -0.1990    0.5345 H         1 <0>         0.0651
     24 H7         -2.8262   -2.7130   -0.9621 H         1 <0>         0.0552
     25 H8         -3.7367   -1.1836   -0.9452 H         1 <0>         0.0578
     26 H9         -3.4069   -0.9602   -3.3926 H         1 <0>         0.0838
     27 H10        -2.4964   -2.4896   -3.4095 H         1 <0>         0.0768
     28 H11        -4.4909   -3.6865   -2.5506 H         1 <0>         0.1002
     29 H12        -5.4014   -2.1571   -2.5336 H         1 <0>         0.1168
     30 H13        -5.0840   -4.4229   -7.3344 H         1 <0>         0.2666
     31 H14        -5.9967   -1.0708   -4.9697 H         1 <0>         0.2248
     32 H15        -4.1886   -4.7936   -4.9678 H         1 <0>         0.4654
     33 H16        -6.1488   -2.1652   -7.2554 H         1 <0>         0.4678
@<TRIPOS>BOND
     1    1    6 ar
     2    1    2 ar
     3    1   18 1
     4    2    3 ar
     5    2   19 1
     6    3    4 ar
     7    3   17 1
     8    4    5 ar
     9    4   20 1
    10    5    6 ar
    11    5   21 1
    12    6    7 1
    13    7    8 1
    14    7   22 1
    15    7   23 1
    16    8    9 1
    17    9   10 1
    18    9   24 1
    19    9   25 1
    20   10   11 1
    21   10   26 1
    22   10   27 1
    23   11   28 1
    24   11   29 1
    25   11   12 1
    26   12   13 1
    27   12   16 2
    28   13   14 1
    29   13   32 1
    30   14   30 1
    31   14   15 2
    32   15   16 1
    33   15   33 1
    34   16   31 1
@<TRIPOS>MOLECULE
ZINC08699907
   33    34     0     0     0
SMALL
USER_CHARGES
4-[3-[(4-bromophenyl)methoxy]propyl]-1H-imidazole
@<TRIPOS>ATOM
      1 C1         -0.3087    6.2184    2.8717 C.ar      1 <0>        -0.0919
      2 C2         -0.2709    7.5971    2.7803 C.ar      1 <0>        -0.0927
      3 C3         -1.2963    8.2764    2.1475 C.ar      1 <0>        -0.0820
      4 C4         -2.3565    7.5752    1.6018 C.ar      1 <0>        -0.0930
      5 C5         -2.3908    6.1962    1.6891 C.ar      1 <0>        -0.0923
      6 C6         -1.3658    5.5177    2.3216 C.ar      1 <0>        -0.0841
      7 C7         -1.4039    4.0142    2.4170 C.3       1 <0>         0.1048
      8 O1         -0.7542    3.4480    1.2771 O.3       1 <0>        -0.3823
      9 C8         -0.7348    2.0192    1.2692 C.3       1 <0>         0.0586
     10 C9         -0.0187    1.5258    0.0104 C.3       1 <0>        -0.1227
     11 C10         0.0021   -0.0041    0.0020 C.3       1 <0>        -0.0624
     12 C11         0.7074   -0.4901   -1.2379 C.2       1 <0>         0.0368
     13 C12         1.7606   -1.3287   -1.2719 C.2       1 <0>         0.0318
     14 N1          2.0836   -1.5056   -2.5902 N.pl3     1 <0>        -0.5150
     15 H1          2.8238   -2.0745   -2.9486 H         1 <0>         0.4757
     16 C13         1.2159   -0.7684   -3.3164 C.cat     1 <0>         0.3051
     17 Br1        -1.2484   10.1630    2.0278 Br        1 <0>        -0.0402
     18 H2          0.4899    5.6882    3.3694 H         1 <0>         0.1329
     19 H3          0.5573    8.1441    3.2061 H         1 <0>         0.1372
     20 H4         -3.1571    8.1052    1.1073 H         1 <0>         0.1370
     21 H5         -3.2183    5.6487    1.2628 H         1 <0>         0.1324
     22 H6         -2.4404    3.6784    2.4485 H         1 <0>         0.0646
     23 H7         -0.8906    3.6946    3.3238 H         1 <0>         0.0651
     24 H8         -1.7574    1.6419    1.2770 H         1 <0>         0.0563
     25 H9         -0.2076    1.6581    2.1523 H         1 <0>         0.0582
     26 H10         1.0039    1.9031    0.0027 H         1 <0>         0.0829
     27 H11        -0.5459    1.8868   -0.8726 H         1 <0>         0.0719
     28 H12         0.5293   -0.3651    0.8851 H         1 <0>         0.1150
     29 H13        -1.0205   -0.3814    0.0098 H         1 <0>         0.1048
     30 H14         2.2554   -1.7755   -0.4222 H         1 <0>         0.2253
     31 H15         1.2029   -0.6919   -4.3936 H         1 <0>         0.2647
     32 N2          0.3937   -0.1685   -2.5008 N.pl3     1 <0>        -0.4832
     33 H16        -0.3737    0.4528   -2.7821 H         1 <0>         0.4804
@<TRIPOS>BOND
     1    1    6 ar
     2    1    2 ar
     3    1   18 1
     4    2    3 ar
     5    2   19 1
     6    3    4 ar
     7    3   17 1
     8    4    5 ar
     9    4   20 1
    10    5    6 ar
    11    5   21 1
    12    6    7 1
    13    7    8 1
    14    7   22 1
    15    7   23 1
    16    8    9 1
    17    9   10 1
    18    9   24 1
    19    9   25 1
    20   10   11 1
    21   10   26 1
    22   10   27 1
    23   11   12 1
    24   11   28 1
    25   11   29 1
    26   12   13 2
    27   12   32 1
    28   13   14 1
    29   13   30 1
    30   14   15 1
    31   14   16 1
    32   16   31 1
    33   16   32 2
    34   32   33 1
@<TRIPOS>MOLECULE
ZINC08699907
   32    33     0     0     0
SMALL
USER_CHARGES

@<TRIPOS>ATOM
      1 C1         -0.0167    1.3782    0.0096 C.ar      1 <0>        -0.0919
      2 C2          1.1707    2.0857    0.0021 C.ar      1 <0>        -0.0934
      3 C3          2.3778    1.4105   -0.0131 C.ar      1 <0>        -0.0851
      4 C4          2.3961    0.0274   -0.0207 C.ar      1 <0>        -0.0938
      5 C5          1.2082   -0.6793   -0.0132 C.ar      1 <0>        -0.0926
      6 C6          0.0021   -0.0041    0.0020 C.ar      1 <0>        -0.0754
      7 C7         -1.2928   -0.7750    0.0103 C.3       1 <0>         0.1010
      8 O1         -1.7149   -1.0115   -1.3343 O.3       1 <0>        -0.3806
      9 C8         -2.9400   -1.7396   -1.4394 C.3       1 <0>         0.0611
     10 C9         -3.2931   -1.9335   -2.9154 C.3       1 <0>        -0.1090
     11 C10        -4.6048   -2.7132   -3.0278 C.3       1 <0>        -0.0301
     12 C11        -4.9526   -2.9041   -4.4817 C.2       1 <0>         0.0031
     13 C12        -5.2012   -4.0806   -5.0879 C.2       1 <0>        -0.0548
     14 N1         -5.4732   -3.8004   -6.3999 N.pl3     1 <0>        -0.5712
     15 C13        -5.3812   -2.4615   -6.5497 C.2       1 <0>         0.1860
     16 N2         -5.0744   -1.9316   -5.3973 N.2       1 <0>        -0.4882
     17 Br1         4.0026    2.3779   -0.0240 Br        1 <0>        -0.0488
     18 H1         -0.9592    1.9053    0.0260 H         1 <0>         0.1337
     19 H2          1.1559    3.1656    0.0077 H         1 <0>         0.1353
     20 H3          3.3384   -0.5003   -0.0329 H         1 <0>         0.1350
     21 H4          1.2224   -1.7592   -0.0191 H         1 <0>         0.1331
     22 H5         -1.1448   -1.7283    0.5176 H         1 <0>         0.0609
     23 H6         -2.0553   -0.1990    0.5345 H         1 <0>         0.0615
     24 H7         -2.8262   -2.7130   -0.9621 H         1 <0>         0.0494
     25 H8         -3.7367   -1.1836   -0.9452 H         1 <0>         0.0511
     26 H9         -3.4069   -0.9602   -3.3926 H         1 <0>         0.0792
     27 H10        -2.4964   -2.4896   -3.4095 H         1 <0>         0.0680
     28 H11        -4.4909   -3.6865   -2.5506 H         1 <0>         0.0754
     29 H12        -5.4014   -2.1571   -2.5336 H         1 <0>         0.0761
     30 H13        -5.1881   -5.0575   -4.6276 H         1 <0>         0.1759
     31 H14        -5.5394   -1.9187   -7.4699 H         1 <0>         0.2082
     32 H15        -5.6912   -4.4435   -7.0925 H         1 <0>         0.4211
@<TRIPOS>BOND
     1    1    6 ar
     2    1    2 ar
     3    1   18 1
     4    2    3 ar
     5    2   19 1
     6    3    4 ar
     7    3   17 1
     8    4    5 ar
     9    4   20 1
    10    5    6 ar
    11    5   21 1
    12    6    7 1
    13    7    8 1
    14    7   22 1
    15    7   23 1
    16    8    9 1
    17    9   10 1
    18    9   24 1
    19    9   25 1
    20   10   11 1
    21   10   26 1
    22   10   27 1
    23   11   28 1
    24   11   29 1
    25   11   12 1
    26   12   16 1
    27   12   13 2
    28   13   30 1
    29   13   14 1
    30   14   15 1
    31   14   32 1
    32   15   31 1
    33   15   16 2
@<TRIPOS>MOLECULE
ZINC08699907
   32    33     0     0     0
SMALL
USER_CHARGES

@<TRIPOS>ATOM
      1 C1         -0.0167    1.3782    0.0096 C.ar      1 <0>        -0.0917
      2 C2          1.1707    2.0857    0.0021 C.ar      1 <0>        -0.0932
      3 C3          2.3778    1.4105   -0.0131 C.ar      1 <0>        -0.0844
      4 C4          2.3961    0.0274   -0.0207 C.ar      1 <0>        -0.0936
      5 C5          1.2082   -0.6793   -0.0132 C.ar      1 <0>        -0.0926
      6 C6          0.0021   -0.0041    0.0020 C.ar      1 <0>        -0.0771
      7 C7         -1.2928   -0.7750    0.0103 C.3       1 <0>         0.1017
      8 O1         -1.7149   -1.0115   -1.3343 O.3       1 <0>        -0.3809
      9 C8         -2.9400   -1.7396   -1.4394 C.3       1 <0>         0.0610
     10 C9         -3.2931   -1.9335   -2.9154 C.3       1 <0>        -0.1139
     11 C10        -4.6048   -2.7132   -3.0278 C.3       1 <0>        -0.0401
     12 C11        -4.9526   -2.9041   -4.4817 C.2       1 <0>        -0.0249
     13 N1         -4.6601   -3.9957   -5.2540 N.pl3     1 <0>        -0.5678
     14 C12        -5.1506   -3.7543   -6.4888 C.2       1 <0>         0.1848
     15 N2         -5.7181   -2.5792   -6.4913 N.2       1 <0>        -0.4938
     16 C13        -5.6159   -2.0361   -5.2691 C.2       1 <0>        -0.0204
     17 Br1         4.0026    2.3779   -0.0240 Br        1 <0>        -0.0472
     18 H1         -0.9592    1.9053    0.0260 H         1 <0>         0.1337
     19 H2          1.1559    3.1656    0.0077 H         1 <0>         0.1358
     20 H3          3.3384   -0.5003   -0.0329 H         1 <0>         0.1354
     21 H4          1.2224   -1.7592   -0.0191 H         1 <0>         0.1328
     22 H5         -1.1448   -1.7283    0.5176 H         1 <0>         0.0614
     23 H6         -2.0553   -0.1990    0.5345 H         1 <0>         0.0626
     24 H7         -2.8262   -2.7130   -0.9621 H         1 <0>         0.0503
     25 H8         -3.7367   -1.1836   -0.9452 H         1 <0>         0.0538
     26 H9         -3.4069   -0.9602   -3.3926 H         1 <0>         0.0785
     27 H10        -2.4964   -2.4896   -3.4095 H         1 <0>         0.0695
     28 H11        -4.4909   -3.6865   -2.5506 H         1 <0>         0.0723
     29 H12        -5.4014   -2.1571   -2.5336 H         1 <0>         0.0911
     30 H13        -5.0840   -4.4229   -7.3344 H         1 <0>         0.2086
     31 H14        -5.9967   -1.0708   -4.9697 H         1 <0>         0.1691
     32 H15        -4.1886   -4.7936   -4.9678 H         1 <0>         0.4191
@<TRIPOS>BOND
     1    1    6 ar
     2    1    2 ar
     3    1   18 1
     4    2    3 ar
     5    2   19 1
     6    3    4 ar
     7    3   17 1
     8    4    5 ar
     9    4   20 1
    10    5    6 ar
    11    5   21 1
    12    6    7 1
    13    7    8 1
    14    7   22 1
    15    7   23 1
    16    8    9 1
    17    9   10 1
    18    9   24 1
    19    9   25 1
    20   10   11 1
    21   10   26 1
    22   10   27 1
    23   11   28 1
    24   11   29 1
    25   11   12 1
    26   12   13 1
    27   12   16 2
    28   13   14 1
    29   13   32 1
    30   14   30 1
    31   14   15 2
    32   15   16 1
    33   16   31 1
@<TRIPOS>MOLECULE
ZINC13813304
   33    34     0     0     0
SMALL
USER_CHARGES

@<TRIPOS>ATOM
      1 C1         -0.0167    1.3781    0.0096 C.ar      1 <0>        -0.1090
      2 C2          1.1709    2.0855    0.0021 C.ar      1 <0>        -0.1220
      3 C3          2.3773    1.4107   -0.0130 C.ar      1 <0>        -0.0987
      4 C4          2.3960    0.0285   -0.0201 C.ar      1 <0>        -0.1000
      5 C5          1.2084   -0.6789   -0.0117 C.ar      1 <0>        -0.0992
      6 C6          0.0021   -0.0041    0.0020 C.ar      1 <0>        -0.1222
      7 C7          3.7112   -0.7071   -0.0376 C.3       1 <0>         0.1067
      8 O1          4.1410   -0.9464    1.3041 O.3       1 <0>        -0.3820
      9 C8          5.3853   -1.6423    1.4004 C.3       1 <0>         0.0581
     10 C9          5.7451   -1.8423    2.8740 C.3       1 <0>        -0.1184
     11 C10         7.0774   -2.5874    2.9771 C.3       1 <0>        -0.0619
     12 C11         7.4318   -2.7844    4.4286 C.2       1 <0>         0.0660
     13 C12         8.0620   -1.9026    5.2279 C.2       1 <0>         0.0031
     14 N1          8.1866   -2.4586    6.4421 N.pl3     1 <0>        -0.4725
     15 C13         7.6575   -3.6514    6.4256 C.cat     1 <0>         0.3049
     16 N2          7.1697   -3.8916    5.1895 N.pl3     1 <0>        -0.5108
     17 H1          6.7195   -4.6988    4.8952 H         1 <0>         0.4654
     18 H2         -0.9591    1.9053    0.0259 H         1 <0>         0.1260
     19 H3          1.1563    3.1654    0.0076 H         1 <0>         0.1263
     20 H4          3.3051    1.9634   -0.0196 H         1 <0>         0.1226
     21 H5          1.2231   -1.7588   -0.0176 H         1 <0>         0.1220
     22 H6         -0.9258   -0.5567    0.0082 H         1 <0>         0.1261
     23 H7          3.5884   -1.6586   -0.5549 H         1 <0>         0.0609
     24 H8          4.4573   -0.1052   -0.5563 H         1 <0>         0.0617
     25 H9          5.2973   -2.6133    0.9129 H         1 <0>         0.0542
     26 H10         6.1662   -1.0598    0.9116 H         1 <0>         0.0568
     27 H11         5.8332   -0.8714    3.3615 H         1 <0>         0.0835
     28 H12         4.9642   -2.4248    3.3629 H         1 <0>         0.0765
     29 H13         6.9894   -3.5584    2.4896 H         1 <0>         0.1001
     30 H14         7.8583   -2.0049    2.4883 H         1 <0>         0.1168
     31 H15         8.4067   -0.9200    4.9414 H         1 <0>         0.2248
     32 H16         7.6135   -4.3321    7.2630 H         1 <0>         0.2666
     33 H17         8.6043   -2.0402    7.2111 H         1 <0>         0.4677
@<TRIPOS>BOND
     1    1    6 ar
     2    1    2 ar
     3    1   18 1
     4    2    3 ar
     5    2   19 1
     6    3    4 ar
     7    3   20 1
     8    4    5 ar
     9    4    7 1
    10    5    6 ar
    11    5   21 1
    12    6   22 1
    13    7    8 1
    14    7   23 1
    15    7   24 1
    16    8    9 1
    17    9   10 1
    18    9   25 1
    19    9   26 1
    20   10   11 1
    21   10   27 1
    22   10   28 1
    23   11   12 1
    24   11   29 1
    25   11   30 1
    26   12   16 1
    27   12   13 2
    28   13   14 1
    29   13   31 1
    30   14   15 2
    31   14   33 1
    32   15   16 1
    33   15   32 1
    34   16   17 1
@<TRIPOS>MOLECULE
ZINC13813304
   32    33     0     0     0
SMALL
USER_CHARGES

@<TRIPOS>ATOM
      1 C1         -0.0167    1.3781    0.0096 C.ar      1 <0>        -0.1143
      2 C2          1.1709    2.0855    0.0021 C.ar      1 <0>        -0.1233
      3 C3          2.3773    1.4107   -0.0130 C.ar      1 <0>        -0.0988
      4 C4          2.3960    0.0285   -0.0201 C.ar      1 <0>        -0.0920
      5 C5          1.2084   -0.6789   -0.0117 C.ar      1 <0>        -0.0994
      6 C6          0.0021   -0.0041    0.0020 C.ar      1 <0>        -0.1238
      7 C7          3.7112   -0.7071   -0.0376 C.3       1 <0>         0.1032
      8 O1          4.1410   -0.9464    1.3041 O.3       1 <0>        -0.3813
      9 C8          5.3853   -1.6423    1.4004 C.3       1 <0>         0.0608
     10 C9          5.7451   -1.8423    2.8740 C.3       1 <0>        -0.1088
     11 C10         7.0774   -2.5874    2.9771 C.3       1 <0>        -0.0303
     12 C11         7.4318   -2.7844    4.4286 C.2       1 <0>         0.0035
     13 C12         7.7127   -3.9601    5.0221 C.2       1 <0>        -0.0550
     14 N1          7.9784   -3.6866    6.3367 N.pl3     1 <0>        -0.5713
     15 C13         7.8505   -2.3523    6.5009 C.2       1 <0>         0.1857
     16 N2          7.5284   -1.8187    5.3544 N.2       1 <0>        -0.4882
     17 H1         -0.9591    1.9053    0.0259 H         1 <0>         0.1230
     18 H2          1.1563    3.1654    0.0076 H         1 <0>         0.1241
     19 H3          3.3051    1.9634   -0.0196 H         1 <0>         0.1230
     20 H4          1.2231   -1.7588   -0.0176 H         1 <0>         0.1224
     21 H5         -0.9258   -0.5567    0.0082 H         1 <0>         0.1238
     22 H6          3.5884   -1.6586   -0.5549 H         1 <0>         0.0575
     23 H7          4.4573   -0.1052   -0.5563 H         1 <0>         0.0580
     24 H8          5.2973   -2.6133    0.9129 H         1 <0>         0.0484
     25 H9          6.1662   -1.0598    0.9116 H         1 <0>         0.0500
     26 H10         5.8332   -0.8714    3.3615 H         1 <0>         0.0789
     27 H11         4.9642   -2.4248    3.3629 H         1 <0>         0.0677
     28 H12         6.9894   -3.5584    2.4897 H         1 <0>         0.0753
     29 H13         7.8583   -2.0049    2.4883 H         1 <0>         0.0760
     30 H14         7.7254   -4.9321    4.5514 H         1 <0>         0.1759
     31 H15         7.9950   -1.8153    7.4267 H         1 <0>         0.2082
     32 H16         8.2144   -4.3309    7.0224 H         1 <0>         0.4210
@<TRIPOS>BOND
     1    1    6 ar
     2    1    2 ar
     3    1   17 1
     4    2    3 ar
     5    2   18 1
     6    3    4 ar
     7    3   19 1
     8    4    5 ar
     9    4    7 1
    10    5    6 ar
    11    5   20 1
    12    6   21 1
    13    7    8 1
    14    7   22 1
    15    7   23 1
    16    8    9 1
    17    9   10 1
    18    9   24 1
    19    9   25 1
    20   10   11 1
    21   10   26 1
    22   10   27 1
    23   11   28 1
    24   11   29 1
    25   11   12 1
    26   12   16 1
    27   12   13 2
    28   13   30 1
    29   13   14 1
    30   14   15 1
    31   14   32 1
    32   15   31 1
    33   15   16 2
@<TRIPOS>MOLECULE
ZINC13813304
   32    33     0     0     0
SMALL
USER_CHARGES

@<TRIPOS>ATOM
      1 C1         -0.0167    1.3781    0.0096 C.ar      1 <0>        -0.1132
      2 C2          1.1709    2.0855    0.0021 C.ar      1 <0>        -0.1229
      3 C3          2.3773    1.4107   -0.0130 C.ar      1 <0>        -0.0986
      4 C4          2.3960    0.0285   -0.0201 C.ar      1 <0>        -0.0937
      5 C5          1.2084   -0.6789   -0.0117 C.ar      1 <0>        -0.0994
      6 C6          0.0021   -0.0041    0.0020 C.ar      1 <0>        -0.1234
      7 C7          3.7112   -0.7071   -0.0376 C.3       1 <0>         0.1038
      8 O1          4.1410   -0.9464    1.3041 O.3       1 <0>        -0.3815
      9 C8          5.3853   -1.6423    1.4004 C.3       1 <0>         0.0607
     10 C9          5.7451   -1.8423    2.8740 C.3       1 <0>        -0.1137
     11 C10         7.0774   -2.5874    2.9771 C.3       1 <0>        -0.0402
     12 C11         7.4318   -2.7844    4.4286 C.2       1 <0>        -0.0244
     13 C12         8.0620   -1.9026    5.2279 C.2       1 <0>        -0.0207
     14 N1          8.1866   -2.4586    6.4421 N.2       1 <0>        -0.4938
     15 C13         7.6575   -3.6514    6.4256 C.2       1 <0>         0.1844
     16 N2          7.1697   -3.8916    5.1895 N.pl3     1 <0>        -0.5678
     17 H1          6.7195   -4.6988    4.8952 H         1 <0>         0.4191
     18 H2         -0.9591    1.9053    0.0259 H         1 <0>         0.1237
     19 H3          1.1563    3.1654    0.0076 H         1 <0>         0.1247
     20 H4          3.3051    1.9634   -0.0196 H         1 <0>         0.1231
     21 H5          1.2231   -1.7588   -0.0176 H         1 <0>         0.1221
     22 H6         -0.9258   -0.5567    0.0082 H         1 <0>         0.1242
     23 H7          3.5884   -1.6586   -0.5549 H         1 <0>         0.0580
     24 H8          4.4573   -0.1052   -0.5563 H         1 <0>         0.0591
     25 H9          5.2973   -2.6133    0.9129 H         1 <0>         0.0493
     26 H10         6.1662   -1.0598    0.9116 H         1 <0>         0.0528
     27 H11         5.8332   -0.8714    3.3615 H         1 <0>         0.0782
     28 H12         4.9642   -2.4248    3.3629 H         1 <0>         0.0692
     29 H13         6.9894   -3.5584    2.4896 H         1 <0>         0.0722
     30 H14         7.8583   -2.0049    2.4883 H         1 <0>         0.0910
     31 H15         8.4067   -0.9200    4.9414 H         1 <0>         0.1691
     32 H16         7.6135   -4.3321    7.2630 H         1 <0>         0.2085
@<TRIPOS>BOND
     1    1    6 ar
     2    1    2 ar
     3    1   18 1
     4    2    3 ar
     5    2   19 1
     6    3    4 ar
     7    3   20 1
     8    4    5 ar
     9    4    7 1
    10    5    6 ar
    11    5   21 1
    12    6   22 1
    13    7    8 1
    14    7   23 1
    15    7   24 1
    16    8    9 1
    17    9   10 1
    18    9   25 1
    19    9   26 1
    20   10   11 1
    21   10   27 1
    22   10   28 1
    23   11   12 1
    24   11   29 1
    25   11   30 1
    26   12   16 1
    27   12   13 2
    28   13   14 1
    29   13   31 1
    30   14   15 2
    31   15   16 1
    32   15   32 1
    33   16   17 1
@<TRIPOS>MOLECULE
ZINC05425255
   23    23     0     0     0
SMALL
USER_CHARGES

@<TRIPOS>ATOM
      1 C1         -0.0165    1.3646    0.0095 C.2       1 <0>         0.0534
      2 C2          1.2671    1.7717   -0.0005 C.2       1 <0>         0.0154
      3 N1          2.0482    0.6814   -0.0138 N.pl3     1 <0>        -0.4756
      4 H1         -0.7708   -0.5902    0.0060 H         1 <0>         0.4736
      5 C3          1.2973   -0.3859   -0.0124 C.cat     1 <0>         0.3267
      6 N2          0.0021   -0.0041    0.0020 N.pl3     1 <0>        -0.5083
      7 C4          1.7427    3.2017    0.0026 C.3       1 <0>        -0.0449
      8 C5          1.7980    3.7176    1.4420 C.3       1 <0>        -0.1498
      9 S1          2.3704    5.4389    1.4457 S.3       1 <0>         0.0829
     10 C6          2.3798    5.8813    3.1513 C.cat     1 <0>         0.4865
     11 N3          3.2533    6.7821    3.6014 N.pl3     1 <0>        -0.7266
     12 N4          1.5135    5.3152    3.9914 N.pl3     1 <0>        -0.7640
     13 H2         -0.8922    1.9965    0.0253 H         1 <0>         0.2304
     14 H3          1.6529   -1.4057   -0.0218 H         1 <0>         0.2722
     15 H4          2.7369    3.2550   -0.4409 H         1 <0>         0.1188
     16 H5          1.0529    3.8153   -0.5770 H         1 <0>         0.1334
     17 H6          0.8038    3.6644    1.8855 H         1 <0>         0.1179
     18 H7          2.4878    3.1041    2.0215 H         1 <0>         0.1201
     19 H8          3.8837    7.1940    2.9900 H         1 <0>         0.4543
     20 H9          0.8779    4.6597    3.6639 H         1 <0>         0.4407
     21 H10         1.5187    5.5587    4.9303 H         1 <0>         0.4366
     22 H11         3.2584    7.0256    4.5403 H         1 <0>         0.4388
     23 H12         3.0181    0.6856   -0.0234 H         1 <0>         0.4676
@<TRIPOS>BOND
     1    1    6 1
     2    1    2 2
     3    1   13 1
     4    2    3 1
     5    2    7 1
     6    3    5 2
     7    3   23 1
     8    4    6 1
     9    5   14 1
    10    5    6 1
    11    7    8 1
    12    7   15 1
    13    7   16 1
    14    8    9 1
    15    8   17 1
    16    8   18 1
    17    9   10 1
    18   10   11 2
    19   10   12 1
    20   11   19 1
    21   11   22 1
    22   12   20 1
    23   12   21 1
@<TRIPOS>MOLECULE
ZINC05425255
   22    22     0     0     0
SMALL
USER_CHARGES

@<TRIPOS>ATOM
      1 C1         -0.0165    1.3646    0.0095 C.2       1 <0>        -0.0313
      2 C2          1.2671    1.7717   -0.0005 C.2       1 <0>        -0.0163
      3 N1          2.0482    0.6814   -0.0138 N.2       1 <0>        -0.4937
      4 H1         -0.7708   -0.5902    0.0060 H         1 <0>         0.4283
      5 C3          1.2973   -0.3859   -0.0124 C.2       1 <0>         0.1996
      6 N2          0.0021   -0.0041    0.0020 N.pl3     1 <0>        -0.5648
      7 C4          1.7427    3.2017    0.0026 C.3       1 <0>        -0.0137
      8 C5          2.7000    3.4183    1.1763 C.3       1 <0>        -0.1205
      9 S1          3.2724    5.1396    1.1801 S.3       1 <0>         0.0524
     10 C6          4.3507    5.2272    2.5708 C.cat     1 <0>         0.4880
     11 N3          5.3767    6.0782    2.5662 N.pl3     1 <0>        -0.7379
     12 N4          4.1406    4.4424    3.6276 N.pl3     1 <0>        -0.7646
     13 H2         -0.8922    1.9965    0.0253 H         1 <0>         0.1812
     14 H3          1.6529   -1.4057   -0.0218 H         1 <0>         0.2134
     15 H4          2.2605    3.4145   -0.9326 H         1 <0>         0.0965
     16 H5          0.8868    3.8690    0.1039 H         1 <0>         0.0958
     17 H6          2.1821    3.2055    2.1116 H         1 <0>         0.1056
     18 H7          3.5559    2.7510    1.0750 H         1 <0>         0.1241
     19 H8          5.5296    6.6493    1.7972 H         1 <0>         0.4511
     20 H9          3.3940    3.8231    3.6310 H         1 <0>         0.4433
     21 H10         4.7342    4.4906    4.3932 H         1 <0>         0.4310
     22 H11         5.9703    6.1264    3.3318 H         1 <0>         0.4326
@<TRIPOS>BOND
     1    1    6 1
     2    1    2 2
     3    1   13 1
     4    2    3 1
     5    2    7 1
     6    3    5 2
     7    4    6 1
     8    5   14 1
     9    5    6 1
    10    7    8 1
    11    7   15 1
    12    7   16 1
    13    8    9 1
    14    8   17 1
    15    8   18 1
    16    9   10 1
    17   10   11 2
    18   10   12 1
    19   11   19 1
    20   11   22 1
    21   12   20 1
    22   12   21 1
@<TRIPOS>MOLECULE
ZINC28825320
   52    54     0     0     0
SMALL
USER_CHARGES
4-[[3-[4-(1-piperidyl)but-1-ynyl]phenyl]methyl]morpholine
@<TRIPOS>ATOM
      1 C1          1.1717    1.7833    0.0004 C.ar      1 <0>        -0.1156
      2 C2          1.1546    3.1668    0.0071 C.ar      1 <0>        -0.0925
      3 C3         -0.0483    3.8495    0.0218 C.ar      1 <0>        -0.0758
      4 C4         -1.2399    3.1537    0.0299 C.ar      1 <0>        -0.0662
      5 C5         -1.2296    1.7586    0.0174 C.ar      1 <0>        -0.0152
      6 C6         -0.0126    1.0758    0.0080 C.ar      1 <0>        -0.0863
      7 C7         -2.4627    1.0304    0.0198 C.1       1 <0>        -0.0621
      8 C8         -3.4735    0.4334    0.0217 C.1       1 <0>        -0.2146
      9 C9         -4.7410   -0.3151    0.0242 C.3       1 <0>        -0.0142
     10 C10        -5.9137    0.6676    0.0349 C.3       1 <0>        -0.0041
     11 N1         -7.1785   -0.0794    0.0374 N.4       1 <0>        -0.3978
     12 C11        -7.3519   -0.8248   -1.2159 C.3       1 <0>        -0.0113
     13 C12        -8.6024   -1.7019   -1.1205 C.3       1 <0>        -0.1465
     14 C13        -9.8231   -0.8153   -0.8591 C.3       1 <0>        -0.1415
     15 C14        -9.5962   -0.0140    0.4258 C.3       1 <0>        -0.1468
     16 C15        -8.3170    0.8143    0.2856 C.3       1 <0>        -0.0039
     17 C16        -0.0575    5.3565    0.0294 C.3       1 <0>         0.0883
     18 N2         -0.0734    5.8531   -1.3530 N.3       1 <0>        -0.5323
     19 C17         1.1797    5.5211   -2.0465 C.3       1 <0>         0.0106
     20 C18         1.0968    6.0030   -3.4973 C.3       1 <0>         0.0619
     21 O1          0.8247    7.4070   -3.5132 O.3       1 <0>        -0.3823
     22 C19        -0.3888    7.7658   -2.8470 C.3       1 <0>         0.0617
     23 C20        -0.3210    7.3018   -1.3896 C.3       1 <0>         0.0150
     24 H1          2.1142    1.2561   -0.0110 H         1 <0>         0.1341
     25 H2          2.0845    3.7160    0.0005 H         1 <0>         0.1281
     26 H3         -2.1785    3.6879    0.0417 H         1 <0>         0.1269
     27 H4          0.0021   -0.0041    0.0020 H         1 <0>         0.1280
     28 H5         -4.7975   -0.9435   -0.8768 H         1 <0>         0.1071
     29 H6         -4.7886   -0.9526    0.9194 H         1 <0>         0.1086
     30 H7         -5.8572    1.2960    0.9359 H         1 <0>         0.1358
     31 H8         -5.8661    1.3051   -0.8603 H         1 <0>         0.1314
     32 H9         -7.4636   -0.1174   -2.0508 H         1 <0>         0.1269
     33 H10        -6.4711   -1.4605   -1.3893 H         1 <0>         0.1319
     34 H11        -8.7397   -2.2486   -2.0651 H         1 <0>         0.1121
     35 H12        -8.4848   -2.4196   -0.2952 H         1 <0>         0.0889
     36 H13        -9.9633   -0.1258   -1.7047 H         1 <0>         0.0811
     37 H14       -10.7174   -1.4461   -0.7482 H         1 <0>         0.0945
     38 H15       -10.4520    0.6558    0.5961 H         1 <0>         0.1124
     39 H16        -9.4964   -0.7048    1.2760 H         1 <0>         0.0889
     40 H17        -8.1436    1.3801    1.2128 H         1 <0>         0.1312
     41 H18        -8.4242    1.5141   -0.5563 H         1 <0>         0.1262
     42 H19        -0.9530    5.7150    0.5581 H         1 <0>         0.0888
     43 H20         0.8432    5.7261    0.5414 H         1 <0>         0.0521
     44 H21         2.0212    6.0172   -1.5408 H         1 <0>         0.0468
     45 H22         1.3315    4.4318   -2.0280 H         1 <0>         0.0897
     46 H23         2.0534    5.8072   -4.0039 H         1 <0>         0.1015
     47 H24         0.2900    5.4653   -4.0168 H         1 <0>         0.0589
     48 H25        -0.5164    8.8579   -2.8806 H         1 <0>         0.1026
     49 H26        -1.2396    7.2816   -3.3488 H         1 <0>         0.0594
     50 H27        -1.2742    7.5237   -0.8874 H         1 <0>         0.0887
     51 H28         0.4963    7.8266   -0.8733 H         1 <0>         0.0479
     52 H29        -7.1401   -0.8096    0.8592 H         1 <0>         0.4407
@<TRIPOS>BOND
     1    1    6 ar
     2    1    2 ar
     3    1   24 1
     4    2    3 ar
     5    2   25 1
     6    3    4 ar
     7    3   17 1
     8    4    5 ar
     9    4   26 1
    10    5    6 ar
    11    5    7 1
    12    6   27 1
    13    7    8 3
    14    8    9 1
    15    9   10 1
    16    9   28 1
    17    9   29 1
    18   10   11 1
    19   10   30 1
    20   10   31 1
    21   11   16 1
    22   11   12 1
    23   11   52 1
    24   12   13 1
    25   12   32 1
    26   12   33 1
    27   13   14 1
    28   13   34 1
    29   13   35 1
    30   14   15 1
    31   14   36 1
    32   14   37 1
    33   15   16 1
    34   15   38 1
    35   15   39 1
    36   16   40 1
    37   16   41 1
    38   17   18 1
    39   17   42 1
    40   17   43 1
    41   18   23 1
    42   18   19 1
    43   19   20 1
    44   19   44 1
    45   19   45 1
    46   20   21 1
    47   20   46 1
    48   20   47 1
    49   21   22 1
    50   22   23 1
    51   22   48 1
    52   22   49 1
    53   23   50 1
    54   23   51 1
@<TRIPOS>MOLECULE
ZINC15880092
   23    23     0     0     0
SMALL
USER_CHARGES

@<TRIPOS>ATOM
      1 C1         -0.0178    1.4648    0.0101 C.3       1 <0>        -0.0466
      2 N1          0.0021   -0.0041    0.0020 N.4       1 <0>        -0.5096
      3 C2          0.6897   -0.4778   -1.2066 C.3       1 <0>        -0.0037
      4 C3          0.7104   -2.0077   -1.2150 C.3       1 <0>        -0.0892
      5 C4          1.4158   -2.4937   -2.4549 C.ar      1 <0>         0.1036
      6 C5          2.4849   -3.3618   -2.3367 C.ar      1 <0>        -0.1588
      7 C6          3.1268   -3.8029   -3.4835 C.ar      1 <0>        -0.0671
      8 C7          2.6674   -3.3523   -4.7118 C.ar      1 <0>        -0.1570
      9 C8          1.5926   -2.4847   -4.7517 C.ar      1 <0>         0.1084
     10 N2          1.0026   -2.0900   -3.6402 N.ar      1 <0>        -0.4859
     11 H1          1.0047    1.8421    0.0024 H         1 <0>         0.1230
     12 H2         -0.5450    1.8259   -0.8730 H         1 <0>         0.1243
     13 H3         -0.5280    1.8163    0.9069 H         1 <0>         0.1273
     14 H4          0.4901   -0.3383    0.8195 H         1 <0>         0.4295
     15 H5          0.1625   -0.1167   -2.0897 H         1 <0>         0.1416
     16 H6          1.7123   -0.1005   -1.2143 H         1 <0>         0.1306
     17 H7          1.2376   -2.3687   -0.3319 H         1 <0>         0.1018
     18 H8         -0.3122   -2.3849   -1.2073 H         1 <0>         0.1046
     19 H9          2.8161   -3.6920   -1.3632 H         1 <0>         0.1387
     20 H10         3.9651   -4.4811   -3.4217 H         1 <0>         0.1436
     21 H11         3.1438   -3.6750   -5.6257 H         1 <0>         0.1447
     22 H12         1.2288   -2.1292   -5.7044 H         1 <0>         0.1649
     23 H13        -0.9445   -0.3533    0.0092 H         1 <0>         0.4314
@<TRIPOS>BOND
     1    1    2 1
     2    1   11 1
     3    1   12 1
     4    1   13 1
     5    2    3 1
     6    2   14 1
     7    2   23 1
     8    3    4 1
     9    3   15 1
    10    3   16 1
    11    4    5 1
    12    4   17 1
    13    4   18 1
    14    5   10 ar
    15    5    6 ar
    16    6    7 ar
    17    6   19 1
    18    7    8 ar
    19    7   20 1
    20    8    9 ar
    21    8   21 1
    22    9   10 ar
    23    9   22 1
@<TRIPOS>MOLECULE
ZINC29130875
   35    36     0     0     0
SMALL
USER_CHARGES
1-[2-(2-methoxyphenyl)ethyl]pyrrolidine
@<TRIPOS>ATOM
      1 C1          5.5655    2.1460   -3.4781 C.3       1 <0>         0.0201
      2 O1          5.1688    1.9904   -2.1141 O.3       1 <0>        -0.3236
      3 C2          6.0974    1.4957   -1.2540 C.ar      1 <0>         0.1357
      4 C3          7.3648    1.1670   -1.7134 C.ar      1 <0>        -0.2034
      5 C4          8.3070    0.6648   -0.8372 C.ar      1 <0>        -0.0645
      6 C5          7.9881    0.4894    0.4969 C.ar      1 <0>        -0.1507
      7 C6          6.7278    0.8210    0.9582 C.ar      1 <0>        -0.0717
      8 C7          5.7801    1.3188    0.0847 C.ar      1 <0>        -0.1398
      9 C8          4.4047    1.6752    0.5871 C.3       1 <0>        -0.0892
     10 C9          3.4568    0.4962    0.3583 C.3       1 <0>        -0.0035
     11 N1          2.1161    0.8436    0.8481 N.4       1 <0>        -0.4064
     12 C10         1.4937    1.8807   -0.0021 C.3       1 <0>        -0.0107
     13 C11        -0.0190    1.5472    0.0105 C.3       1 <0>        -0.1439
     14 C12         0.0021   -0.0041    0.0020 C.3       1 <0>        -0.1408
     15 C13         1.2367   -0.3397    0.8648 C.3       1 <0>        -0.0043
     16 H1          4.7252    2.5521   -4.0603 H         1 <0>         0.1067
     17 H2          5.8575    1.1682   -3.8888 H         1 <0>         0.0613
     18 H3          6.4191    2.8374   -3.5351 H         1 <0>         0.0629
     19 H4          7.6144    1.3042   -2.7552 H         1 <0>         0.1343
     20 H5          9.2937    0.4092   -1.1943 H         1 <0>         0.1326
     21 H6          8.7262    0.0965    1.1805 H         1 <0>         0.1318
     22 H7          6.4825    0.6869    2.0014 H         1 <0>         0.1321
     23 H8          4.4545    1.9023    1.6622 H         1 <0>         0.0933
     24 H9          4.0324    2.5559    0.0432 H         1 <0>         0.0960
     25 H10         3.4070    0.2691   -0.7169 H         1 <0>         0.1270
     26 H11         3.8291   -0.3845    0.9022 H         1 <0>         0.1292
     27 H12         1.6957    2.8743    0.4245 H         1 <0>         0.1312
     28 H13         1.9151    1.8247   -1.0166 H         1 <0>         0.1291
     29 H14        -0.4801    1.9698    0.9154 H         1 <0>         0.0977
     30 H15        -0.4972    1.9795   -0.8808 H         1 <0>         0.1143
     31 H16        -0.9336   -0.3859    0.4365 H         1 <0>         0.1131
     32 H17         0.0993   -0.3638   -1.0330 H         1 <0>         0.0985
     33 H18         1.7761   -1.2033    0.4485 H         1 <0>         0.1281
     34 H19         0.9368   -0.5591    1.9001 H         1 <0>         0.1321
     35 H20         2.2408    1.2256    1.8721 H         1 <0>         0.4450
@<TRIPOS>BOND
     1    1    2 1
     2    1   16 1
     3    1   17 1
     4    1   18 1
     5    2    3 1
     6    3    8 ar
     7    3    4 ar
     8    4    5 ar
     9    4   19 1
    10    5    6 ar
    11    5   20 1
    12    6    7 ar
    13    6   21 1
    14    7    8 ar
    15    7   22 1
    16    8    9 1
    17    9   10 1
    18    9   23 1
    19    9   24 1
    20   10   11 1
    21   10   25 1
    22   10   26 1
    23   11   15 1
    24   11   12 1
    25   11   35 1
    26   12   13 1
    27   12   27 1
    28   12   28 1
    29   13   14 1
    30   13   29 1
    31   13   30 1
    32   14   15 1
    33   14   31 1
    34   14   32 1
    35   15   33 1
    36   15   34 1
@<TRIPOS>MOLECULE
ZINC13108134
   45    47     0     0     0
SMALL
USER_CHARGES

@<TRIPOS>ATOM
      1 C1         -0.0199    1.3395    0.0024 C.2       1 <0>         0.0064
      2 C2          1.2554    1.7720   -0.0081 C.2       1 <0>         0.0672
      3 N1          2.0511    0.6584   -0.0267 N.pl3     1 <0>        -0.5106
      4 H1          3.0210    0.6441   -0.0376 H         1 <0>         0.4636
      5 C3          1.2338   -0.4166   -0.0268 C.cat     1 <0>         0.3070
      6 N2         -0.0033   -0.0016   -0.0094 N.pl3     1 <0>        -0.4716
      7 C4          1.7176    3.2064   -0.0013 C.3       1 <0>        -0.0300
      8 C5          1.9762    3.6655   -1.4382 C.3       1 <0>        -0.1277
      9 C6          2.4124    5.1340   -1.4300 C.3       1 <0>         0.1020
     10 N3          3.5670    5.2793   -0.5331 N.pl3     1 <0>        -0.5817
     11 C7          3.4561    4.7869    0.8468 C.3       1 <0>         0.0974
     12 C8          3.0081    3.3223    0.8131 C.3       1 <0>        -0.1362
     13 C9          4.7065    5.8530   -0.9679 C.2       1 <0>         0.5634
     14 S1          4.8665    6.2992   -2.6130 S.2       1 <0>        -0.6245
     15 N4          5.7199    6.0755   -0.1077 N.pl3     1 <0>        -0.6784
     16 C10         6.9143    6.7970   -0.5537 C.3       1 <0>         0.1390
     17 C11         6.6752    8.3033   -0.4326 C.3       1 <0>        -0.1253
     18 C12         7.9226    9.0568   -0.8984 C.3       1 <0>        -0.1161
     19 C13         9.1147    8.6579   -0.0263 C.3       1 <0>        -0.1249
     20 C14         9.3539    7.1516   -0.1474 C.3       1 <0>        -0.1154
     21 C15         8.1064    6.3981    0.3184 C.3       1 <0>        -0.1258
     22 H2         -0.9014    1.9632    0.0217 H         1 <0>         0.2255
     23 H3          1.5514   -1.4488   -0.0393 H         1 <0>         0.2669
     24 H4          0.9475    3.8339    0.4472 H         1 <0>         0.1243
     25 H5          2.7637    3.0545   -1.8792 H         1 <0>         0.0764
     26 H6          1.0627    3.5607   -2.0236 H         1 <0>         0.0957
     27 H7          2.6928    5.4375   -2.4387 H         1 <0>         0.1389
     28 H8          1.5921    5.7569   -1.0735 H         1 <0>         0.0852
     29 H9          4.4251    4.8614    1.3403 H         1 <0>         0.0880
     30 H10         2.7209    5.3815    1.3889 H         1 <0>         0.0928
     31 H11         2.8291    2.9732    1.8300 H         1 <0>         0.0932
     32 H12         3.7859    2.7145    0.3508 H         1 <0>         0.0723
     33 H13         5.6583    5.7578    0.8068 H         1 <0>         0.3933
     34 H14         7.1241    6.5448   -1.5932 H         1 <0>         0.1206
     35 H15         5.8259    8.5875   -1.0539 H         1 <0>         0.0770
     36 H16         6.4654    8.5554    0.6069 H         1 <0>         0.0591
     37 H17         8.1324    8.8047   -1.9379 H         1 <0>         0.0705
     38 H18         7.7522   10.1300   -0.8121 H         1 <0>         0.0692
     39 H19        10.0034    9.1947   -0.3581 H         1 <0>         0.0689
     40 H20         8.9050    8.9101    1.0132 H         1 <0>         0.0622
     41 H21         9.5637    6.8995   -1.1869 H         1 <0>         0.0699
     42 H22        10.2032    6.8674    0.4739 H         1 <0>         0.0708
     43 H23         7.8967    6.6502    1.3579 H         1 <0>         0.0660
     44 H24         8.2768    5.3249    0.2321 H         1 <0>         0.0672
     45 H25        -0.7872   -0.5729   -0.0051 H         1 <0>         0.4684
@<TRIPOS>BOND
     1    1    6 1
     2    1    2 2
     3    1   22 1
     4    2    3 1
     5    2    7 1
     6    3    4 1
     7    3    5 1
     8    5    6 2
     9    5   23 1
    10    6   45 1
    11    7   12 1
    12    7    8 1
    13    7   24 1
    14    8    9 1
    15    8   25 1
    16    8   26 1
    17    9   10 1
    18    9   27 1
    19    9   28 1
    20   10   11 1
    21   10   13 1
    22   11   12 1
    23   11   29 1
    24   11   30 1
    25   12   31 1
    26   12   32 1
    27   13   14 2
    28   13   15 1
    29   15   16 1
    30   15   33 1
    31   16   21 1
    32   16   17 1
    33   16   34 1
    34   17   18 1
    35   17   35 1
    36   17   36 1
    37   18   19 1
    38   18   37 1
    39   18   38 1
    40   19   20 1
    41   19   39 1
    42   19   40 1
    43   20   21 1
    44   20   41 1
    45   20   42 1
    46   21   43 1
    47   21   44 1
@<TRIPOS>MOLECULE
ZINC13108134
   45    47     0     0     0
SMALL
USER_CHARGES

@<TRIPOS>ATOM
      1 C1         -0.0111    1.3583    0.0120 C.2       1 <0>         0.0383
      2 C2          1.2720    1.7671    0.0013 C.2       1 <0>         0.0369
      3 N1          2.0544    0.6778   -0.0124 N.pl3     1 <0>        -0.4750
      4 C3          1.3050   -0.3905   -0.0106 C.cat     1 <0>         0.3075
      5 N2          0.0092   -0.0103    0.0045 N.pl3     1 <0>        -0.5077
      6 H1         -0.7629   -0.5975    0.0094 H         1 <0>         0.4689
      7 C4          1.7456    3.1978    0.0042 C.3       1 <0>        -0.0302
      8 C5          2.0381    3.6351    1.4413 C.3       1 <0>        -0.1285
      9 C6          2.4861    5.1000    1.4439 C.3       1 <0>         0.1035
     10 N3          3.6227    5.2486    0.5247 N.pl3     1 <0>        -0.5814
     11 C7          3.4787    4.7761   -0.8590 C.3       1 <0>         0.0976
     12 C8          3.0196    3.3147   -0.8357 C.3       1 <0>        -0.1373
     13 C9          4.7754    5.8081    0.9429 C.2       1 <0>         0.5626
     14 S1          4.8832    6.4711    2.5176 S.2       1 <0>        -0.6224
     15 N4          5.8431    5.8456    0.1213 N.pl3     1 <0>        -0.6791
     16 C10         7.1274    6.3518    0.6118 C.3       1 <0>         0.1383
     17 C11         7.8881    5.2222    1.3092 C.3       1 <0>        -0.1224
     18 C12         9.2293    5.7510    1.8215 C.3       1 <0>        -0.1165
     19 C13        10.0558    6.2713    0.6438 C.3       1 <0>        -0.1242
     20 C14         9.2951    7.4009   -0.0536 C.3       1 <0>        -0.1161
     21 C15         7.9539    6.8722   -0.5659 C.3       1 <0>        -0.1265
     22 H2         -0.8877    1.9890    0.0282 H         1 <0>         0.2279
     23 H3          1.6618   -1.4098   -0.0202 H         1 <0>         0.2669
     24 H4          0.9714    3.8375   -0.4194 H         1 <0>         0.1239
     25 H5          1.1364    3.5294    2.0444 H         1 <0>         0.0962
     26 H6          2.8297    3.0118    1.8573 H         1 <0>         0.0744
     27 H7          1.6635    5.7343    1.1133 H         1 <0>         0.0859
     28 H8          2.7901    5.3874    2.4504 H         1 <0>         0.1371
     29 H9          2.7371    5.3839   -1.3773 H         1 <0>         0.0936
     30 H10         4.4376    4.8497   -1.3719 H         1 <0>         0.0879
     31 H11         3.8019    2.6945   -0.3983 H         1 <0>         0.0712
     32 H12         2.8164    2.9810   -1.8533 H         1 <0>         0.0934
     33 H13         5.7612    5.5374   -0.7948 H         1 <0>         0.3930
     34 H14         6.9521    7.1625    1.3191 H         1 <0>         0.1214
     35 H15         7.2992    4.8515    2.1482 H         1 <0>         0.0749
     36 H16         8.0633    4.4115    0.6020 H         1 <0>         0.0564
     37 H17         9.0540    6.5617    2.5287 H         1 <0>         0.0714
     38 H18         9.7712    4.9462    2.3183 H         1 <0>         0.0679
     39 H19        11.0113    6.6480    1.0087 H         1 <0>         0.0690
     40 H20        10.2310    5.4606   -0.0635 H         1 <0>         0.0612
     41 H21         9.1199    8.2116    0.6536 H         1 <0>         0.0709
     42 H22         9.8839    7.7716   -0.8926 H         1 <0>         0.0714
     43 H23         8.1291    6.0615   -1.2731 H         1 <0>         0.0649
     44 H24         7.4119    7.6769   -1.0627 H         1 <0>         0.0700
     45 H25         3.0244    0.6833   -0.0225 H         1 <0>         0.4628
@<TRIPOS>BOND
     1    1    5 1
     2    1    2 2
     3    1   22 1
     4    2    3 1
     5    2    7 1
     6    3    4 2
     7    3   45 1
     8    4    5 1
     9    4   23 1
    10    5    6 1
    11    7   12 1
    12    7    8 1
    13    7   24 1
    14    8    9 1
    15    8   25 1
    16    8   26 1
    17    9   10 1
    18    9   27 1
    19    9   28 1
    20   10   11 1
    21   10   13 1
    22   11   12 1
    23   11   29 1
    24   11   30 1
    25   12   31 1
    26   12   32 1
    27   13   14 2
    28   13   15 1
    29   15   16 1
    30   15   33 1
    31   16   21 1
    32   16   17 1
    33   16   34 1
    34   17   18 1
    35   17   35 1
    36   17   36 1
    37   18   19 1
    38   18   37 1
    39   18   38 1
    40   19   20 1
    41   19   39 1
    42   19   40 1
    43   20   21 1
    44   20   41 1
    45   20   42 1
    46   21   43 1
    47   21   44 1
@<TRIPOS>MOLECULE
ZINC13108134
   44    46     0     0     0
SMALL
USER_CHARGES

@<TRIPOS>ATOM
      1 C1         -0.0228    1.3648    0.0142 C.2       1 <0>        -0.0496
      2 C2          1.2612    1.7707    0.0029 C.2       1 <0>         0.0065
      3 N1          2.0412    0.6796   -0.0102 N.2       1 <0>        -0.4899
      4 C3          1.2893   -0.3870   -0.0075 C.2       1 <0>         0.1866
      5 N2         -0.0055   -0.0039    0.0076 N.pl3     1 <0>        -0.5696
      6 H1         -0.7790   -0.5893    0.0131 H         1 <0>         0.4218
      7 C4          1.7382    3.2002    0.0047 C.3       1 <0>        -0.0028
      8 C5          0.7707    4.0615   -0.8104 C.3       1 <0>        -0.1243
      9 C6          1.2771    5.5071   -0.8353 C.3       1 <0>         0.1037
     10 N3          1.4729    5.9634    0.5475 N.pl3     1 <0>        -0.5686
     11 C7          2.3131    5.1586    1.4448 C.3       1 <0>         0.0956
     12 C8          1.7950    3.7169    1.4441 C.3       1 <0>        -0.1204
     13 C9          0.8931    7.0990    0.9844 C.2       1 <0>         0.5693
     14 S1          0.0257    8.0922   -0.1074 S.2       1 <0>        -0.6496
     15 N4          0.9963    7.4526    2.2809 N.pl3     1 <0>        -0.6848
     16 C10         0.2746    8.6259    2.7797 C.3       1 <0>         0.1416
     17 C11        -1.1535    8.2249    3.1547 C.3       1 <0>        -0.1252
     18 C12        -1.9071    9.4502    3.6757 C.3       1 <0>        -0.1150
     19 C13        -1.1916   10.0022    4.9103 C.3       1 <0>        -0.1234
     20 C14         0.2365   10.4032    4.5354 C.3       1 <0>        -0.1144
     21 C15         0.9902    9.1778    4.0144 C.3       1 <0>        -0.1272
     22 H2         -0.8979    1.9976    0.0302 H         1 <0>         0.1742
     23 H3          1.6439   -1.4071   -0.0165 H         1 <0>         0.2086
     24 H4          2.7323    3.2519   -0.4392 H         1 <0>         0.0883
     25 H5          0.7129    3.6787   -1.8294 H         1 <0>         0.0864
     26 H6         -0.2181    4.0302   -0.3529 H         1 <0>         0.0707
     27 H7          2.2242    5.5533   -1.3729 H         1 <0>         0.0798
     28 H8          0.5427    6.1431   -1.3295 H         1 <0>         0.1295
     29 H9          3.3446    5.1764    1.0931 H         1 <0>         0.0876
     30 H10         2.2621    5.5647    2.4550 H         1 <0>         0.0788
     31 H11         0.7966    3.6889    1.8804 H         1 <0>         0.0695
     32 H12         2.4663    3.0889    2.0298 H         1 <0>         0.0845
     33 H13         1.5484    6.9303    2.8836 H         1 <0>         0.3942
     34 H14         0.2454    9.3913    2.0043 H         1 <0>         0.1192
     35 H15        -1.6632    7.8317    2.2751 H         1 <0>         0.0770
     36 H16        -1.1242    7.4595    3.9302 H         1 <0>         0.0572
     37 H17        -1.9364   10.2156    2.9002 H         1 <0>         0.0698
     38 H18        -2.9246    9.1645    3.9428 H         1 <0>         0.0659
     39 H19        -1.7285   10.8751    5.2815 H         1 <0>         0.0658
     40 H20        -1.1624    9.2368    5.6858 H         1 <0>         0.0609
     41 H21         0.2072   11.1686    3.7599 H         1 <0>         0.0693
     42 H22         0.7463   10.7964    5.4149 H         1 <0>         0.0685
     43 H23         1.0194    8.4124    4.7898 H         1 <0>         0.0650
     44 H24         2.0076    9.4635    3.7473 H         1 <0>         0.0690
@<TRIPOS>BOND
     1    1    5 1
     2    1    2 2
     3    1   22 1
     4    2    3 1
     5    2    7 1
     6    3    4 2
     7    4    5 1
     8    4   23 1
     9    5    6 1
    10    7   12 1
    11    7    8 1
    12    7   24 1
    13    8    9 1
    14    8   25 1
    15    8   26 1
    16    9   10 1
    17    9   27 1
    18    9   28 1
    19   10   11 1
    20   10   13 1
    21   11   12 1
    22   11   29 1
    23   11   30 1
    24   12   31 1
    25   12   32 1
    26   13   14 2
    27   13   15 1
    28   15   16 1
    29   15   33 1
    30   16   21 1
    31   16   17 1
    32   16   34 1
    33   17   18 1
    34   17   35 1
    35   17   36 1
    36   18   19 1
    37   18   37 1
    38   18   38 1
    39   19   20 1
    40   19   39 1
    41   19   40 1
    42   20   21 1
    43   20   41 1
    44   20   42 1
    45   21   43 1
    46   21   44 1
@<TRIPOS>MOLECULE
ZINC13108134
   44    46     0     0     0
SMALL
USER_CHARGES

@<TRIPOS>ATOM
      1 C1         -0.0123    1.3344    0.0219 C.2       1 <0>        -0.0175
      2 C2          1.2619    1.7699    0.0072 C.2       1 <0>        -0.0222
      3 N1          2.0603    0.6581   -0.0070 N.pl3     1 <0>        -0.5669
      4 H1          3.0301    0.6461   -0.0194 H         1 <0>         0.4194
      5 C3          1.2456   -0.4188   -0.0005 C.2       1 <0>         0.1870
      6 N2          0.0075   -0.0067    0.0168 N.2       1 <0>        -0.4926
      7 C4          1.7207    3.2054    0.0062 C.3       1 <0>        -0.0100
      8 C5          1.7765    3.7238    1.4450 C.3       1 <0>        -0.1233
      9 C6          2.2762    5.1720    1.4427 C.3       1 <0>         0.1024
     10 N3          1.4225    5.9654    0.5481 N.pl3     1 <0>        -0.5710
     11 C7          1.2272    5.5055   -0.8337 C.3       1 <0>         0.0963
     12 C8          0.7393    4.0537   -0.8058 C.3       1 <0>        -0.1223
     13 C9          0.8294    7.0934    0.9867 C.2       1 <0>         0.5692
     14 S1          0.9576    7.5432    2.6335 S.2       1 <0>        -0.6448
     15 N4          0.1353    7.8672    0.1288 N.pl3     1 <0>        -0.6833
     16 C10        -0.4165    9.1473    0.5793 C.3       1 <0>         0.1411
     17 C11         0.6546   10.2336    0.4630 C.3       1 <0>        -0.1255
     18 C12         0.0782   11.5706    0.9334 C.3       1 <0>        -0.1151
     19 C13        -1.1227   11.9432    0.0618 C.3       1 <0>        -0.1235
     20 C14        -2.1939   10.8569    0.1780 C.3       1 <0>        -0.1145
     21 C15        -1.6175    9.5199   -0.2924 C.3       1 <0>        -0.1270
     22 H2         -0.8953    1.9560    0.0395 H         1 <0>         0.1658
     23 H3          1.5656   -1.4503   -0.0084 H         1 <0>         0.2090
     24 H4          2.7125    3.2693   -0.4414 H         1 <0>         0.0804
     25 H5          0.7802    3.6835    1.8852 H         1 <0>         0.0788
     26 H6          2.4579    3.1048    2.0286 H         1 <0>         0.0820
     27 H7          2.2241    5.5781    2.4528 H         1 <0>         0.1325
     28 H8          3.3062    5.2026    1.0871 H         1 <0>         0.0770
     29 H9          0.4829    6.1318   -1.3255 H         1 <0>         0.0822
     30 H10         2.1716    5.5633   -1.3749 H         1 <0>         0.0854
     31 H11         0.6824    3.6694   -1.8242 H         1 <0>         0.0876
     32 H12        -0.2473    4.0102   -0.3444 H         1 <0>         0.0791
     33 H13         0.0012    7.5765   -0.7868 H         1 <0>         0.3942
     34 H14        -0.7346    9.0604    1.6182 H         1 <0>         0.1194
     35 H15         1.5102    9.9682    1.0840 H         1 <0>         0.0770
     36 H16         0.9727   10.3205   -0.5759 H         1 <0>         0.0577
     37 H17        -0.2399   11.4837    1.9723 H         1 <0>         0.0698
     38 H18         0.8413   12.3445    0.8506 H         1 <0>         0.0664
     39 H19        -1.5333   12.8957    0.3969 H         1 <0>         0.0661
     40 H20        -0.8046   12.0301   -0.9771 H         1 <0>         0.0612
     41 H21        -2.5120   10.7700    1.2170 H         1 <0>         0.0693
     42 H22        -3.0495   11.1223   -0.4429 H         1 <0>         0.0688
     43 H23        -1.2994    9.6068   -1.3313 H         1 <0>         0.0653
     44 H24        -2.3806    8.7460   -0.2096 H         1 <0>         0.0691
@<TRIPOS>BOND
     1    1    6 1
     2    1    2 2
     3    1   22 1
     4    2    3 1
     5    2    7 1
     6    3    4 1
     7    3    5 1
     8    5    6 2
     9    5   23 1
    10    7   12 1
    11    7    8 1
    12    7   24 1
    13    8    9 1
    14    8   25 1
    15    8   26 1
    16    9   10 1
    17    9   27 1
    18    9   28 1
    19   10   11 1
    20   10   13 1
    21   11   12 1
    22   11   29 1
    23   11   30 1
    24   12   31 1
    25   12   32 1
    26   13   14 2
    27   13   15 1
    28   15   16 1
    29   15   33 1
    30   16   21 1
    31   16   17 1
    32   16   34 1
    33   17   18 1
    34   17   35 1
    35   17   36 1
    36   18   19 1
    37   18   37 1
    38   18   38 1
    39   19   20 1
    40   19   39 1
    41   19   40 1
    42   20   21 1
    43   20   41 1
    44   20   42 1
    45   21   43 1
    46   21   44 1
@<TRIPOS>MOLECULE
ZINC22112721
   21    21     0     0     0
SMALL
USER_CHARGES

@<TRIPOS>ATOM
      1 C1         -0.0187    1.5258    0.0104 C.3       1 <0>        -0.1842
      2 C2          0.0021   -0.0041    0.0020 C.3       1 <0>         0.0346
      3 H1          0.5123   -0.3556   -0.8948 H         1 <0>         0.1477
      4 C3         -1.4333   -0.5336    0.0129 C.3       1 <0>        -0.0503
      5 C4         -1.4159   -2.0348   -0.1192 C.2       1 <0>        -0.0556
      6 C5         -2.0004   -2.9099    0.7211 C.2       1 <0>        -0.0335
      7 N1         -1.7413   -4.1619    0.2321 N.pl3     1 <0>        -0.5621
      8 H2         -2.0310   -5.0025    0.6197 H         1 <0>         0.4316
      9 C6         -1.0070   -4.0081   -0.8908 C.2       1 <0>         0.2070
     10 N2         -0.8206   -2.7331   -1.0974 N.2       1 <0>        -0.4911
     11 N3          0.7126   -0.4907    1.1921 N.4       1 <0>        -0.6344
     12 H3          1.0039    1.9031    0.0027 H         1 <0>         0.0834
     13 H4         -0.5459    1.8868   -0.8726 H         1 <0>         0.1076
     14 H5         -0.5289    1.8773    0.9072 H         1 <0>         0.0819
     15 H6         -1.9156   -0.2570    0.9504 H         1 <0>         0.0992
     16 H7         -1.9862   -0.1019   -0.8214 H         1 <0>         0.1207
     17 H8         -2.5648   -2.6701    1.6101 H         1 <0>         0.1825
     18 H9         -0.6386   -4.8076   -1.5164 H         1 <0>         0.2170
     19 H10         0.2403   -0.1653    2.0223 H         1 <0>         0.4299
     20 H11         0.7262   -1.4996    1.1866 H         1 <0>         0.4331
     21 H12         1.6592   -0.1415    1.1850 H         1 <0>         0.4350
@<TRIPOS>BOND
     1    1    2 1
     2    1   12 1
     3    1   13 1
     4    1   14 1
     5    2    3 1
     6    2    4 1
     7    2   11 1
     8    4    5 1
     9    4   15 1
    10    4   16 1
    11    5   10 1
    12    5    6 2
    13    6    7 1
    14    6   17 1
    15    7    8 1
    16    7    9 1
    17    9   10 2
    18    9   18 1
    19   11   19 1
    20   11   20 1
    21   11   21 1
@<TRIPOS>MOLECULE
ZINC00393798
   30    31     0     0     0
SMALL
USER_CHARGES
2-(2-pyrrolidin-1-ylethyl)pyridine
@<TRIPOS>ATOM
      1 C1          1.1736    1.7941    0.0005 C.ar      1 <0>        -0.0671
      2 C2         -0.0126    1.0758    0.0080 C.ar      1 <0>        -0.1578
      3 C3         -1.2136    1.7592    0.0173 C.ar      1 <0>         0.1087
      4 N1         -1.2394    3.0777    0.0305 N.ar      1 <0>        -0.4856
      5 C4         -0.1317    3.7930    0.0238 C.ar      1 <0>         0.1053
      6 C5          1.1065    3.1788    0.0086 C.ar      1 <0>        -0.1594
      7 C6         -0.2167    5.2976    0.0322 C.3       1 <0>        -0.0870
      8 C7         -1.0830    5.7661   -1.1387 C.3       1 <0>         0.0088
      9 C8          0.1880    7.8420   -1.0826 C.3       1 <0>        -0.0117
     10 C9         -0.0526    9.2815   -1.6026 C.3       1 <0>        -0.1477
     11 C10        -1.1128    9.0767   -2.7090 C.3       1 <0>        -0.1472
     12 C11        -1.7904    7.7353   -2.3733 C.3       1 <0>        -0.0093
     13 H1          2.1270    1.2869   -0.0110 H         1 <0>         0.1433
     14 H2          0.0021   -0.0041    0.0020 H         1 <0>         0.1445
     15 H3         -2.1418    1.2071    0.0183 H         1 <0>         0.1648
     16 H4          2.0102    3.7701    0.0035 H         1 <0>         0.1380
     17 H5         -0.6617    5.6311    0.9697 H         1 <0>         0.1035
     18 H6          0.7840    5.7186   -0.0650 H         1 <0>         0.1004
     19 H7         -0.6380    5.4325   -2.0761 H         1 <0>         0.1254
     20 H8         -2.0837    5.3451   -1.0415 H         1 <0>         0.1405
     21 H9          0.5656    7.8604   -0.0602 H         1 <0>         0.1376
     22 H10         0.8745    7.3060   -1.7378 H         1 <0>         0.1332
     23 H11         0.8639    9.6993   -2.0193 H         1 <0>         0.1153
     24 H12        -0.4420    9.9185   -0.8085 H         1 <0>         0.0983
     25 H13        -0.6340    9.0245   -3.6868 H         1 <0>         0.1025
     26 H14        -1.8433    9.8855   -2.6873 H         1 <0>         0.1047
     27 H15        -1.6288    7.0246   -3.1838 H         1 <0>         0.1298
     28 H16        -2.8583    7.8876   -2.2169 H         1 <0>         0.1336
     29 N2         -1.1612    7.2579   -1.1411 N.4       1 <0>        -0.3965
     30 H17        -1.7088    7.5676   -0.3297 H         1 <0>         0.4309
@<TRIPOS>BOND
     1    1    6 ar
     2    1    2 ar
     3    1   13 1
     4    2    3 ar
     5    2   14 1
     6    3    4 ar
     7    3   15 1
     8    4    5 ar
     9    5    6 ar
    10    5    7 1
    11    6   16 1
    12    7    8 1
    13    7   17 1
    14    7   18 1
    15    8   19 1
    16    8   20 1
    17    8   29 1
    18    9   10 1
    19    9   21 1
    20    9   22 1
    21    9   29 1
    22   10   11 1
    23   10   23 1
    24   10   24 1
    25   11   12 1
    26   11   25 1
    27   11   26 1
    28   12   27 1
    29   12   28 1
    30   12   29 1
    31   29   30 1
@<TRIPOS>MOLECULE
ZINC13530248
   23    24     0     0     0
SMALL
USER_CHARGES
[(1S,2S)-2-(1H-imidazol-4-yl)cyclopropyl]methanamine
@<TRIPOS>ATOM
      1 C1         -1.9687    2.6769    0.3431 C.2       1 <0>         0.0225
      2 C2         -1.1368    1.7163    0.7890 C.2       1 <0>         0.0037
      3 N1         -1.4805    1.4232    2.0519 N.pl3     1 <0>        -0.4990
      4 C3         -2.4973    2.1617    2.4037 C.cat     1 <0>         0.3353
      5 N2         -2.8357    2.9557    1.3650 N.pl3     1 <0>        -0.5278
      6 H1         -3.6207    3.7141    1.2288 H         1 <0>         0.5124
      7 C4         -0.0127    1.0858    0.0080 C.3       1 <0>        -0.1085
      8 H2         -0.3541    0.0684    0.2495 H         1 <0>         0.1573
      9 C5          0.4603    1.8057   -1.2565 C.3       1 <0>        -0.1176
     10 C6          1.3347    1.8107   -0.0010 C.3       1 <0>        -0.1251
     11 H3          1.8036    2.5900    0.6177 H         1 <0>         0.1346
     12 C7          2.5997    0.9502   -0.0171 C.3       1 <0>        -0.0063
     13 N3          3.7816    1.8150    0.0969 N.4       1 <0>        -0.6896
     14 H4         -1.9557    3.1373   -0.6338 H         1 <0>         0.2197
     15 H5         -2.9872    2.1411    3.3659 H         1 <0>         0.2645
     16 H6          0.5421    1.0825   -2.0813 H         1 <0>         0.1394
     17 H7         -0.2643    2.5883   -1.5257 H         1 <0>         0.1221
     18 H8          2.5762    0.2479    0.8292 H         1 <0>         0.1358
     19 H9          2.6476    0.3862   -0.9603 H         1 <0>         0.1362
     20 H10         4.6911    1.1964    0.0853 H         1 <0>         0.4704
     21 H11         3.7337    2.3789    1.0401 H         1 <0>         0.4549
     22 H12         3.8050    2.5173   -0.7494 H         1 <0>         0.4627
     23 H13        -0.9205    0.6592    2.6111 H         1 <0>         0.5025
@<TRIPOS>BOND
     1    1    5 1
     2    1    2 2
     3    1   14 1
     4    2    3 1
     5    2    7 1
     6    3    4 2
     7    3   23 1
     8    4    5 1
     9    4   15 1
    10    5    6 1
    11    7    8 1
    12    7   10 1
    13    7    9 1
    14    9   10 1
    15    9   16 1
    16    9   17 1
    17   10   11 1
    18   10   12 1
    19   12   13 1
    20   12   18 1
    21   12   19 1
    22   13   20 1
    23   13   21 1
    24   13   22 1
@<TRIPOS>MOLECULE
ZINC13530254
   23    24     0     0     0
SMALL
USER_CHARGES
[(1S,2R)-2-(1H-imidazol-4-yl)cyclopropyl]methanamine
@<TRIPOS>ATOM
      1 C1          1.9721    1.6218    2.3022 C.2       1 <0>         0.0163
      2 C2          2.1321    0.7830    1.2609 C.2       1 <0>         0.0005
      3 N1          3.1482   -0.0445    1.5470 N.pl3     1 <0>        -0.5005
      4 C3          3.6204    0.2461    2.7283 C.cat     1 <0>         0.3368
      5 N2          2.9122    1.2779    3.2358 N.pl3     1 <0>        -0.5277
      6 H1          2.9696    1.8276    4.1869 H         1 <0>         0.5130
      7 C4          1.3165    0.7789   -0.0063 C.3       1 <0>        -0.1033
      8 H2          2.2156    0.7946   -0.6398 H         1 <0>         0.1554
      9 C5         -0.0187    1.5258    0.0104 C.3       1 <0>        -0.1171
     10 C6          0.0021   -0.0041    0.0020 C.3       1 <0>        -0.1188
     11 H3         -0.4424   -0.7852   -0.6322 H         1 <0>         0.1394
     12 C7         -0.3843   -0.7229    1.2962 C.3       1 <0>        -0.0062
     13 N3         -1.6042   -1.5105    1.0734 N.4       1 <0>        -0.6885
     14 H4          1.2412    2.4126    2.3856 H         1 <0>         0.2205
     15 H5          4.4413   -0.2557    3.2190 H         1 <0>         0.2653
     16 H6         -0.0770    2.1525    0.9125 H         1 <0>         0.1247
     17 H7         -0.0941    2.1622   -0.8837 H         1 <0>         0.1389
     18 H8          0.4334   -1.3920    1.6022 H         1 <0>         0.1234
     19 H9         -0.5663    0.0192    2.0875 H         1 <0>         0.1277
     20 H10        -1.8820   -2.0273    2.0039 H         1 <0>         0.4681
     21 H11        -1.4221   -2.2526    0.2821 H         1 <0>         0.4605
     22 H12        -2.4219   -0.8413    0.7674 H         1 <0>         0.4662
     23 H13         3.4518   -0.8139    0.8218 H         1 <0>         0.5057
@<TRIPOS>BOND
     1    1    5 1
     2    1    2 2
     3    1   14 1
     4    2    3 1
     5    2    7 1
     6    3    4 2
     7    3   23 1
     8    4    5 1
     9    4   15 1
    10    5    6 1
    11    7    8 1
    12    7   10 1
    13    7    9 1
    14    9   10 1
    15    9   16 1
    16    9   17 1
    17   10   11 1
    18   10   12 1
    19   12   13 1
    20   12   18 1
    21   12   19 1
    22   13   20 1
    23   13   21 1
    24   13   22 1
@<TRIPOS>MOLECULE
ZINC13530254
   22    23     0     0     0
SMALL
USER_CHARGES
[(1S,2R)-2-(1H-imidazol-4-yl)cyclopropyl]methanamine
@<TRIPOS>ATOM
      1 C1          1.9721    1.6218    2.3022 C.2       1 <0>        -0.0656
      2 C2          2.1321    0.7830    1.2609 C.2       1 <0>        -0.0162
      3 N1          3.1482   -0.0445    1.5470 N.2       1 <0>        -0.4939
      4 C3          3.6204    0.2461    2.7283 C.2       1 <0>         0.2090
      5 N2          2.9122    1.2779    3.2358 N.pl3     1 <0>        -0.5777
      6 H1          2.9696    1.8276    4.1869 H         1 <0>         0.4558
      7 C4          1.3165    0.7789   -0.0063 C.3       1 <0>        -0.0791
      8 H2          2.2156    0.7946   -0.6398 H         1 <0>         0.1540
      9 C5         -0.0187    1.5258    0.0104 C.3       1 <0>        -0.1450
     10 C6          0.0021   -0.0041    0.0020 C.3       1 <0>        -0.1220
     11 H3         -0.4424   -0.7852   -0.6322 H         1 <0>         0.1213
     12 C7         -0.3843   -0.7229    1.2962 C.3       1 <0>        -0.0029
     13 N3         -1.6042   -1.5105    1.0734 N.4       1 <0>        -0.6852
     14 H4          1.2412    2.4126    2.3856 H         1 <0>         0.1740
     15 H5          4.4413   -0.2557    3.2190 H         1 <0>         0.2109
     16 H6         -0.0770    2.1525    0.9125 H         1 <0>         0.1155
     17 H7         -0.0941    2.1622   -0.8837 H         1 <0>         0.1219
     18 H8          0.4334   -1.3920    1.6022 H         1 <0>         0.1306
     19 H9         -0.5663    0.0192    2.0875 H         1 <0>         0.1228
     20 H10        -1.8820   -2.0273    2.0039 H         1 <0>         0.4597
     21 H11        -1.4221   -2.2526    0.2821 H         1 <0>         0.4550
     22 H12        -2.4219   -0.8413    0.7674 H         1 <0>         0.4570
@<TRIPOS>BOND
     1    1    5 1
     2    1    2 2
     3    1   14 1
     4    2    3 1
     5    2    7 1
     6    3    4 2
     7    4    5 1
     8    4   15 1
     9    5    6 1
    10    7    8 1
    11    7   10 1
    12    7    9 1
    13    9   10 1
    14    9   16 1
    15    9   17 1
    16   10   11 1
    17   10   12 1
    18   12   13 1
    19   12   18 1
    20   12   19 1
    21   13   20 1
    22   13   21 1
    23   13   22 1
@<TRIPOS>MOLECULE
ZINC13518989
   19    20     0     0     0
SMALL
USER_CHARGES
(1S,2R)-2-(1H-imidazol-4-yl)cyclopropan-1-amine
@<TRIPOS>ATOM
      1 C1         -0.7148    4.2434    0.9813 C.2       1 <0>        -0.0385
      2 C2         -0.2175    3.8929   -0.2201 C.2       1 <0>        -0.0257
      3 N1          1.0088    4.4244   -0.3328 N.2       1 <0>        -0.4824
      4 C3          1.2871    5.0977    0.7499 C.2       1 <0>         0.2102
      5 N2          0.2393    5.0077    1.5971 N.pl3     1 <0>        -0.5635
      6 H1          0.1728    5.4220    2.5048 H         1 <0>         0.4397
      7 C4         -0.9142    3.0464   -1.2542 C.3       1 <0>        -0.0309
      8 H2         -0.9410    3.4620   -2.2615 H         1 <0>         0.1513
      9 C5         -2.1197    2.2223   -0.7976 C.3       1 <0>        -0.1491
     10 C6         -0.7955    1.5269   -1.1198 C.3       1 <0>        -0.0631
     11 H3         -0.7439    0.9429   -2.0387 H         1 <0>         0.1866
     12 H4         -1.6808    3.9736    1.3818 H         1 <0>         0.1828
     13 H5          2.2049    5.6346    0.9388 H         1 <0>         0.2194
     14 H6         -2.9397    2.0957   -1.5045 H         1 <0>         0.1416
     15 H7         -2.4092    2.2923    0.2509 H         1 <0>         0.1209
     16 H8          0.0021   -0.0041    0.0020 H         1 <0>         0.4421
     17 H9          0.9253    1.3792    0.0006 H         1 <0>         0.4398
     18 N3         -0.0252    1.0139    0.0269 N.4       1 <0>        -0.6138
     19 H10        -0.4761    1.3157    0.8986 H         1 <0>         0.4327
@<TRIPOS>BOND
     1    1    5 1
     2    1    2 2
     3    1   12 1
     4    2    3 1
     5    2    7 1
     6    3    4 2
     7    4    5 1
     8    4   13 1
     9    5    6 1
    10    7    8 1
    11    7   10 1
    12    7    9 1
    13    9   10 1
    14    9   14 1
    15    9   15 1
    16   10   11 1
    17   10   18 1
    18   16   18 1
    19   17   18 1
    20   18   19 1
@<TRIPOS>MOLECULE
ZINC13518989
   20    21     0     0     0
SMALL
USER_CHARGES
(1S,2R)-2-(1H-imidazol-4-yl)cyclopropan-1-amine
@<TRIPOS>ATOM
      1 C1         -0.7148    4.2434    0.9813 C.2       1 <0>         0.0509
      2 C2         -0.2175    3.8929   -0.2201 C.2       1 <0>         0.0024
      3 C3          1.2871    5.0977    0.7499 C.cat     1 <0>         0.3397
      4 N1          0.2393    5.0077    1.5971 N.pl3     1 <0>        -0.5117
      5 H1          0.1728    5.4220    2.5048 H         1 <0>         0.4865
      6 C4         -0.9142    3.0464   -1.2542 C.3       1 <0>        -0.0839
      7 H2         -0.9410    3.4620   -2.2615 H         1 <0>         0.1752
      8 C5         -2.1197    2.2223   -0.7976 C.3       1 <0>        -0.1246
      9 C6         -0.7955    1.5269   -1.1198 C.3       1 <0>        -0.0480
     10 H3         -0.7439    0.9429   -2.0387 H         1 <0>         0.2026
     11 H4         -1.6808    3.9736    1.3818 H         1 <0>         0.2319
     12 H5          2.2049    5.6346    0.9388 H         1 <0>         0.2763
     13 H6         -2.9397    2.0957   -1.5045 H         1 <0>         0.1598
     14 H7         -2.4092    2.2923    0.2509 H         1 <0>         0.1326
     15 H8          0.0021   -0.0041    0.0020 H         1 <0>         0.4580
     16 H9          0.9253    1.3792    0.0006 H         1 <0>         0.4340
     17 N2         -0.0252    1.0139    0.0269 N.4       1 <0>        -0.6212
     18 H10        -0.4761    1.3157    0.8986 H         1 <0>         0.4354
     19 N3          1.0080    4.4245   -0.3317 N.pl3     1 <0>        -0.4847
     20 H11         1.6296    4.3184   -1.1420 H         1 <0>         0.4887
@<TRIPOS>BOND
     1    1    4 1
     2    1    2 2
     3    1   11 1
     4    2    6 1
     5    2   19 1
     6    3    4 1
     7    3   12 1
     8    3   19 2
     9    4    5 1
    10    6    7 1
    11    6    9 1
    12    6    8 1
    13    8    9 1
    14    8   13 1
    15    8   14 1
    16    9   10 1
    17    9   17 1
    18   15   17 1
    19   16   17 1
    20   17   18 1
    21   19   20 1
@<TRIPOS>MOLECULE
ZINC13530245
   23    24     0     0     0
SMALL
USER_CHARGES
[(1R,2S)-2-(1H-imidazol-4-yl)cyclopropyl]methanamine
@<TRIPOS>ATOM
      1 C1          2.0751    0.6534   -0.0142 C.2       1 <0>         0.0160
      2 C2          1.2741   -0.4291   -0.0124 C.2       1 <0>         0.0007
      3 N1          0.0021   -0.0041    0.0020 N.pl3     1 <0>        -0.5005
      4 C3         -0.0156    1.3008    0.0092 C.cat     1 <0>         0.3368
      5 N2          1.2575    1.7511   -0.0005 N.pl3     1 <0>        -0.5276
      6 H1          1.6929    2.7612    0.0008 H         1 <0>         0.5130
      7 C4          1.7275   -1.8663   -0.0249 C.3       1 <0>        -0.1033
      8 H2          1.0692   -2.1151   -0.8703 H         1 <0>         0.1554
      9 C5          3.1854   -2.1503    0.3422 C.3       1 <0>        -0.1172
     10 C6          2.0659   -2.5120    1.3202 C.3       1 <0>        -0.1188
     11 H3          1.7556   -3.4284    1.8436 H         1 <0>         0.1394
     12 C7          1.9180   -1.6493    2.5751 C.3       1 <0>        -0.0062
     13 N3          2.1695   -2.4709    3.7666 N.4       1 <0>        -0.6885
     14 H4          3.1551    0.6552   -0.0242 H         1 <0>         0.2205
     15 H5         -0.9017    1.9182    0.0169 H         1 <0>         0.2653
     16 H6          3.6234   -2.8350   -0.3989 H         1 <0>         0.1389
     17 H7          3.7519   -1.2074    0.3501 H         1 <0>         0.1247
     18 H8          2.6434   -0.8231    2.5396 H         1 <0>         0.1277
     19 H9          0.8980   -1.2400    2.6206 H         1 <0>         0.1234
     20 H10         2.0632   -1.8506    4.6688 H         1 <0>         0.4681
     21 H11         3.1895   -2.8802    3.7211 H         1 <0>         0.4662
     22 H12         1.4441   -3.2971    3.8020 H         1 <0>         0.4605
     23 H13        -0.8214   -0.7333    0.0059 H         1 <0>         0.5057
@<TRIPOS>BOND
     1    1    5 1
     2    1    2 2
     3    1   14 1
     4    2    3 1
     5    2    7 1
     6    3    4 2
     7    3   23 1
     8    4    5 1
     9    4   15 1
    10    5    6 1
    11    7    8 1
    12    7   10 1
    13    7    9 1
    14    9   10 1
    15    9   16 1
    16    9   17 1
    17   10   11 1
    18   10   12 1
    19   12   13 1
    20   12   18 1
    21   12   19 1
    22   13   20 1
    23   13   21 1
    24   13   22 1
@<TRIPOS>MOLECULE
ZINC13530245
   22    23     0     0     0
SMALL
USER_CHARGES
[(1R,2S)-2-(1H-imidazol-4-yl)cyclopropyl]methanamine
@<TRIPOS>ATOM
      1 C1          2.0751    0.6534   -0.0142 C.2       1 <0>        -0.0658
      2 C2          1.2741   -0.4291   -0.0124 C.2       1 <0>        -0.0160
      3 N1          0.0021   -0.0041    0.0020 N.2       1 <0>        -0.4939
      4 C3         -0.0156    1.3008    0.0092 C.2       1 <0>         0.2090
      5 N2          1.2575    1.7511   -0.0005 N.pl3     1 <0>        -0.5776
      6 H1          1.6929    2.7612    0.0008 H         1 <0>         0.4558
      7 C4          1.7275   -1.8663   -0.0249 C.3       1 <0>        -0.0790
      8 H2          1.0692   -2.1151   -0.8703 H         1 <0>         0.1541
      9 C5          3.1854   -2.1503    0.3422 C.3       1 <0>        -0.1450
     10 C6          2.0659   -2.5120    1.3202 C.3       1 <0>        -0.1220
     11 H3          1.7556   -3.4284    1.8436 H         1 <0>         0.1213
     12 C7          1.9180   -1.6493    2.5751 C.3       1 <0>        -0.0029
     13 N3          2.1695   -2.4709    3.7666 N.4       1 <0>        -0.6852
     14 H4          3.1551    0.6552   -0.0242 H         1 <0>         0.1739
     15 H5         -0.9017    1.9182    0.0169 H         1 <0>         0.2110
     16 H6          3.6234   -2.8350   -0.3989 H         1 <0>         0.1219
     17 H7          3.7519   -1.2074    0.3501 H         1 <0>         0.1155
     18 H8          2.6434   -0.8231    2.5396 H         1 <0>         0.1228
     19 H9          0.8980   -1.2400    2.6206 H         1 <0>         0.1306
     20 H10         2.0632   -1.8506    4.6688 H         1 <0>         0.4597
     21 H11         3.1895   -2.8802    3.7211 H         1 <0>         0.4570
     22 H12         1.4441   -3.2971    3.8020 H         1 <0>         0.4550
@<TRIPOS>BOND
     1    1    5 1
     2    1    2 2
     3    1   14 1
     4    2    3 1
     5    2    7 1
     6    3    4 2
     7    4    5 1
     8    4   15 1
     9    5    6 1
    10    7    8 1
    11    7   10 1
    12    7    9 1
    13    9   10 1
    14    9   16 1
    15    9   17 1
    16   10   11 1
    17   10   12 1
    18   12   13 1
    19   12   18 1
    20   12   19 1
    21   13   20 1
    22   13   21 1
    23   13   22 1
@<TRIPOS>MOLECULE
ZINC00163336
   30    31     0     0     0
SMALL
USER_CHARGES

@<TRIPOS>ATOM
      1 C1         -0.0167    1.3823    0.0096 C.ar      1 <0>        -0.1664
      2 C2          1.1808    2.0721    0.0019 C.ar      1 <0>         0.1105
      3 N1          2.3308    1.4269   -0.0130 N.ar      1 <0>        -0.4734
      4 C3          2.3867    0.1094   -0.0206 C.ar      1 <0>         0.1108
      5 C4          1.2303   -0.6473   -0.0132 C.ar      1 <0>        -0.1661
      6 C5          0.0021   -0.0041    0.0020 C.ar      1 <0>        -0.0606
      7 C6         -1.2819   -0.7930    0.0105 C.3       1 <0>        -0.1017
      8 C7         -1.7307   -1.0523   -1.4290 C.3       1 <0>        -0.0007
      9 N2         -2.9823   -1.8214   -1.4207 N.4       1 <0>        -0.3949
     10 C8         -4.0932   -0.9861   -0.8968 C.3       1 <0>        -0.0088
     11 C9         -5.3568   -1.6815   -1.4626 C.3       1 <0>        -0.1457
     12 C10        -4.9045   -2.1269   -2.8722 C.3       1 <0>        -0.1455
     13 C11        -3.3672   -2.1840   -2.8019 C.3       1 <0>        -0.0086
     14 H1         -0.9553    1.9163    0.0259 H         1 <0>         0.1378
     15 H2          1.1748    3.1521    0.0078 H         1 <0>         0.1633
     16 H3          3.3473   -0.3840   -0.0331 H         1 <0>         0.1635
     17 H4          1.2825   -1.7260   -0.0195 H         1 <0>         0.1384
     18 H5         -1.1205   -1.7443    0.5177 H         1 <0>         0.0997
     19 H6         -2.0522   -0.2277    0.5351 H         1 <0>         0.0992
     20 H7         -1.8921   -0.1011   -1.9362 H         1 <0>         0.1315
     21 H8         -0.9604   -1.6176   -1.9535 H         1 <0>         0.1320
     22 H9         -4.1028   -0.9983    0.1931 H         1 <0>         0.1357
     23 H10        -4.0161    0.0349   -1.2705 H         1 <0>         0.1341
     24 H11        -5.6276   -2.5442   -0.8539 H         1 <0>         0.0985
     25 H12        -6.1873   -0.9785   -1.5282 H         1 <0>         0.1171
     26 H13        -5.3093   -3.1115   -3.1060 H         1 <0>         0.1057
     27 H14        -5.2222   -1.3993   -3.6190 H         1 <0>         0.1040
     28 H15        -2.9365   -1.4724   -3.5064 H         1 <0>         0.1305
     29 H16        -3.0222   -3.1923   -3.0309 H         1 <0>         0.1328
     30 H17        -2.8764   -2.6530   -0.8593 H         1 <0>         0.4273
@<TRIPOS>BOND
     1    1    6 ar
     2    1    2 ar
     3    1   14 1
     4    2    3 ar
     5    2   15 1
     6    3    4 ar
     7    4    5 ar
     8    4   16 1
     9    5    6 ar
    10    5   17 1
    11    6    7 1
    12    7    8 1
    13    7   18 1
    14    7   19 1
    15    8    9 1
    16    8   20 1
    17    8   21 1
    18    9   13 1
    19    9   10 1
    20    9   30 1
    21   10   11 1
    22   10   22 1
    23   10   23 1
    24   11   12 1
    25   11   24 1
    26   11   25 1
    27   12   13 1
    28   12   26 1
    29   12   27 1
    30   13   28 1
    31   13   29 1
@<TRIPOS>MOLECULE
ZINC13519013
   25    26     0     0     0
SMALL
USER_CHARGES
2-[(1R,2R)-2-(1H-imidazol-4-yl)cyclopropyl]ethanamine
@<TRIPOS>ATOM
      1 C1          1.9721    1.6218    2.3022 C.2       1 <0>        -0.0510
      2 C2          2.1321    0.7830    1.2609 C.2       1 <0>         0.0221
      3 N1          3.1482   -0.0445    1.5470 N.2       1 <0>        -0.4875
      4 C3          3.6204    0.2461    2.7283 C.2       1 <0>         0.1926
      5 N2          2.9122    1.2779    3.2358 N.pl3     1 <0>        -0.5712
      6 H1          3.0490    1.7100    4.1272 H         1 <0>         0.4315
      7 C4          1.3165    0.7789   -0.0063 C.3       1 <0>        -0.0519
      8 H2          1.8888    0.7918   -0.9339 H         1 <0>         0.1233
      9 C5         -0.0187    1.5258    0.0104 C.3       1 <0>        -0.1634
     10 C6          0.0021   -0.0041    0.0020 C.3       1 <0>        -0.1513
     11 H3         -0.2904   -0.5063   -0.9201 H         1 <0>         0.1189
     12 C7         -0.3843   -0.7229    1.2962 C.3       1 <0>        -0.1153
     13 C8         -1.6548   -1.5432    1.0641 C.3       1 <0>        -0.0023
     14 H4          1.2412    2.4126    2.3856 H         1 <0>         0.1748
     15 H5          4.4413   -0.2557    3.2190 H         1 <0>         0.2114
     16 H6         -0.3248    2.0300   -0.9061 H         1 <0>         0.1090
     17 H7         -0.3072    2.0201    0.9381 H         1 <0>         0.0988
     18 H8          0.4259   -1.3860    1.5993 H         1 <0>         0.0903
     19 H9         -0.5647    0.0124    2.0803 H         1 <0>         0.0845
     20 H10        -2.4651   -0.8802    0.7610 H         1 <0>         0.1361
     21 H11        -1.4744   -2.2785    0.2800 H         1 <0>         0.1330
     22 H12        -2.1356   -1.5777    3.0656 H         1 <0>         0.4356
     23 H13        -2.8627   -2.7825    2.1793 H         1 <0>         0.4404
     24 N3         -2.0054   -2.2480    2.3098 N.4       1 <0>        -0.6476
     25 H14        -1.2446   -2.8908    2.5595 H         1 <0>         0.4395
@<TRIPOS>BOND
     1    1    5 1
     2    1    2 2
     3    1   14 1
     4    2    3 1
     5    2    7 1
     6    3    4 2
     7    4    5 1
     8    4   15 1
     9    5    6 1
    10    7    8 1
    11    7   10 1
    12    7    9 1
    13    9   10 1
    14    9   16 1
    15    9   17 1
    16   10   11 1
    17   10   12 1
    18   12   13 1
    19   12   18 1
    20   12   19 1
    21   13   20 1
    22   13   21 1
    23   13   24 1
    24   22   24 1
    25   23   24 1
    26   24   25 1
@<TRIPOS>MOLECULE
ZINC13519013
   26    27     0     0     0
SMALL
USER_CHARGES
2-[(1R,2R)-2-(1H-imidazol-4-yl)cyclopropyl]ethanamine
@<TRIPOS>ATOM
      1 C1          1.9721    1.6218    2.3022 C.2       1 <0>         0.0315
      2 C2          2.1321    0.7830    1.2609 C.2       1 <0>         0.0559
      3 C3          3.6204    0.2461    2.7283 C.cat     1 <0>         0.3136
      4 N1          2.9122    1.2779    3.2358 N.pl3     1 <0>        -0.5133
      5 H1          3.0490    1.7100    4.1272 H         1 <0>         0.4796
      6 C4          1.3165    0.7789   -0.0063 C.3       1 <0>        -0.1066
      7 H2          1.8888    0.7918   -0.9339 H         1 <0>         0.1480
      8 C5         -0.0187    1.5258    0.0104 C.3       1 <0>        -0.1382
      9 C6          0.0021   -0.0041    0.0020 C.3       1 <0>        -0.1403
     10 H3         -0.2904   -0.5063   -0.9201 H         1 <0>         0.1364
     11 C7         -0.3843   -0.7229    1.2962 C.3       1 <0>        -0.1242
     12 C8         -1.6548   -1.5432    1.0641 C.3       1 <0>        -0.0031
     13 H4          1.2412    2.4126    2.3856 H         1 <0>         0.2241
     14 H5          4.4413   -0.2557    3.2190 H         1 <0>         0.2687
     15 H6         -0.3248    2.0300   -0.9061 H         1 <0>         0.1277
     16 H7         -0.3072    2.0201    0.9381 H         1 <0>         0.1104
     17 H8          0.4259   -1.3860    1.5993 H         1 <0>         0.0836
     18 H9         -0.5647    0.0124    2.0803 H         1 <0>         0.0903
     19 H10        -2.4651   -0.8802    0.7610 H         1 <0>         0.1430
     20 H11        -1.4744   -2.2785    0.2800 H         1 <0>         0.1378
     21 H12        -2.1356   -1.5777    3.0656 H         1 <0>         0.4374
     22 H13        -2.8627   -2.7825    2.1793 H         1 <0>         0.4484
     23 N2         -2.0054   -2.2480    2.3098 N.4       1 <0>        -0.6489
     24 H14        -1.2446   -2.8908    2.5595 H         1 <0>         0.4387
     25 N3          3.1477   -0.0435    1.5478 N.pl3     1 <0>        -0.4834
     26 H15         3.4987   -0.7882    0.9341 H         1 <0>         0.4831
@<TRIPOS>BOND
     1    1    4 1
     2    1    2 2
     3    1   13 1
     4    2    6 1
     5    2   25 1
     6    3    4 1
     7    3   14 1
     8    3   25 2
     9    4    5 1
    10    6    7 1
    11    6    9 1
    12    6    8 1
    13    8    9 1
    14    8   15 1
    15    8   16 1
    16    9   10 1
    17    9   11 1
    18   11   12 1
    19   11   17 1
    20   11   18 1
    21   12   19 1
    22   12   20 1
    23   12   23 1
    24   21   23 1
    25   22   23 1
    26   23   24 1
    27   25   26 1
@<TRIPOS>MOLECULE
ZINC13519013
   25    26     0     0     0
SMALL
USER_CHARGES

@<TRIPOS>ATOM
      1 C1          0.1142    1.3852    0.9525 C.2       1 <0>        -0.0153
      2 C2          1.1199    1.8238    0.1717 C.2       1 <0>        -0.0084
      3 N1          1.5717    0.7431   -0.5365 N.pl3     1 <0>        -0.5663
      4 C3          0.8257   -0.3190   -0.1636 C.2       1 <0>         0.1941
      5 N2         -0.0439    0.0725    0.7272 N.2       1 <0>        -0.4896
      6 C4          1.6465    3.2336    0.0926 C.3       1 <0>        -0.0735
      7 H1          2.7258    3.3392    0.2030 H         1 <0>         0.1226
      8 C5          0.7659    4.3495    0.6585 C.3       1 <0>        -0.1479
      9 C6          0.9354    4.2012   -0.8556 C.3       1 <0>        -0.1544
     10 H2          1.5467    4.9436   -1.3686 H         1 <0>         0.1208
     11 C7         -0.2560    3.6634   -1.6508 C.3       1 <0>        -0.1168
     12 C8         -0.7466    4.7376   -2.6235 C.3       1 <0>        -0.0061
     13 N3         -1.8905    4.2213   -3.3870 N.4       1 <0>        -0.6386
     14 H3         -0.4612    1.9845    1.6426 H         1 <0>         0.1683
     15 H4          0.9313   -1.3257   -0.5402 H         1 <0>         0.2123
     16 H5         -0.1943    4.0639    1.0881 H         1 <0>         0.1066
     17 H6          1.2658    5.1894    1.1409 H         1 <0>         0.1125
     18 H7          0.0499    2.7792   -2.2101 H         1 <0>         0.0850
     19 H8         -1.0610    3.3991   -0.9651 H         1 <0>         0.0919
     20 H9         -1.0524    5.6218   -2.0642 H         1 <0>         0.1370
     21 H10         0.0584    5.0019   -3.3092 H         1 <0>         0.1338
     22 H11        -1.6073    3.4028   -3.9047 H         1 <0>         0.4348
     23 H12        -2.6357    3.9766   -2.7523 H         1 <0>         0.4363
     24 H13        -2.2140    4.9297   -4.0285 H         1 <0>         0.4394
     25 H14         2.2930    0.7406   -1.1851 H         1 <0>         0.4213
@<TRIPOS>BOND
     1    1    5 1
     2    1    2 2
     3    1   14 1
     4    2    3 1
     5    2    6 1
     6    3    4 1
     7    3   25 1
     8    4    5 2
     9    4   15 1
    10    6    7 1
    11    6    9 1
    12    6    8 1
    13    8    9 1
    14    8   16 1
    15    8   17 1
    16    9   10 1
    17    9   11 1
    18   11   12 1
    19   11   18 1
    20   11   19 1
    21   12   13 1
    22   12   20 1
    23   12   21 1
    24   13   22 1
    25   13   23 1
    26   13   24 1
@<TRIPOS>MOLECULE
ZINC19796155
   42    45     0     0     0
SMALL
USER_CHARGES

@<TRIPOS>ATOM
      1 C1         -0.0670    1.4396   -0.3852 C.3       1 <0>         0.0243
      2 N1         -0.0229   -0.0169   -0.1987 N.3       1 <0>        -0.5428
      3 C2          0.3808   -0.6943   -1.4380 C.3       1 <0>         0.0399
      4 C3          0.2401   -2.2095   -1.2572 C.3       1 <0>         0.1263
      5 N2          0.9912   -2.6085   -0.0572 N.pl3     1 <0>        -0.5953
      6 C4          0.7394   -1.8803    1.1955 C.3       1 <0>         0.1122
      7 C5          0.8604   -0.3781    0.9181 C.3       1 <0>         0.0393
      8 C6          1.9051   -3.6365   -0.1053 C.2       1 <0>         0.5098
      9 N3          2.1670   -4.1290   -1.2643 N.2       1 <0>        -0.6041
     10 C7          3.0130   -5.1503   -1.5719 C.ar      1 <0>         0.1655
     11 C8          2.6280   -6.0848   -2.5372 C.ar      1 <0>        -0.1058
     12 C9          3.4872   -7.1047   -2.8991 C.ar      1 <0>        -0.0230
     13 C10         4.7348   -7.2069   -2.3106 C.ar      1 <0>        -0.1209
     14 C11         5.1212   -6.2977   -1.3402 C.ar      1 <0>        -0.1017
     15 C12         4.2618   -5.2835   -0.9546 C.ar      1 <0>         0.1117
     16 N4          4.6314   -4.4326    0.1003 N.pl3     1 <0>        -0.7261
     17 C13         3.8434   -4.4184    1.2519 C.ar      1 <0>         0.2140
     18 C14         2.4943   -4.0640    1.1729 C.ar      1 <0>        -0.1453
     19 C15         1.7072   -4.1133    2.3240 C.ar      1 <0>        -0.0723
     20 C16         2.2727   -4.4729    3.5311 C.ar      1 <0>        -0.1389
     21 C17         3.6189   -4.7825    3.6069 C.ar      1 <0>        -0.0765
     22 C18         4.3974   -4.7629    2.4751 C.ar      1 <0>        -0.1433
     23 Cl1         2.9987   -8.2627   -4.0966 Cl        1 <0>        -0.0679
     24 H1          0.9359    1.8090   -0.5992 H         1 <0>         0.0255
     25 H2         -0.7279    1.6794   -1.2181 H         1 <0>         0.0711
     26 H3         -0.4416    1.9111    0.5233 H         1 <0>         0.0709
     27 H4         -0.2581   -0.3649   -2.2574 H         1 <0>         0.0878
     28 H5          1.4186   -0.4499   -1.6647 H         1 <0>         0.0378
     29 H6         -0.8117   -2.4673   -1.1334 H         1 <0>         0.0720
     30 H7          0.6453   -2.7216   -2.1299 H         1 <0>         0.1060
     31 H8         -0.2645   -2.1065    1.5551 H         1 <0>         0.0792
     32 H9          1.4746   -2.1748    1.9444 H         1 <0>         0.0984
     33 H10         1.8915   -0.1381    0.6586 H         1 <0>         0.0379
     34 H11         0.5693    0.1807    1.8075 H         1 <0>         0.0892
     35 H12         1.6558   -6.0097   -3.0016 H         1 <0>         0.1375
     36 H13         5.4083   -7.9971   -2.6081 H         1 <0>         0.1357
     37 H14         6.0961   -6.3802   -0.8829 H         1 <0>         0.1326
     38 H15         5.4169   -3.8679    0.0299 H         1 <0>         0.4097
     39 H16         0.6563   -3.8699    2.2709 H         1 <0>         0.1344
     40 H17         1.6613   -4.5124    4.4205 H         1 <0>         0.1323
     41 H18         4.0571   -5.0467    4.5580 H         1 <0>         0.1317
     42 H19         5.4473   -5.0071    2.5424 H         1 <0>         0.1313
@<TRIPOS>BOND
     1    1    2 1
     2    1   24 1
     3    1   25 1
     4    1   26 1
     5    2    7 1
     6    2    3 1
     7    3    4 1
     8    3   27 1
     9    3   28 1
    10    4    5 1
    11    4   29 1
    12    4   30 1
    13    5    6 1
    14    5    8 1
    15    6    7 1
    16    6   31 1
    17    6   32 1
    18    7   33 1
    19    7   34 1
    20    8   18 1
    21    8    9 2
    22    9   10 1
    23   10   15 ar
    24   10   11 ar
    25   11   12 ar
    26   11   35 1
    27   12   13 ar
    28   12   23 1
    29   13   14 ar
    30   13   36 1
    31   14   15 ar
    32   14   37 1
    33   15   16 1
    34   16   17 1
    35   16   38 1
    36   17   22 ar
    37   17   18 ar
    38   18   19 ar
    39   19   20 ar
    40   19   39 1
    41   20   21 ar
    42   20   40 1
    43   21   22 ar
    44   21   41 1
    45   22   42 1
@<TRIPOS>MOLECULE
ZINC19796155
   44    47     0     0     0
SMALL
USER_CHARGES

@<TRIPOS>ATOM
      1 C1         -1.5703   -0.0018   -1.9302 C.3       1 <0>        -0.0497
      2 N1         -0.7527   -0.7171   -0.9414 N.4       1 <0>        -0.3854
      3 C2         -1.0498   -2.1535   -1.0104 C.3       1 <0>        -0.0252
      4 C3         -0.2839   -2.8861    0.0962 C.3       1 <0>         0.1048
      5 N2          1.1441   -2.5548   -0.0269 N.pl3     1 <0>        -0.7052
      6 C4          1.5202   -1.1363   -0.1296 C.3       1 <0>         0.1049
      7 C5          0.6692   -0.4862   -1.2256 C.3       1 <0>        -0.0251
      8 C6          2.0831   -3.5253   -0.0448 C.2       1 <0>         0.6309
      9 C7          2.6112   -3.9094    1.2074 C.ar      1 <0>        -0.2438
     10 C8          2.0495   -3.1929    2.2728 C.ar      1 <0>         0.0055
     11 C9          2.4602   -3.4528    3.5483 C.ar      1 <0>        -0.1817
     12 C10         3.4265   -4.4148    3.8208 C.ar      1 <0>         0.0489
     13 C11         4.0101   -5.1439    2.8276 C.ar      1 <0>        -0.2233
     14 C12         3.6302   -4.9235    1.4921 C.ar      1 <0>         0.3343
     15 N3          4.2865   -5.7106    0.6358 N.pl3     1 <0>        -0.6131
     16 C13         4.1767   -5.7728   -0.7271 C.ar      1 <0>         0.1589
     17 C14         5.0408   -6.7320   -1.2562 C.ar      1 <0>        -0.1157
     18 C15         5.0795   -6.9478   -2.6222 C.ar      1 <0>        -0.0495
     19 C16         4.2642   -6.2154   -3.4643 C.ar      1 <0>        -0.0338
     20 C17         3.4016   -5.2585   -2.9468 C.ar      1 <0>        -0.0846
     21 C18         3.3520   -5.0321   -1.5848 C.ar      1 <0>         0.0769
     22 N4          2.4115   -4.0290   -1.2719 N.pl3     1 <0>        -0.5773
     23 Cl1         4.3195   -6.4929   -5.1771 Cl        1 <0>        -0.0159
     24 H1         -1.3348   -0.3678   -2.9295 H         1 <0>         0.1246
     25 H2         -2.6262   -0.1724   -1.7203 H         1 <0>         0.1321
     26 H3         -1.3566    1.0656   -1.8745 H         1 <0>         0.1321
     27 H4         -2.1201   -2.3101   -0.8766 H         1 <0>         0.1569
     28 H5         -0.7442   -2.5415   -1.9820 H         1 <0>         0.1344
     29 H6         -0.6518   -2.5648    1.0707 H         1 <0>         0.1155
     30 H7         -0.4211   -3.9618   -0.0138 H         1 <0>         0.1302
     31 H8          1.3345   -0.6383    0.8220 H         1 <0>         0.1155
     32 H9          2.5758   -1.0551   -0.3891 H         1 <0>         0.1302
     33 H10         0.9228   -0.9247   -2.1907 H         1 <0>         0.1344
     34 H11         0.8655    0.5856   -1.2504 H         1 <0>         0.1569
     35 H12         1.2975   -2.4405    2.0860 H         1 <0>         0.1502
     36 H13         2.0243   -2.8976    4.3657 H         1 <0>         0.1496
     37 H14         3.7223   -4.5886    4.8448 H         1 <0>         0.1558
     38 H15         4.7590   -5.8851    3.0650 H         1 <0>         0.1623
     39 H16         5.6790   -7.3052   -0.6001 H         1 <0>         0.1677
     40 H17         5.7487   -7.6901   -3.0316 H         1 <0>         0.1653
     41 H18         2.7675   -4.6896   -3.6107 H         1 <0>         0.1565
     42 H19         1.9393   -3.6432   -2.0263 H         1 <0>         0.4255
     43 H20         4.9278   -6.3202    1.0333 H         1 <0>         0.4372
     44 H21        -0.9695   -0.3754   -0.0171 H         1 <0>         0.4310
@<TRIPOS>BOND
     1    1    2 1
     2    1   24 1
     3    1   25 1
     4    1   26 1
     5    2    7 1
     6    2    3 1
     7    2   44 1
     8    3    4 1
     9    3   27 1
    10    3   28 1
    11    4    5 1
    12    4   29 1
    13    4   30 1
    14    5    6 1
    15    5    8 1
    16    6    7 1
    17    6   31 1
    18    6   32 1
    19    7   33 1
    20    7   34 1
    21    8   22 1
    22    8    9 2
    23    9   14 ar
    24    9   10 ar
    25   10   11 ar
    26   10   35 1
    27   11   12 ar
    28   11   36 1
    29   12   13 ar
    30   12   37 1
    31   13   14 ar
    32   13   38 1
    33   14   15 2
    34   15   16 1
    35   15   43 1
    36   16   21 ar
    37   16   17 ar
    38   17   18 ar
    39   17   39 1
    40   18   19 ar
    41   18   40 1
    42   19   20 ar
    43   19   23 1
    44   20   21 ar
    45   20   41 1
    46   21   22 1
    47   22   42 1
@<TRIPOS>MOLECULE
ZINC19796155
   43    46     0     0     0
SMALL
USER_CHARGES

@<TRIPOS>ATOM
      1 C1         -0.0523    1.4387   -0.3863 C.3       1 <0>        -0.0469
      2 N1         -0.0147   -0.0168   -0.1908 N.4       1 <0>        -0.3852
      3 C2          0.4863   -0.6601   -1.4120 C.3       1 <0>        -0.0213
      4 C3          0.4181   -2.1823   -1.2510 C.3       1 <0>         0.1002
      5 N2          1.1441   -2.5548   -0.0269 N.pl3     1 <0>        -0.6180
      6 C4          0.8178   -1.8405    1.2170 C.3       1 <0>         0.0860
      7 C5          0.8671   -0.3344    0.9395 C.3       1 <0>        -0.0221
      8 C6          2.1017   -3.5432   -0.0451 C.2       1 <0>         0.5019
      9 N3          2.4234   -4.0210   -1.1951 N.2       1 <0>        -0.5760
     10 C7          3.3217   -5.0050   -1.4750 C.ar      1 <0>         0.1390
     11 C8          3.0096   -5.9522   -2.4541 C.ar      1 <0>        -0.0932
     12 C9          3.9229   -6.9340   -2.7877 C.ar      1 <0>        -0.0267
     13 C10         5.1529   -6.9852   -2.1572 C.ar      1 <0>        -0.1032
     14 C11         5.4673   -6.0631   -1.1730 C.ar      1 <0>        -0.1031
     15 C12         4.5533   -5.0871   -0.8155 C.ar      1 <0>         0.1235
     16 N4          4.8505   -4.2243    0.2524 N.pl3     1 <0>        -0.7273
     17 C13         4.0239   -4.2464    1.3765 C.ar      1 <0>         0.2173
     18 C14         2.6645   -3.9489    1.2520 C.ar      1 <0>        -0.1537
     19 C15         1.8414   -4.0345    2.3754 C.ar      1 <0>        -0.0841
     20 C16         2.3802   -4.3733    3.6007 C.ar      1 <0>        -0.1334
     21 C17         3.7349   -4.6261    3.7220 C.ar      1 <0>        -0.0692
     22 C18         4.5500   -4.5705    2.6174 C.ar      1 <0>        -0.1369
     23 Cl1         3.5248   -8.1083   -4.0027 Cl        1 <0>        -0.0551
     24 H1          0.9534    1.8033   -0.5956 H         1 <0>         0.1211
     25 H2         -0.7066    1.6758   -1.2253 H         1 <0>         0.1256
     26 H3         -0.4316    1.9169    0.5167 H         1 <0>         0.1252
     27 H4         -0.1269   -0.3565   -2.2605 H         1 <0>         0.1425
     28 H5          1.5196   -0.3587   -1.5839 H         1 <0>         0.1315
     29 H6         -0.6226   -2.4957   -1.1694 H         1 <0>         0.0898
     30 H7          0.8819   -2.6629   -2.1125 H         1 <0>         0.1431
     31 H8         -0.1827   -2.1194    1.5479 H         1 <0>         0.0960
     32 H9          1.5457   -2.0950    1.9873 H         1 <0>         0.1385
     33 H10         1.8889   -0.0428    0.6965 H         1 <0>         0.1320
     34 H11         0.5345    0.2092    1.8238 H         1 <0>         0.1439
     35 H12         2.0515   -5.9169   -2.9512 H         1 <0>         0.1396
     36 H13         5.8689   -7.7454   -2.4325 H         1 <0>         0.1422
     37 H14         6.4287   -6.1057   -0.6827 H         1 <0>         0.1382
     38 H15         5.6134   -3.6267    0.2096 H         1 <0>         0.4129
     39 H16         0.7836   -3.8354    2.2868 H         1 <0>         0.1314
     40 H17         1.7411   -4.4409    4.4686 H         1 <0>         0.1357
     41 H18         4.1512   -4.8742    4.6872 H         1 <0>         0.1370
     42 H19         5.6063   -4.7705    2.7202 H         1 <0>         0.1363
     43 H20        -0.9456   -0.3526    0.0057 H         1 <0>         0.4250
@<TRIPOS>BOND
     1    1    2 1
     2    1   24 1
     3    1   25 1
     4    1   26 1
     5    2    7 1
     6    2    3 1
     7    2   43 1
     8    3    4 1
     9    3   27 1
    10    3   28 1
    11    4    5 1
    12    4   29 1
    13    4   30 1
    14    5    6 1
    15    5    8 1
    16    6    7 1
    17    6   31 1
    18    6   32 1
    19    7   33 1
    20    7   34 1
    21    8   18 1
    22    8    9 2
    23    9   10 1
    24   10   15 ar
    25   10   11 ar
    26   11   12 ar
    27   11   35 1
    28   12   13 ar
    29   12   23 1
    30   13   14 ar
    31   13   36 1
    32   14   15 ar
    33   14   37 1
    34   15   16 1
    35   16   17 1
    36   16   38 1
    37   17   22 ar
    38   17   18 ar
    39   18   19 ar
    40   19   20 ar
    41   19   39 1
    42   20   21 ar
    43   20   40 1
    44   21   22 ar
    45   21   41 1
    46   22   42 1
@<TRIPOS>MOLECULE
ZINC29747055
   29    29     0     0     0
SMALL
USER_CHARGES

@<TRIPOS>ATOM
      1 C1         -0.0165    1.3646    0.0095 C.2       1 <0>         0.0464
      2 C2          1.2671    1.7717   -0.0005 C.2       1 <0>         0.0231
      3 N1          2.0482    0.6814   -0.0138 N.pl3     1 <0>        -0.4754
      4 C3          1.2973   -0.3859   -0.0124 C.cat     1 <0>         0.3185
      5 N2          0.0021   -0.0041    0.0020 N.pl3     1 <0>        -0.5083
      6 H1         -0.7708   -0.5902    0.0065 H         1 <0>         0.4714
      7 C4          1.7427    3.2017    0.0026 C.3       1 <0>        -0.0738
      8 C5          1.7980    3.7176    1.4420 C.3       1 <0>         0.1178
      9 N3          2.2603    5.1078    1.4450 N.am      1 <0>        -0.7267
     10 C6          2.3875    5.7731    2.6102 C.2       1 <0>         0.5231
     11 O1          2.1193    5.2209    3.6562 O.2       1 <0>        -0.5232
     12 C7          2.8631    7.2031    2.6133 C.3       1 <0>        -0.1768
     13 C8          2.9184    7.7190    4.0527 C.3       1 <0>         0.0060
     14 N4          3.3820    9.1129    4.0557 N.4       1 <0>        -0.6371
     15 H2         -0.8922    1.9965    0.0253 H         1 <0>         0.2281
     16 H3          1.6529   -1.4057   -0.0218 H         1 <0>         0.2701
     17 H4          2.7369    3.2550   -0.4409 H         1 <0>         0.1053
     18 H5          1.0529    3.8153   -0.5770 H         1 <0>         0.1211
     19 H6          0.8038    3.6644    1.8855 H         1 <0>         0.0850
     20 H7          2.4878    3.1041    2.0215 H         1 <0>         0.0779
     21 H8          2.4748    5.5494    0.6084 H         1 <0>         0.4105
     22 H9          3.8573    7.2563    2.1698 H         1 <0>         0.1219
     23 H10         2.1733    7.8166    2.0337 H         1 <0>         0.1226
     24 H11         1.9242    7.6657    4.4962 H         1 <0>         0.1437
     25 H12         3.6082    7.1054    4.6323 H         1 <0>         0.1433
     26 H13         4.3023    9.1622    3.6451 H         1 <0>         0.4366
     27 H14         2.7435    9.6809    3.5192 H         1 <0>         0.4368
     28 H15         3.4185    9.4531    5.0049 H         1 <0>         0.4461
     29 H16         3.0181    0.6856   -0.0234 H         1 <0>         0.4659
@<TRIPOS>BOND
     1    1    5 1
     2    1    2 2
     3    1   15 1
     4    2    3 1
     5    2    7 1
     6    3    4 2
     7    3   29 1
     8    4    5 1
     9    4   16 1
    10    5    6 1
    11    7    8 1
    12    7   17 1
    13    7   18 1
    14    8    9 1
    15    8   19 1
    16    8   20 1
    17    9   10 am
    18    9   21 1
    19   10   11 2
    20   10   12 1
    21   12   13 1
    22   12   22 1
    23   12   23 1
    24   13   14 1
    25   13   24 1
    26   13   25 1
    27   14   26 1
    28   14   27 1
    29   14   28 1
@<TRIPOS>MOLECULE
ZINC29747055
   28    28     0     0     0
SMALL
USER_CHARGES

@<TRIPOS>ATOM
      1 C1         -0.0165    1.3646    0.0095 C.2       1 <0>        -0.0435
      2 C2          1.2671    1.7717   -0.0005 C.2       1 <0>        -0.0086
      3 N1          2.0482    0.6814   -0.0138 N.2       1 <0>        -0.4905
      4 C3          1.2973   -0.3859   -0.0124 C.2       1 <0>         0.1942
      5 N2          0.0021   -0.0041    0.0020 N.pl3     1 <0>        -0.5676
      6 H1         -0.7708   -0.5902    0.0065 H         1 <0>         0.4251
      7 C4          1.7427    3.2017    0.0026 C.3       1 <0>        -0.0410
      8 C5          2.7000    3.4183    1.1763 C.3       1 <0>         0.1237
      9 N3          3.1622    4.8084    1.1794 N.am      1 <0>        -0.7197
     10 C6          4.0193    5.2315    2.1296 C.2       1 <0>         0.5154
     11 O1          4.4078    4.4614    2.9822 O.2       1 <0>        -0.5315
     12 C7          4.4948    6.6615    2.1328 C.3       1 <0>        -0.1762
     13 C8          5.4521    6.8781    3.3065 C.3       1 <0>         0.0063
     14 N4          5.9156    8.2720    3.3096 N.4       1 <0>        -0.6366
     15 H2         -0.8922    1.9965    0.0253 H         1 <0>         0.1776
     16 H3          1.6529   -1.4057   -0.0218 H         1 <0>         0.2115
     17 H4          2.2605    3.4145   -0.9326 H         1 <0>         0.0822
     18 H5          0.8868    3.8690    0.1039 H         1 <0>         0.0818
     19 H6          2.1821    3.2055    2.1116 H         1 <0>         0.0727
     20 H7          3.5559    2.7510    1.0750 H         1 <0>         0.0838
     21 H8          2.8515    5.4244    0.4975 H         1 <0>         0.4046
     22 H9          5.0127    6.8743    1.1975 H         1 <0>         0.1185
     23 H10         3.6389    7.3288    2.2341 H         1 <0>         0.1180
     24 H11         4.9342    6.6653    4.2417 H         1 <0>         0.1430
     25 H12         6.3080    6.2108    3.2052 H         1 <0>         0.1435
     26 H13         6.5469    8.4148    4.0836 H         1 <0>         0.4429
     27 H14         6.3950    8.4689    2.4438 H         1 <0>         0.4354
     28 H15         5.1233    8.8897    3.4034 H         1 <0>         0.4351
@<TRIPOS>BOND
     1    1    5 1
     2    1    2 2
     3    1   15 1
     4    2    3 1
     5    2    7 1
     6    3    4 2
     7    4    5 1
     8    4   16 1
     9    5    6 1
    10    7    8 1
    11    7   17 1
    12    7   18 1
    13    8    9 1
    14    8   19 1
    15    8   20 1
    16    9   10 am
    17    9   21 1
    18   10   11 2
    19   10   12 1
    20   12   13 1
    21   12   22 1
    22   12   23 1
    23   13   14 1
    24   13   24 1
    25   13   25 1
    26   14   26 1
    27   14   27 1
    28   14   28 1
@<TRIPOS>MOLECULE
ZINC34045468
   47    48     0     0     0
SMALL
USER_CHARGES
1-[3-[3-(4-chlorophenyl)propoxy]propyl]piperidine
@<TRIPOS>ATOM
      1 C1          6.5292    7.9807    1.1800 C.ar      1 <0>        -0.1037
      2 C2          7.8612    8.3497    1.1699 C.ar      1 <0>        -0.1074
      3 C3          8.5159    8.5437   -0.0334 C.ar      1 <0>        -0.0364
      4 C4          7.8383    8.3626   -1.2259 C.ar      1 <0>        -0.1074
      5 C5          6.5079    7.9880   -1.2146 C.ar      1 <0>        -0.1038
      6 C6          5.8543    7.7944   -0.0120 C.ar      1 <0>        -0.0827
      7 C7          4.4037    7.3860   -0.0003 C.3       1 <0>        -0.0793
      8 C8          4.3036    5.8593   -0.0076 C.3       1 <0>        -0.1146
      9 C9          2.8309    5.4447    0.0043 C.3       1 <0>         0.0620
     10 O1          2.7374    4.0188   -0.0025 O.3       1 <0>        -0.3858
     11 C10         1.3968    3.5242    0.0076 C.3       1 <0>         0.0636
     12 C11         1.4175    1.9944   -0.0008 C.3       1 <0>        -0.1499
     13 C12        -0.0178    1.4648    0.0101 C.3       1 <0>        -0.0037
     14 N1          0.0021   -0.0041    0.0020 N.4       1 <0>        -0.3968
     15 C13         0.5594   -0.5159   -1.2565 C.3       1 <0>        -0.0101
     16 C14         0.6997   -2.0375   -1.1723 C.3       1 <0>        -0.1467
     17 C15        -0.6755   -2.6583   -0.9115 C.3       1 <0>        -0.1413
     18 C16        -1.2548   -2.0725    0.3791 C.3       1 <0>        -0.1471
     19 C17        -1.3384   -0.5499    0.2500 C.3       1 <0>        -0.0038
     20 Cl1        10.1870    9.0135   -0.0468 Cl        1 <0>        -0.0645
     21 H1          6.0169    7.8335    2.1193 H         1 <0>         0.1314
     22 H2          8.3896    8.4909    2.1012 H         1 <0>         0.1352
     23 H3          8.3490    8.5135   -2.1656 H         1 <0>         0.1352
     24 H4          5.9790    7.8463   -2.1455 H         1 <0>         0.1313
     25 H5          3.9189    7.7809    0.9047 H         1 <0>         0.0788
     26 H6          3.9016    7.7906   -0.8915 H         1 <0>         0.0787
     27 H7          4.7884    5.4644   -0.9126 H         1 <0>         0.0755
     28 H8          4.8057    5.4546    0.8836 H         1 <0>         0.0757
     29 H9          2.3461    5.8396    0.9093 H         1 <0>         0.0559
     30 H10         2.3288    5.8493   -0.8869 H         1 <0>         0.0556
     31 H11         0.8819    3.8790    0.9126 H         1 <0>         0.0600
     32 H12         0.8648    3.8886   -0.8836 H         1 <0>         0.0592
     33 H13         1.9323    1.6397   -0.9058 H         1 <0>         0.0954
     34 H14         1.9496    1.6300    0.8903 H         1 <0>         0.0965
     35 H15        -0.5326    1.8195    0.9152 H         1 <0>         0.1336
     36 H16        -0.5499    1.8292   -0.8810 H         1 <0>         0.1289
     37 H17        -0.1124   -0.2555   -2.0877 H         1 <0>         0.1258
     38 H18         1.5482   -0.0660   -1.4295 H         1 <0>         0.1322
     39 H19         1.1034   -2.4215   -2.1207 H         1 <0>         0.1120
     40 H20         1.3832   -2.2978   -0.3507 H         1 <0>         0.0885
     41 H21        -1.3458   -2.4315   -1.7537 H         1 <0>         0.0809
     42 H22        -0.5721   -3.7486   -0.8085 H         1 <0>         0.0946
     43 H23        -2.2608   -2.4836    0.5491 H         1 <0>         0.1124
     44 H24        -0.6035   -2.3352    1.2257 H         1 <0>         0.0887
     45 H25        -1.7408   -0.1249    1.1814 H         1 <0>         0.1307
     46 H26        -2.0013   -0.2893   -0.5883 H         1 <0>         0.1257
     47 H27         0.6571   -0.3396    0.8196 H         1 <0>         0.4410
@<TRIPOS>BOND
     1    1    6 ar
     2    1    2 ar
     3    1   21 1
     4    2    3 ar
     5    2   22 1
     6    3    4 ar
     7    3   20 1
     8    4    5 ar
     9    4   23 1
    10    5    6 ar
    11    5   24 1
    12    6    7 1
    13    7    8 1
    14    7   25 1
    15    7   26 1
    16    8    9 1
    17    8   27 1
    18    8   28 1
    19    9   10 1
    20    9   29 1
    21    9   30 1
    22   10   11 1
    23   11   12 1
    24   11   31 1
    25   11   32 1
    26   12   13 1
    27   12   33 1
    28   12   34 1
    29   13   14 1
    30   13   35 1
    31   13   36 1
    32   14   19 1
    33   14   15 1
    34   14   47 1
    35   15   16 1
    36   15   37 1
    37   15   38 1
    38   16   17 1
    39   16   39 1
    40   16   40 1
    41   17   18 1
    42   17   41 1
    43   17   42 1
    44   18   19 1
    45   18   43 1
    46   18   44 1
    47   19   45 1
    48   19   46 1
@<TRIPOS>MOLECULE
ZINC40893422
   67    71     0     0     0
SMALL
USER_CHARGES

@<TRIPOS>ATOM
      1 C1         -0.0187    1.5258    0.0104 C.3       1 <0>        -0.1797
      2 C2          0.0021   -0.0041    0.0020 C.3       1 <0>         0.0245
      3 H1          0.5000   -0.3635   -0.8985 H         1 <0>         0.1373
      4 C3         -1.4373   -0.5486    0.0584 C.3       1 <0>        -0.1413
      5 C4         -1.4939   -1.4078    1.3424 C.3       1 <0>        -0.1452
      6 C5         -0.0045   -1.7512    1.5954 C.3       1 <0>        -0.0065
      7 N1          0.7072   -0.5050    1.2018 N.4       1 <0>        -0.3950
      8 C6          2.1101   -0.7978    0.8794 C.3       1 <0>        -0.0013
      9 C7          2.8545   -1.1950    2.1558 C.3       1 <0>        -0.0985
     10 C8          4.2938   -1.4954    1.8251 C.ar      1 <0>        -0.1078
     11 C9          4.6664   -2.7812    1.4764 C.ar      1 <0>        -0.1055
     12 C10         5.9825   -3.0628    1.1725 C.ar      1 <0>        -0.1018
     13 C11         6.9383   -2.0472    1.2171 C.ar      1 <0>        -0.0139
     14 C12         6.5558   -0.7523    1.5692 C.ar      1 <0>        -0.1033
     15 C13         5.2356   -0.4829    1.8661 C.ar      1 <0>        -0.1056
     16 C14         8.3501   -2.3420    0.8932 C.2       1 <0>        -0.1156
     17 C15         8.7820   -2.7202   -0.2967 C.2       1 <0>        -0.1179
     18 C16        10.2770   -2.9400   -0.2810 C.3       1 <0>        -0.1013
     19 C17        10.6432   -3.0588    1.2140 C.3       1 <0>        -0.0996
     20 H2         10.7039   -4.0906    1.5602 H         1 <0>         0.1110
     21 C18         9.4932   -2.2446    1.8776 C.3       1 <0>        -0.0586
     22 H3          9.2292   -2.6122    2.8693 H         1 <0>         0.0992
     23 C19        10.0287   -0.8003    1.8834 C.3       1 <0>         0.1116
     24 N2         11.4924   -0.8882    1.9141 N.am      1 <0>        -0.6198
     25 C20        11.9187   -2.2537    1.4958 C.3       1 <0>         0.1137
     26 C21        12.3255    0.1093    2.2708 C.2       1 <0>         0.5333
     27 O1         13.5250   -0.0697    2.2609 O.2       1 <0>        -0.5269
     28 C22        11.7667    1.4471    2.6821 C.3       1 <0>        -0.1040
     29 C23        10.9638    2.0453    1.5228 C.3       1 <0>        -0.1538
     30 C24        10.4665    3.4372    1.9215 C.3       1 <0>         0.0637
     31 O2         11.5829    4.2594    2.2676 O.3       1 <0>        -0.3791
     32 C25        12.3435    3.7742    3.3759 C.3       1 <0>         0.0603
     33 C26        12.9161    2.3958    3.0357 C.3       1 <0>        -0.1381
     34 H4          1.0039    1.9031    0.0027 H         1 <0>         0.0794
     35 H5         -0.5459    1.8868   -0.8726 H         1 <0>         0.1064
     36 H6         -0.5289    1.8773    0.9072 H         1 <0>         0.0819
     37 H7         -2.1505    0.2733    0.1214 H         1 <0>         0.1061
     38 H8         -1.6438   -1.1634   -0.8176 H         1 <0>         0.1041
     39 H9         -1.9038   -0.8333    2.1731 H         1 <0>         0.0977
     40 H10        -2.0757   -2.3142    1.1746 H         1 <0>         0.1166
     41 H11         0.1651   -1.9754    2.6485 H         1 <0>         0.1350
     42 H12         0.3100   -2.5852    0.9680 H         1 <0>         0.1332
     43 H13         2.1548   -1.6178    0.1627 H         1 <0>         0.1297
     44 H14         2.5762    0.0879    0.4477 H         1 <0>         0.1295
     45 H15         2.8099   -0.3750    2.8725 H         1 <0>         0.0938
     46 H16         2.3884   -2.0807    2.5875 H         1 <0>         0.0938
     47 H17         3.9256   -3.5664    1.4422 H         1 <0>         0.1250
     48 H18         6.2722   -4.0672    0.9011 H         1 <0>         0.1300
     49 H19         7.2909    0.0381    1.6054 H         1 <0>         0.1277
     50 H20         4.9376    0.5197    2.1351 H         1 <0>         0.1255
     51 H21         8.1518   -2.8545   -1.1634 H         1 <0>         0.1315
     52 H22        10.5307   -3.8598   -0.8080 H         1 <0>         0.0842
     53 H23        10.7901   -2.0901   -0.7309 H         1 <0>         0.0868
     54 H24         9.7057   -0.2799    0.9817 H         1 <0>         0.0727
     55 H25         9.6687   -0.2732    2.7670 H         1 <0>         0.0744
     56 H26        12.4894   -2.7343    2.2904 H         1 <0>         0.0755
     57 H27        12.5244   -2.1950    0.5915 H         1 <0>         0.0778
     58 H28        11.1185    1.3205    3.5492 H         1 <0>         0.0966
     59 H29        11.6003    2.1244    0.6415 H         1 <0>         0.0792
     60 H30        10.1111    1.4036    1.3010 H         1 <0>         0.0796
     61 H31         9.9307    3.8852    1.0847 H         1 <0>         0.0970
     62 H32         9.7978    3.3528    2.7781 H         1 <0>         0.0512
     63 H33        13.1598    4.4650    3.5868 H         1 <0>         0.1020
     64 H34        11.6993    3.6942    4.2516 H         1 <0>         0.0522
     65 H35        13.4597    2.0048    3.8958 H         1 <0>         0.0830
     66 H36        13.5921    2.4820    2.1849 H         1 <0>         0.0829
     67 H37         0.6542    0.1747    1.9456 H         1 <0>         0.4236
@<TRIPOS>BOND
     1    1    2 1
     2    1   34 1
     3    1   35 1
     4    1   36 1
     5    2    3 1
     6    2    7 1
     7    2    4 1
     8    4    5 1
     9    4   37 1
    10    4   38 1
    11    5    6 1
    12    5   39 1
    13    5   40 1
    14    6    7 1
    15    6   41 1
    16    6   42 1
    17    7    8 1
    18    7   67 1
    19    8    9 1
    20    8   43 1
    21    8   44 1
    22    9   10 1
    23    9   45 1
    24    9   46 1
    25   10   15 ar
    26   10   11 ar
    27   11   12 ar
    28   11   47 1
    29   12   13 ar
    30   12   48 1
    31   13   14 ar
    32   13   16 1
    33   14   15 ar
    34   14   49 1
    35   15   50 1
    36   16   21 1
    37   16   17 2
    38   17   18 1
    39   17   51 1
    40   18   19 1
    41   18   52 1
    42   18   53 1
    43   19   20 1
    44   19   25 1
    45   19   21 1
    46   21   22 1
    47   21   23 1
    48   23   24 1
    49   23   54 1
    50   23   55 1
    51   24   25 1
    52   24   26 am
    53   25   56 1
    54   25   57 1
    55   26   27 2
    56   26   28 1
    57   28   33 1
    58   28   29 1
    59   28   58 1
    60   29   30 1
    61   29   59 1
    62   29   60 1
    63   30   31 1
    64   30   61 1
    65   30   62 1
    66   31   32 1
    67   32   33 1
    68   32   63 1
    69   32   64 1
    70   33   65 1
    71   33   66 1
@<TRIPOS>MOLECULE
ZINC40428795
   68    71     0     0     0
SMALL
USER_CHARGES

@<TRIPOS>ATOM
      1 C1         -0.4500    1.1181   -0.7526 C.3       1 <0>        -0.1818
      2 C2         -0.0952   -0.3469   -0.4905 C.3       1 <0>         0.1383
      3 C3          0.8163   -0.8587   -1.6077 C.3       1 <0>        -0.1763
      4 N1          0.5981   -0.4589    0.7952 N.pl3     1 <0>        -0.4357
      5 C4          0.1174   -1.1053    1.9117 C.ar      1 <0>         0.0859
      6 C5         -1.0612   -1.7979    2.1746 C.ar      1 <0>        -0.0812
      7 C6         -1.2717   -2.3520    3.4164 C.ar      1 <0>        -0.1746
      8 C7         -0.3133   -2.2275    4.4207 C.ar      1 <0>         0.0857
      9 C8          0.8611   -1.5464    4.1824 C.ar      1 <0>        -0.0925
     10 C9          1.0893   -0.9768    2.9224 C.ar      1 <0>        -0.0744
     11 C10         2.1622   -0.2344    2.3726 C.2       1 <0>        -0.1705
     12 C11         1.8442    0.0616    1.0851 C.2       1 <0>         0.0483
     13 C12         2.6902    0.8189    0.1505 C.2       1 <0>         0.5815
     14 O1          2.1945    1.3484   -0.8261 O.2       1 <0>        -0.5125
     15 N2          4.0146    0.9263    0.3760 N.am      1 <0>        -0.5980
     16 C13         4.6500    0.1825    1.4722 C.3       1 <0>         0.0708
     17 C14         5.8213   -0.6261    0.9055 C.3       1 <0>        -0.1751
     18 C15         6.7665    0.3124    0.1519 C.3       1 <0>         0.2886
     19 C16         6.0194    0.9628   -1.0146 C.3       1 <0>        -0.1756
     20 C17         4.8514    1.7847   -0.4735 C.3       1 <0>         0.1143
     21 F1          7.8538   -0.4177   -0.3401 F         1 <0>        -0.1962
     22 F2          7.2281    1.3061    1.0218 F         1 <0>        -0.1956
     23 O2         -0.5383   -2.7806    5.6425 O.3       1 <0>        -0.2986
     24 C18        -1.8004   -3.4203    5.8426 C.3       1 <0>         0.0766
     25 C19        -2.8535   -2.3714    6.2112 C.3       1 <0>        -0.1762
     26 C20        -4.1829   -3.0713    6.5015 C.3       1 <0>        -0.0073
     27 N3         -4.0126   -4.0092    7.6177 N.4       1 <0>        -0.3841
     28 C21        -3.0574   -5.0593    7.2447 C.3       1 <0>        -0.0063
     29 C22        -1.6847   -4.4359    6.9829 C.3       1 <0>        -0.1427
     30 C23        -5.3080   -4.6208    7.9433 C.3       1 <0>         0.0230
     31 C24        -5.1321   -5.5987    9.1068 C.3       1 <0>        -0.1852
     32 C25        -6.3022   -3.5281    8.3414 C.3       1 <0>        -0.1852
     33 H1          0.4359    1.7373   -0.6121 H         1 <0>         0.1044
     34 H2         -0.8110    1.2271   -1.7753 H         1 <0>         0.0738
     35 H3         -1.2278    1.4336   -0.0572 H         1 <0>         0.0502
     36 H4         -1.0076   -0.9426   -0.4643 H         1 <0>         0.0930
     37 H5          1.7826   -0.3582   -1.5461 H         1 <0>         0.0857
     38 H6          0.9564   -1.9341   -1.4983 H         1 <0>         0.0543
     39 H7          0.3591   -0.6483   -2.5746 H         1 <0>         0.0781
     40 H8         -1.8107   -1.9001    1.4038 H         1 <0>         0.1271
     41 H9         -2.1881   -2.8879    3.6148 H         1 <0>         0.1290
     42 H10         1.6014   -1.4515    4.9630 H         1 <0>         0.1363
     43 H11         3.0724    0.0430    2.8835 H         1 <0>         0.1709
     44 H12         5.0181    0.8817    2.2231 H         1 <0>         0.0900
     45 H13         3.9241   -0.4935    1.9241 H         1 <0>         0.1321
     46 H14         6.3603   -1.1067    1.7219 H         1 <0>         0.1063
     47 H15         5.4420   -1.3859    0.2223 H         1 <0>         0.1004
     48 H16         6.6994    1.6131   -1.5649 H         1 <0>         0.1072
     49 H17         5.6382    0.1880   -1.6798 H         1 <0>         0.1006
     50 H18         4.2583    2.1655   -1.3049 H         1 <0>         0.1126
     51 H19         5.2362    2.6175    0.1152 H         1 <0>         0.0870
     52 H20        -2.0987   -3.9321    4.9276 H         1 <0>         0.0895
     53 H21        -2.5287   -1.8251    7.0968 H         1 <0>         0.1009
     54 H22        -2.9815   -1.6768    5.3810 H         1 <0>         0.1180
     55 H23        -4.9349   -2.3273    6.7641 H         1 <0>         0.1385
     56 H24        -4.5068   -3.6169    5.6152 H         1 <0>         0.1301
     57 H25        -2.9785   -5.7830    8.0559 H         1 <0>         0.1416
     58 H26        -3.4053   -5.5626    6.3426 H         1 <0>         0.1314
     59 H27        -0.9773   -5.2169    6.7044 H         1 <0>         0.1224
     60 H28        -1.3357   -3.9325    7.8846 H         1 <0>         0.1005
     61 H29        -5.6861   -5.1563    7.0725 H         1 <0>         0.1366
     62 H30        -4.7540   -5.0631    9.9776 H         1 <0>         0.0821
     63 H31        -6.0933   -6.0525    9.3484 H         1 <0>         0.1065
     64 H32        -4.4238   -6.3771    8.8232 H         1 <0>         0.0825
     65 H33        -5.9241   -2.9925    9.2122 H         1 <0>         0.0819
     66 H34        -6.4275   -2.8314    7.5125 H         1 <0>         0.0819
     67 H35        -7.2634   -3.9819    8.5830 H         1 <0>         0.1066
     68 H36        -3.6659   -3.5114    8.4240 H         1 <0>         0.4225
@<TRIPOS>BOND
     1    1    2 1
     2    1   33 1
     3    1   34 1
     4    1   35 1
     5    2    3 1
     6    2    4 1
     7    2   36 1
     8    3   37 1
     9    3   38 1
    10    3   39 1
    11    4   12 1
    12    4    5 1
    13    5   10 ar
    14    5    6 ar
    15    6    7 ar
    16    6   40 1
    17    7    8 ar
    18    7   41 1
    19    8    9 ar
    20    8   23 1
    21    9   10 ar
    22    9   42 1
    23   10   11 1
    24   11   12 2
    25   11   43 1
    26   12   13 1
    27   13   14 2
    28   13   15 am
    29   15   20 1
    30   15   16 1
    31   16   17 1
    32   16   44 1
    33   16   45 1
    34   17   18 1
    35   17   46 1
    36   17   47 1
    37   18   19 1
    38   18   21 1
    39   18   22 1
    40   19   20 1
    41   19   48 1
    42   19   49 1
    43   20   50 1
    44   20   51 1
    45   23   24 1
    46   24   29 1
    47   24   25 1
    48   24   52 1
    49   25   26 1
    50   25   53 1
    51   25   54 1
    52   26   27 1
    53   26   55 1
    54   26   56 1
    55   27   28 1
    56   27   30 1
    57   27   68 1
    58   28   29 1
    59   28   57 1
    60   28   58 1
    61   29   59 1
    62   29   60 1
    63   30   31 1
    64   30   32 1
    65   30   61 1
    66   31   62 1
    67   31   63 1
    68   31   64 1
    69   32   65 1
    70   32   66 1
    71   32   67 1
@<TRIPOS>MOLECULE
ZINC14985904
   27    28     0     0     0
SMALL
USER_CHARGES
2-ethoxycarbonyl-1H-indole-5-carboxylic acid
@<TRIPOS>ATOM
      1 C1         -4.8023    5.8454    0.0794 C.3       1 <0>        -0.1529
      2 C2         -3.2907    6.0815    0.0662 C.3       1 <0>         0.0638
      3 O1         -2.6013    4.8036    0.0527 O.3       1 <0>        -0.3620
      4 C3         -1.2533    4.8354    0.0400 C.2       1 <0>         0.5372
      5 O2         -0.6704    5.9022    0.0402 O.2       1 <0>        -0.4983
      6 C4         -0.4892    3.5808    0.0260 C.2       1 <0>        -0.0002
      7 C5          0.8663    3.4842    0.0125 C.2       1 <0>        -0.0749
      8 C6          1.1984    2.1070    0.0019 C.ar      1 <0>        -0.1401
      9 C7          2.4118    1.4139   -0.0134 C.ar      1 <0>        -0.0240
     10 C8          2.4050    0.0237   -0.0204 C.ar      1 <0>        -0.1429
     11 C9          1.1877   -0.6748   -0.0129 C.ar      1 <0>        -0.0253
     12 C10         0.0021   -0.0041    0.0020 C.ar      1 <0>        -0.1649
     13 C11        -0.0168    1.3906    0.0097 C.ar      1 <0>         0.1273
     14 N1         -1.0343    2.3107    0.0188 N.pl3     1 <0>        -0.5728
     15 H1         -1.9820    2.1037    0.0216 H         1 <0>         0.4197
     16 C12         3.6798   -0.7187   -0.0361 C.2       1 <0>         0.4927
     17 O3          4.7342   -0.1151   -0.0425 O.co2     1 <0>        -0.6320
     18 H2         -5.0905    5.2864   -0.8109 H         1 <0>         0.0667
     19 H3         -5.0735    5.2769    0.9689 H         1 <0>         0.0667
     20 H4         -5.3198    6.8047    0.0895 H         1 <0>         0.0805
     21 H5         -3.0025    6.6404    0.9565 H         1 <0>         0.0718
     22 H6         -3.0195    6.6500   -0.8234 H         1 <0>         0.0718
     23 H7          1.5643    4.3083    0.0109 H         1 <0>         0.1564
     24 H8          3.3471    1.9538   -0.0194 H         1 <0>         0.1341
     25 H9          1.1909   -1.7548   -0.0188 H         1 <0>         0.1391
     26 H10        -0.9271   -0.5545    0.0083 H         1 <0>         0.1193
     27 O4          3.6747   -2.0660   -0.0433 O.co2     1 <0>        -0.7567
@<TRIPOS>BOND
     1    1    2 1
     2    1   18 1
     3    1   19 1
     4    1   20 1
     5    2    3 1
     6    2   21 1
     7    2   22 1
     8    3    4 1
     9    4    5 2
    10    4    6 1
    11    6   14 1
    12    6    7 2
    13    7    8 1
    14    7   23 1
    15    8   13 ar
    16    8    9 ar
    17    9   10 ar
    18    9   24 1
    19   10   11 ar
    20   10   16 1
    21   11   12 ar
    22   11   25 1
    23   12   13 ar
    24   12   26 1
    25   13   14 1
    26   14   15 1
    27   16   17 2
    28   16   27 1
@<TRIPOS>MOLECULE
ZINC42887577
   51    55     0     0     0
SMALL
USER_CHARGES

@<TRIPOS>ATOM
      1 C1         -0.0518    1.5017   -0.1148 C.3       1 <0>        -0.1240
      2 C2          1.3896    2.0009   -0.1884 C.3       1 <0>        -0.1233
      3 C3          2.1792    1.5324    1.0162 C.3       1 <0>        -0.1236
      4 C4          2.0195    0.0939    1.3795 C.3       1 <0>         0.0936
      5 H1          2.2717   -0.0155    2.4343 H         1 <0>         0.0954
      6 C5          0.6350   -0.5290    1.1646 C.3       1 <0>        -0.0591
      7 H2         -0.0167   -0.3840    2.0262 H         1 <0>         0.1072
      8 C6         -0.0335   -0.0263   -0.0957 C.3       1 <0>        -0.1163
      9 C7          1.0170   -1.9803    0.9762 C.2       1 <0>        -0.3344
     10 C8          2.3328   -2.0225    0.6739 C.2       1 <0>         0.2511
     11 O1          2.8682   -0.7933    0.6365 O.3       1 <0>        -0.2589
     12 C9          3.0235   -3.3350    0.3757 C.3       1 <0>        -0.0898
     13 C10         2.3849   -4.4569    1.1913 C.3       1 <0>        -0.0540
     14 C11         0.8856   -4.4170    1.1377 C.ar      1 <0>        -0.2237
     15 C12         0.2049   -3.1948    1.0601 C.ar      1 <0>         0.3605
     16 N1         -1.1238   -3.1799    1.0574 N.ar      1 <0>        -0.5496
     17 C13        -1.8045   -4.3176    1.0919 C.ar      1 <0>         0.6483
     18 N2         -1.1964   -5.4936    1.1387 N.ar      1 <0>        -0.5521
     19 C14         0.1326   -5.5842    1.1657 C.ar      1 <0>         0.5268
     20 N3          0.7537   -6.8224    1.2213 N.pl3     1 <0>        -0.6706
     21 C15         1.1158   -7.4297    2.5114 C.3       1 <0>         0.1172
     22 C16         0.5808   -8.8652    2.5396 C.3       1 <0>        -0.0241
     23 N4          1.0770   -9.5946    1.3658 N.4       1 <0>        -0.5044
     24 C17         0.5361   -8.9955    0.1392 C.3       1 <0>        -0.0241
     25 C18         1.0638   -7.5690   -0.0077 C.3       1 <0>         0.1164
     26 N5         -3.1878   -4.2751    1.0794 N.pl3     1 <0>        -0.7861
     27 H3         -0.5233    1.8744    0.7945 H         1 <0>         0.0723
     28 H4         -0.6061    1.8511   -0.9859 H         1 <0>         0.0790
     29 H5          1.8567    1.6173   -1.0955 H         1 <0>         0.0679
     30 H6          1.3913    3.0905   -0.2174 H         1 <0>         0.0831
     31 H7          3.2358    1.7200    0.8248 H         1 <0>         0.0919
     32 H8          1.8815    2.1354    1.8741 H         1 <0>         0.0970
     33 H9         -1.0557   -0.4014   -0.1447 H         1 <0>         0.0613
     34 H10         0.5270   -0.3925   -0.9558 H         1 <0>         0.0705
     35 H11         2.9287   -3.5606   -0.6864 H         1 <0>         0.1212
     36 H12         4.0793   -3.2553    0.6345 H         1 <0>         0.1271
     37 H13         2.7271   -5.4157    0.8020 H         1 <0>         0.1112
     38 H14         2.7040   -4.3648    2.2295 H         1 <0>         0.1008
     39 H15         2.2003   -7.4408    2.6194 H         1 <0>         0.1031
     40 H16         0.6696   -6.8565    3.3241 H         1 <0>         0.1198
     41 H17         0.9220   -9.3625    3.4475 H         1 <0>         0.1503
     42 H18        -0.5090   -8.8474    2.5225 H         1 <0>         0.1373
     43 H19         2.0848   -9.5495    1.3446 H         1 <0>         0.4310
     44 H20         0.8444   -9.5888   -0.7216 H         1 <0>         0.1504
     45 H21        -0.5523   -8.9737    0.1947 H         1 <0>         0.1374
     46 H22         0.5833   -7.0878   -0.8596 H         1 <0>         0.1202
     47 H23         2.1430   -7.5944   -0.1584 H         1 <0>         0.1025
     48 H24        -3.6465   -3.4211    1.0456 H         1 <0>         0.4335
     49 H25        -3.6986   -5.0994    1.1043 H         1 <0>         0.4469
     50 H26         0.7871  -10.5594    1.4236 H         1 <0>         0.4402
     51 H27        -1.5976   -2.3339    1.0303 H         1 <0>         0.4460
@<TRIPOS>BOND
     1    1    8 1
     2    1    2 1
     3    1   27 1
     4    1   28 1
     5    2    3 1
     6    2   29 1
     7    2   30 1
     8    3    4 1
     9    3   31 1
    10    3   32 1
    11    4    5 1
    12    4   11 1
    13    4    6 1
    14    6    7 1
    15    6    8 1
    16    6    9 1
    17    8   33 1
    18    8   34 1
    19    9   15 1
    20    9   10 2
    21   10   11 1
    22   10   12 1
    23   12   13 1
    24   12   35 1
    25   12   36 1
    26   13   14 1
    27   13   37 1
    28   13   38 1
    29   14   19 ar
    30   14   15 ar
    31   15   16 ar
    32   16   17 ar
    33   16   51 1
    34   17   18 ar
    35   17   26 1
    36   18   19 ar
    37   19   20 1
    38   20   25 1
    39   20   21 1
    40   21   22 1
    41   21   39 1
    42   21   40 1
    43   22   23 1
    44   22   41 1
    45   22   42 1
    46   23   24 1
    47   23   43 1
    48   23   50 1
    49   24   25 1
    50   24   44 1
    51   24   45 1
    52   25   46 1
    53   25   47 1
    54   26   48 1
    55   26   49 1
@<TRIPOS>MOLECULE
ZINC42887577
   50    54     0     0     0
SMALL
USER_CHARGES

@<TRIPOS>ATOM
      1 C1         -0.0518    1.5017   -0.1148 C.3       1 <0>        -0.1220
      2 C2          1.3896    2.0009   -0.1884 C.3       1 <0>        -0.1192
      3 C3          2.1792    1.5324    1.0162 C.3       1 <0>        -0.1147
      4 C4          2.0195    0.0939    1.3795 C.3       1 <0>         0.0898
      5 H1          2.2717   -0.0155    2.4343 H         1 <0>         0.0758
      6 C5          0.6350   -0.5290    1.1646 C.3       1 <0>        -0.0477
      7 H2         -0.0167   -0.3840    2.0262 H         1 <0>         0.0960
      8 C6         -0.0335   -0.0263   -0.0957 C.3       1 <0>        -0.1049
      9 C7          1.0170   -1.9803    0.9762 C.2       1 <0>        -0.2453
     10 C8          2.3328   -2.0225    0.6739 C.2       1 <0>         0.1401
     11 O1          2.8682   -0.7933    0.6365 O.3       1 <0>        -0.2869
     12 C9          3.0235   -3.3350    0.3757 C.3       1 <0>        -0.0663
     13 C10         2.3849   -4.4569    1.1913 C.3       1 <0>        -0.0450
     14 C11         0.8856   -4.4170    1.1377 C.ar      1 <0>        -0.2541
     15 C12         0.2049   -3.1948    1.0601 C.ar      1 <0>         0.3245
     16 N1         -1.1238   -3.1799    1.0574 N.ar      1 <0>        -0.5564
     17 C13        -1.8045   -4.3176    1.0919 C.ar      1 <0>         0.5906
     18 N2         -1.1964   -5.4936    1.1387 N.ar      1 <0>        -0.6006
     19 C14         0.1326   -5.5842    1.1657 C.ar      1 <0>         0.4501
     20 N3          0.7537   -6.8224    1.2213 N.pl3     1 <0>        -0.6608
     21 C15         1.1158   -7.4297    2.5114 C.3       1 <0>         0.1219
     22 C16         0.5808   -8.8652    2.5396 C.3       1 <0>        -0.0241
     23 N4          1.0770   -9.5946    1.3658 N.4       1 <0>        -0.5018
     24 C17         0.5361   -8.9955    0.1392 C.3       1 <0>        -0.0239
     25 C18         1.0638   -7.5690   -0.0077 C.3       1 <0>         0.1212
     26 N5         -3.1878   -4.2751    1.0794 N.pl3     1 <0>        -0.8176
     27 H3         -0.5233    1.8744    0.7945 H         1 <0>         0.0664
     28 H4         -0.6061    1.8511   -0.9859 H         1 <0>         0.0695
     29 H5          1.8567    1.6173   -1.0955 H         1 <0>         0.0639
     30 H6          1.3913    3.0905   -0.2174 H         1 <0>         0.0723
     31 H7          3.2358    1.7200    0.8248 H         1 <0>         0.0806
     32 H8          1.8815    2.1354    1.8741 H         1 <0>         0.0857
     33 H9         -1.0557   -0.4014   -0.1447 H         1 <0>         0.0725
     34 H10         0.5270   -0.3925   -0.9558 H         1 <0>         0.0586
     35 H11         2.9287   -3.5606   -0.6864 H         1 <0>         0.0972
     36 H12         4.0793   -3.2553    0.6345 H         1 <0>         0.1003
     37 H13         2.7271   -5.4157    0.8020 H         1 <0>         0.0853
     38 H14         2.7040   -4.3648    2.2295 H         1 <0>         0.0768
     39 H15         2.2003   -7.4408    2.6194 H         1 <0>         0.0885
     40 H16         0.6696   -6.8565    3.3241 H         1 <0>         0.1147
     41 H17         0.9220   -9.3625    3.4475 H         1 <0>         0.1413
     42 H18        -0.5090   -8.8474    2.5225 H         1 <0>         0.1345
     43 H19         2.0848   -9.5495    1.3446 H         1 <0>         0.4272
     44 H20         0.8444   -9.5888   -0.7216 H         1 <0>         0.1416
     45 H21        -0.5523   -8.9737    0.1947 H         1 <0>         0.1346
     46 H22         0.5833   -7.0878   -0.8596 H         1 <0>         0.1152
     47 H23         2.1430   -7.5944   -0.1584 H         1 <0>         0.0877
     48 H24        -3.6465   -3.4211    1.0456 H         1 <0>         0.4194
     49 H25        -3.6986   -5.0994    1.1043 H         1 <0>         0.4149
     50 H26         0.7871  -10.5594    1.4236 H         1 <0>         0.4326
@<TRIPOS>BOND
     1    1    8 1
     2    1    2 1
     3    1   27 1
     4    1   28 1
     5    2    3 1
     6    2   29 1
     7    2   30 1
     8    3    4 1
     9    3   31 1
    10    3   32 1
    11    4    5 1
    12    4   11 1
    13    4    6 1
    14    6    7 1
    15    6    8 1
    16    6    9 1
    17    8   33 1
    18    8   34 1
    19    9   15 1
    20    9   10 2
    21   10   11 1
    22   10   12 1
    23   12   13 1
    24   12   35 1
    25   12   36 1
    26   13   14 1
    27   13   37 1
    28   13   38 1
    29   14   19 ar
    30   14   15 ar
    31   15   16 ar
    32   16   17 ar
    33   17   18 ar
    34   17   26 1
    35   18   19 ar
    36   19   20 1
    37   20   25 1
    38   20   21 1
    39   21   22 1
    40   21   39 1
    41   21   40 1
    42   22   23 1
    43   22   41 1
    44   22   42 1
    45   23   24 1
    46   23   43 1
    47   23   50 1
    48   24   25 1
    49   24   44 1
    50   24   45 1
    51   25   46 1
    52   25   47 1
    53   26   48 1
    54   26   49 1
@<TRIPOS>MOLECULE
ZINC42887577
   51    55     0     0     0
SMALL
USER_CHARGES

@<TRIPOS>ATOM
      1 C1         -0.0530    1.5009   -0.1188 C.3       1 <0>        -0.1241
      2 C2          1.3884    2.0000   -0.1944 C.3       1 <0>        -0.1226
      3 C3          2.1794    1.5322    1.0096 C.3       1 <0>        -0.1211
      4 C4          2.0201    0.0940    1.3739 C.3       1 <0>         0.0885
      5 H1          2.2735   -0.0148    2.4285 H         1 <0>         0.0910
      6 C5          0.6353   -0.5290    1.1610 C.3       1 <0>        -0.0474
      7 H2         -0.0154   -0.3835    2.0233 H         1 <0>         0.1079
      8 C6         -0.0346   -0.0270   -0.0987 C.3       1 <0>        -0.1091
      9 C7          1.0170   -1.9805    0.9730 C.2       1 <0>        -0.2880
     10 C8          2.3324   -2.0229    0.6692 C.2       1 <0>         0.2249
     11 O1          2.8679   -0.7937    0.6305 O.3       1 <0>        -0.2629
     12 C9          3.0227   -3.3356    0.3710 C.3       1 <0>        -0.0848
     13 C10         2.3850   -4.4570    1.1880 C.3       1 <0>        -0.0597
     14 C11         0.8856   -4.4170    1.1361 C.ar      1 <0>        -0.1763
     15 C12         0.2049   -3.1948    1.0586 C.ar      1 <0>         0.3893
     16 N1         -1.1238   -3.1799    1.0574 N.ar      1 <0>        -0.5112
     17 C13        -1.8045   -4.3176    1.0935 C.ar      1 <0>         0.6478
     18 N2         -1.1964   -5.4935    1.1402 N.ar      1 <0>        -0.5789
     19 C14         0.1326   -5.5842    1.1657 C.ar      1 <0>         0.4358
     20 N3          0.7537   -6.8224    1.2213 N.pl3     1 <0>        -0.6731
     21 C15         1.1158   -7.4297    2.5114 C.3       1 <0>         0.1064
     22 C16         0.5808   -8.8652    2.5396 C.3       1 <0>        -0.0246
     23 N4          1.0770   -9.5946    1.3658 N.4       1 <0>        -0.5057
     24 C17         0.5361   -8.9955    0.1392 C.3       1 <0>        -0.0245
     25 C18         1.0638   -7.5690   -0.0077 C.3       1 <0>         0.1048
     26 N5         -3.1878   -4.2750    1.0825 N.pl3     1 <0>        -0.7858
     27 H3         -0.5234    1.8742    0.7909 H         1 <0>         0.0704
     28 H4         -0.6083    1.8498   -0.9894 H         1 <0>         0.0754
     29 H5          1.8544    1.6159   -1.1017 H         1 <0>         0.0659
     30 H6          1.3901    3.0896   -0.2240 H         1 <0>         0.0797
     31 H7          3.2357    1.7197    0.8169 H         1 <0>         0.0881
     32 H8          1.8828    2.1357    1.8674 H         1 <0>         0.0950
     33 H9         -1.0570   -0.4021   -0.1463 H         1 <0>         0.0741
     34 H10         0.5248   -0.3938   -0.9593 H         1 <0>         0.0610
     35 H11         2.9266   -3.5619   -0.6909 H         1 <0>         0.1187
     36 H12         4.0788   -3.2558    0.6285 H         1 <0>         0.1259
     37 H13         2.7267   -5.4161    0.7988 H         1 <0>         0.1069
     38 H14         2.7053   -4.3643    2.2258 H         1 <0>         0.1056
     39 H15         2.2003   -7.4408    2.6194 H         1 <0>         0.1105
     40 H16         0.6696   -6.8565    3.3241 H         1 <0>         0.1251
     41 H17         0.9220   -9.3625    3.4475 H         1 <0>         0.1558
     42 H18        -0.5090   -8.8474    2.5225 H         1 <0>         0.1333
     43 H19         2.0848   -9.5495    1.3446 H         1 <0>         0.4347
     44 H20         0.8444   -9.5888   -0.7216 H         1 <0>         0.1561
     45 H21        -0.5523   -8.9737    0.1947 H         1 <0>         0.1330
     46 H22         0.5833   -7.0878   -0.8596 H         1 <0>         0.1249
     47 H23         2.1430   -7.5944   -0.1584 H         1 <0>         0.1103
     48 H24        -3.6465   -3.4210    1.0488 H         1 <0>         0.4503
     49 H25        -3.6987   -5.0992    1.1085 H         1 <0>         0.4297
     50 H26         0.7871  -10.5594    1.4236 H         1 <0>         0.4428
     51 H27        -1.7289   -6.3042    1.1559 H         1 <0>         0.4302
@<TRIPOS>BOND
     1    1    8 1
     2    1    2 1
     3    1   27 1
     4    1   28 1
     5    2    3 1
     6    2   29 1
     7    2   30 1
     8    3    4 1
     9    3   31 1
    10    3   32 1
    11    4    5 1
    12    4   11 1
    13    4    6 1
    14    6    7 1
    15    6    8 1
    16    6    9 1
    17    8   33 1
    18    8   34 1
    19    9   15 1
    20    9   10 2
    21   10   11 1
    22   10   12 1
    23   12   13 1
    24   12   35 1
    25   12   36 1
    26   13   14 1
    27   13   37 1
    28   13   38 1
    29   14   19 ar
    30   14   15 ar
    31   15   16 ar
    32   16   17 ar
    33   17   18 ar
    34   17   26 1
    35   18   19 ar
    36   18   51 1
    37   19   20 1
    38   20   25 1
    39   20   21 1
    40   21   22 1
    41   21   39 1
    42   21   40 1
    43   22   23 1
    44   22   41 1
    45   22   42 1
    46   23   24 1
    47   23   43 1
    48   23   50 1
    49   24   25 1
    50   24   44 1
    51   24   45 1
    52   25   46 1
    53   25   47 1
    54   26   48 1
    55   26   49 1
@<TRIPOS>MOLECULE
ZINC13747368
   19    19     0     0     0
SMALL
USER_CHARGES
3-(1H-imidazol-4-yl)propan-1-ol
@<TRIPOS>ATOM
      1 C1          0.0021   -0.0041    0.0020 C.2       1 <0>        -0.0545
      2 C2          1.2963   -0.3761   -0.0123 C.2       1 <0>         0.0019
      3 N1          2.0475    0.7351   -0.0135 N.2       1 <0>        -0.4894
      4 C3          1.2679    1.7816   -0.0005 C.2       1 <0>         0.1856
      5 N2         -0.0165    1.3646    0.0095 N.pl3     1 <0>        -0.5742
      6 H1         -0.8294    1.9469    0.0204 H         1 <0>         0.4269
      7 C4          1.8104   -1.7926   -0.0249 C.3       1 <0>        -0.0306
      8 C5          2.7508   -1.9833   -1.2166 C.3       1 <0>        -0.1121
      9 C6          3.2728   -3.4215   -1.2293 C.3       1 <0>         0.0741
     10 O1          4.1512   -3.5996   -2.3423 O.3       1 <0>        -0.5757
     11 H2         -0.8562   -0.6596    0.0072 H         1 <0>         0.1756
     12 H3          1.5957    2.8106    0.0019 H         1 <0>         0.2080
     13 H4          2.3515   -1.9910    0.9003 H         1 <0>         0.0758
     14 H5          0.9712   -2.4830   -0.1101 H         1 <0>         0.0751
     15 H6          2.2098   -1.7850   -2.1418 H         1 <0>         0.0661
     16 H7          3.5900   -1.2930   -1.1313 H         1 <0>         0.0774
     17 H8          3.8139   -3.6198   -0.3041 H         1 <0>         0.0460
     18 H9          2.4336   -4.1119   -1.3145 H         1 <0>         0.0444
     19 H10         4.5206   -4.4904   -2.4132 H         1 <0>         0.3797
@<TRIPOS>BOND
     1    1    5 1
     2    1    2 2
     3    1   11 1
     4    2    3 1
     5    2    7 1
     6    3    4 2
     7    4    5 1
     8    4   12 1
     9    5    6 1
    10    7    8 1
    11    7   13 1
    12    7   14 1
    13    8    9 1
    14    8   15 1
    15    8   16 1
    16    9   10 1
    17    9   17 1
    18    9   18 1
    19   10   19 1
@<TRIPOS>MOLECULE
ZINC13747368
   20    20     0     0     0
SMALL
USER_CHARGES
3-(1H-imidazol-5-yl)propan-1-ol
@<TRIPOS>ATOM
      1 C1          1.0519    2.3202    0.0045 C.2       1 <0>        -0.0099
      2 C2         -0.0184    1.5028    0.0103 C.2       1 <0>         0.0506
      3 N1         -1.1283    2.3037    0.0192 N.pl3     1 <0>        -0.5312
      4 H1         -2.1317    1.8530    0.0192 H         1 <0>         0.5030
      5 C3         -0.6974    3.5835    0.0266 C.cat     1 <0>         0.3185
      6 N2          0.6075    3.5857    0.0147 N.pl3     1 <0>        -0.4946
      7 C4          0.0021   -0.0041    0.0020 C.3       1 <0>        -0.0614
      8 C5          0.1478   -0.5200    1.4350 C.3       1 <0>        -0.1214
      9 C6          0.1685   -2.0499    1.4266 C.3       1 <0>         0.0830
     10 O1          0.3047   -2.5318    2.7650 O.3       1 <0>        -0.6065
     11 H2          2.0866    2.0109   -0.0065 H         1 <0>         0.2184
     12 H3         -1.3282    4.4601    0.0362 H         1 <0>         0.2602
     13 H4         -0.9367   -0.3812   -0.4298 H         1 <0>         0.0983
     14 H5          0.8511   -0.3559   -0.6025 H         1 <0>         0.1141
     15 H6          1.0866   -0.1429    1.8668 H         1 <0>         0.0802
     16 H7         -0.7011   -0.1681    2.0395 H         1 <0>         0.0737
     17 H8         -0.7704   -2.4269    0.9949 H         1 <0>         0.0459
     18 H9          1.0174   -2.4018    0.8220 H         1 <0>         0.0484
     19 H10         0.3387   -3.6140    2.9591 H         1 <0>         0.4237
     20 H11         1.3241    4.4203    0.0122 H         1 <0>         0.5069
@<TRIPOS>BOND
     1    1    6 1
     2    1    2 2
     3    1   11 1
     4    2    3 1
     5    2    7 1
     6    3    4 1
     7    3    5 1
     8    5    6 2
     9    5   12 1
    10    6   20 1
    11    7    8 1
    12    7   13 1
    13    7   14 1
    14    8    9 1
    15    8   15 1
    16    8   16 1
    17    9   10 1
    18    9   17 1
    19    9   18 1
    20   10   19 1
@<TRIPOS>MOLECULE
ZINC43071866
   63    66     0     0     0
SMALL
USER_CHARGES

@<TRIPOS>ATOM
      1 C1         -0.0187    1.5258    0.0104 C.3       1 <0>        -0.1798
      2 C2          0.0021   -0.0041    0.0020 C.3       1 <0>         0.0245
      3 H1          0.5000   -0.3635   -0.8985 H         1 <0>         0.1374
      4 C3         -1.4373   -0.5486    0.0584 C.3       1 <0>        -0.1413
      5 C4         -1.4939   -1.4078    1.3424 C.3       1 <0>        -0.1452
      6 C5         -0.0045   -1.7512    1.5954 C.3       1 <0>        -0.0067
      7 N1          0.7072   -0.5050    1.2018 N.4       1 <0>        -0.3950
      8 C6          2.1101   -0.7978    0.8794 C.3       1 <0>        -0.0013
      9 C7          2.8545   -1.1950    2.1558 C.3       1 <0>        -0.0999
     10 C8          4.2938   -1.4954    1.8251 C.ar      1 <0>        -0.1001
     11 C9          4.6668   -2.7809    1.4764 C.ar      1 <0>        -0.1059
     12 C10         5.9836   -3.0616    1.1726 C.ar      1 <0>        -0.0993
     13 C11         6.9378   -2.0472    1.2177 C.ar      1 <0>        -0.0392
     14 C12         6.5564   -0.7541    1.5696 C.ar      1 <0>        -0.0990
     15 C13         5.2358   -0.4834    1.8660 C.ar      1 <0>        -0.1058
     16 C14         8.3551   -2.3431    0.8925 C.ar      1 <0>        -0.0004
     17 C15         8.7355   -3.6351    0.5355 C.ar      1 <0>        -0.1284
     18 C16        10.0550   -3.9046    0.2336 C.ar      1 <0>        -0.0117
     19 C17        10.9991   -2.8951    0.2855 C.ar      1 <0>        -0.6713
     20 C18        10.6271   -1.6108    0.6398 C.ar      1 <0>        -0.0169
     21 C19         9.3093   -1.3287    0.9376 C.ar      1 <0>        -0.1286
     22 S1         12.6820   -3.2464   -0.1006 S.o2      1 <0>         2.6898
     23 O1         13.4637   -2.2542    0.5503 O.2       1 <0>        -0.9501
     24 O2         12.8698   -4.6361    0.1291 O.2       1 <0>        -0.9517
     25 N2         12.8715   -3.0058   -1.7280 N.pl3     1 <0>        -1.1094
     26 C20        12.7124   -1.6638   -2.2935 C.3       1 <0>         0.1465
     27 C21        11.2827   -1.4942   -2.8163 C.3       1 <0>        -0.1782
     28 C22        11.1484   -0.1190   -3.4755 C.3       1 <0>         0.0629
     29 O3         12.1102    0.0004   -4.5257 O.3       1 <0>        -0.3788
     30 C23        13.4669   -0.1026   -4.0889 C.3       1 <0>         0.0605
     31 C24        13.6943   -1.4772   -3.4544 C.3       1 <0>        -0.1607
     32 H2          1.0039    1.9031    0.0027 H         1 <0>         0.0794
     33 H3         -0.5459    1.8868   -0.8726 H         1 <0>         0.1066
     34 H4         -0.5289    1.8773    0.9072 H         1 <0>         0.0820
     35 H5         -2.1505    0.2733    0.1214 H         1 <0>         0.1063
     36 H6         -1.6438   -1.1634   -0.8176 H         1 <0>         0.1042
     37 H7         -1.9038   -0.8333    2.1731 H         1 <0>         0.0979
     38 H8         -2.0757   -2.3142    1.1746 H         1 <0>         0.1168
     39 H9          0.1651   -1.9754    2.6485 H         1 <0>         0.1352
     40 H10         0.3100   -2.5852    0.9680 H         1 <0>         0.1333
     41 H11         2.1548   -1.6178    0.1627 H         1 <0>         0.1302
     42 H12         2.5762    0.0879    0.4477 H         1 <0>         0.1299
     43 H13         2.8099   -0.3750    2.8725 H         1 <0>         0.0953
     44 H14         2.3884   -2.0807    2.5875 H         1 <0>         0.0953
     45 H15         3.9265   -3.5664    1.4422 H         1 <0>         0.1284
     46 H16         6.2738   -4.0657    0.9008 H         1 <0>         0.1342
     47 H17         7.2920    0.0358    1.6064 H         1 <0>         0.1344
     48 H18         4.9382    0.5195    2.1342 H         1 <0>         0.1289
     49 H19         7.9993   -4.4243    0.4954 H         1 <0>         0.1363
     50 H20        10.3510   -4.9057   -0.0433 H         1 <0>         0.1459
     51 H21        11.3684   -0.8263    0.6790 H         1 <0>         0.1446
     52 H22         9.0190   -0.3247    1.2098 H         1 <0>         0.1365
     53 H23        13.0878   -3.7535   -2.3069 H         1 <0>         0.4221
     54 H24        12.9116   -0.9179   -1.5240 H         1 <0>         0.0951
     55 H25        11.0682   -2.2719   -3.5493 H         1 <0>         0.0830
     56 H26        10.5800   -1.5706   -1.9866 H         1 <0>         0.0764
     57 H27        10.1451   -0.0096   -3.8873 H         1 <0>         0.0967
     58 H28        11.3233    0.6590   -2.7323 H         1 <0>         0.0537
     59 H29        14.1338    0.0185   -4.9425 H         1 <0>         0.1034
     60 H30        13.6721    0.6756   -3.3537 H         1 <0>         0.0569
     61 H31        14.7163   -1.5414   -3.0809 H         1 <0>         0.0874
     62 H32        13.5285   -2.2546   -4.2002 H         1 <0>         0.0825
     63 H33         0.6542    0.1747    1.9456 H         1 <0>         0.4237
@<TRIPOS>BOND
     1    1    2 1
     2    1   32 1
     3    1   33 1
     4    1   34 1
     5    2    3 1
     6    2    7 1
     7    2    4 1
     8    4    5 1
     9    4   35 1
    10    4   36 1
    11    5    6 1
    12    5   37 1
    13    5   38 1
    14    6    7 1
    15    6   39 1
    16    6   40 1
    17    7    8 1
    18    7   63 1
    19    8    9 1
    20    8   41 1
    21    8   42 1
    22    9   10 1
    23    9   43 1
    24    9   44 1
    25   10   15 ar
    26   10   11 ar
    27   11   12 ar
    28   11   45 1
    29   12   13 ar
    30   12   46 1
    31   13   14 ar
    32   13   16 1
    33   14   15 ar
    34   14   47 1
    35   15   48 1
    36   16   21 ar
    37   16   17 ar
    38   17   18 ar
    39   17   49 1
    40   18   19 ar
    41   18   50 1
    42   19   20 ar
    43   19   22 1
    44   20   21 ar
    45   20   51 1
    46   21   52 1
    47   22   23 2
    48   22   24 2
    49   22   25 1
    50   25   26 1
    51   25   53 1
    52   26   31 1
    53   26   27 1
    54   26   54 1
    55   27   28 1
    56   27   55 1
    57   27   56 1
    58   28   29 1
    59   28   57 1
    60   28   58 1
    61   29   30 1
    62   30   31 1
    63   30   59 1
    64   30   60 1
    65   31   61 1
    66   31   62 1
@<TRIPOS>MOLECULE
ZINC13518984
   19    20     0     0     0
SMALL
USER_CHARGES
(1R,2S)-2-(1H-imidazol-4-yl)cyclopropan-1-amine
@<TRIPOS>ATOM
      1 C1          1.0740    4.2701   -0.2449 C.2       1 <0>        -0.0382
      2 C2         -0.2185    3.8928   -0.2195 C.2       1 <0>        -0.0255
      3 N1         -0.7763    4.3977    0.8909 N.2       1 <0>        -0.4826
      4 C3          0.1199    5.0782    1.5517 C.2       1 <0>         0.2101
      5 N2          1.2878    5.0269    0.8755 N.pl3     1 <0>        -0.5636
      6 H1          2.1481    5.4607    1.1433 H         1 <0>         0.4397
      7 C4         -0.9144    3.0463   -1.2540 C.3       1 <0>        -0.0326
      8 H2         -1.8548    3.4460   -1.6335 H         1 <0>         0.1510
      9 C5         -0.0369    2.2586   -2.2289 C.3       1 <0>        -0.1445
     10 C6         -0.7955    1.5269   -1.1198 C.3       1 <0>        -0.0645
     11 H3         -1.6574    0.9266   -1.4111 H         1 <0>         0.1847
     12 H4          1.8016    4.0244   -1.0043 H         1 <0>         0.1828
     13 H5         -0.0449    5.5962    2.4849 H         1 <0>         0.2194
     14 H6          1.0437    2.3527   -2.1220 H         1 <0>         0.1204
     15 H7         -0.4001    2.1401   -3.2498 H         1 <0>         0.1420
     16 H8          0.0021   -0.0041    0.0020 H         1 <0>         0.4418
     17 H9          0.9253    1.3792    0.0006 H         1 <0>         0.4307
     18 N3         -0.0252    1.0139    0.0269 N.4       1 <0>        -0.6137
     19 H10        -0.4761    1.3157    0.8986 H         1 <0>         0.4426
@<TRIPOS>BOND
     1    1    5 1
     2    1    2 2
     3    1   12 1
     4    2    3 1
     5    2    7 1
     6    3    4 2
     7    4    5 1
     8    4   13 1
     9    5    6 1
    10    7    8 1
    11    7   10 1
    12    7    9 1
    13    9   10 1
    14    9   14 1
    15    9   15 1
    16   10   11 1
    17   10   18 1
    18   16   18 1
    19   17   18 1
    20   18   19 1
@<TRIPOS>MOLECULE
ZINC13518984
   20    21     0     0     0
SMALL
USER_CHARGES
(1R,2S)-2-(1H-imidazol-4-yl)cyclopropan-1-amine
@<TRIPOS>ATOM
      1 C1          1.0740    4.2701   -0.2449 C.2       1 <0>         0.0511
      2 C2         -0.2185    3.8928   -0.2195 C.2       1 <0>         0.0026
      3 C3          0.1199    5.0782    1.5517 C.cat     1 <0>         0.3395
      4 N1          1.2878    5.0269    0.8755 N.pl3     1 <0>        -0.5116
      5 H1          2.1481    5.4607    1.1433 H         1 <0>         0.4866
      6 C4         -0.9144    3.0463   -1.2540 C.3       1 <0>        -0.0858
      7 H2         -1.8548    3.4460   -1.6335 H         1 <0>         0.1749
      8 C5         -0.0369    2.2586   -2.2289 C.3       1 <0>        -0.1199
      9 C6         -0.7955    1.5269   -1.1198 C.3       1 <0>        -0.0492
     10 H3         -1.6574    0.9266   -1.4111 H         1 <0>         0.2008
     11 H4          1.8016    4.0244   -1.0043 H         1 <0>         0.2319
     12 H5         -0.0449    5.5962    2.4849 H         1 <0>         0.2763
     13 H6          1.0437    2.3527   -2.1220 H         1 <0>         0.1322
     14 H7         -0.4001    2.1401   -3.2498 H         1 <0>         0.1602
     15 H8          0.0021   -0.0041    0.0020 H         1 <0>         0.4579
     16 H9          0.9253    1.3792    0.0006 H         1 <0>         0.4324
     17 N2         -0.0252    1.0139    0.0269 N.4       1 <0>        -0.6210
     18 H10        -0.4761    1.3157    0.8986 H         1 <0>         0.4374
     19 N3         -0.7751    4.3979    0.8905 N.pl3     1 <0>        -0.4849
     20 H11        -1.7530    4.2692    1.1756 H         1 <0>         0.4886
@<TRIPOS>BOND
     1    1    4 1
     2    1    2 2
     3    1   11 1
     4    2    6 1
     5    2   19 1
     6    3    4 1
     7    3   12 1
     8    3   19 2
     9    4    5 1
    10    6    7 1
    11    6    9 1
    12    6    8 1
    13    8    9 1
    14    8   13 1
    15    8   14 1
    16    9   10 1
    17    9   17 1
    18   15   17 1
    19   16   17 1
    20   17   18 1
    21   19   20 1
@<TRIPOS>MOLECULE
ZINC13519007
   25    26     0     0     0
SMALL
USER_CHARGES
2-[(1S,2S)-2-(1H-imidazol-4-yl)cyclopropyl]ethanamine
@<TRIPOS>ATOM
      1 C1         -0.0126    1.0758    0.0080 C.2       1 <0>        -0.0512
      2 C2          1.0577    1.8932    0.0021 C.2       1 <0>         0.0222
      3 N1          0.6133    3.1587    0.0124 N.2       1 <0>        -0.4875
      4 C3         -0.6916    3.1566    0.0243 C.2       1 <0>         0.1927
      5 N2         -1.1226    1.8767    0.0168 N.pl3     1 <0>        -0.5713
      6 H1         -2.0748    1.5712    0.0175 H         1 <0>         0.4315
      7 C4          2.5015    1.4617   -0.0132 C.3       1 <0>        -0.0519
      8 H2          3.1377    1.9217    0.7430 H         1 <0>         0.1233
      9 C5          2.8017    0.0129   -0.4029 C.3       1 <0>        -0.1634
     10 C6          3.1315    1.1507   -1.3724 C.3       1 <0>        -0.1513
     11 H3          4.1822    1.4057   -1.5102 H         1 <0>         0.1189
     12 C7          2.2474    1.3016   -2.6119 C.3       1 <0>        -0.1153
     13 C8          3.0877    1.0688   -3.8691 C.3       1 <0>        -0.0023
     14 H4          0.0021   -0.0041    0.0020 H         1 <0>         0.1747
     15 H5         -1.3225    4.0331    0.0338 H         1 <0>         0.2114
     16 H6          3.6357   -0.4801    0.0967 H         1 <0>         0.1090
     17 H7          1.9549   -0.6282   -0.6477 H         1 <0>         0.0989
     18 H8          1.4403    0.5700   -2.5738 H         1 <0>         0.0845
     19 H9          1.8260    2.3065   -2.6375 H         1 <0>         0.0902
     20 H10         3.8948    1.8004   -3.9072 H         1 <0>         0.1330
     21 H11         3.5091    0.0639   -3.8436 H         1 <0>         0.1361
     22 H12         2.7712    1.0646   -5.9034 H         1 <0>         0.4404
     23 H13         1.4466    0.5903   -5.0164 H         1 <0>         0.4357
     24 N3          2.2319    1.2379   -5.0567 N.4       1 <0>        -0.6476
     25 H14         1.8724    2.1994   -5.0795 H         1 <0>         0.4395
@<TRIPOS>BOND
     1    1    5 1
     2    1    2 2
     3    1   14 1
     4    2    3 1
     5    2    7 1
     6    3    4 2
     7    4    5 1
     8    4   15 1
     9    5    6 1
    10    7    8 1
    11    7   10 1
    12    7    9 1
    13    9   10 1
    14    9   16 1
    15    9   17 1
    16   10   11 1
    17   10   12 1
    18   12   13 1
    19   12   18 1
    20   12   19 1
    21   13   20 1
    22   13   21 1
    23   13   24 1
    24   22   24 1
    25   23   24 1
    26   24   25 1
@<TRIPOS>MOLECULE
ZINC13519007
   26    27     0     0     0
SMALL
USER_CHARGES
2-[(1S,2S)-2-(1H-imidazol-4-yl)cyclopropyl]ethanamine
@<TRIPOS>ATOM
      1 C1         -0.0126    1.0758    0.0080 C.2       1 <0>         0.0313
      2 C2          1.0577    1.8932    0.0021 C.2       1 <0>         0.0560
      3 C3         -0.6916    3.1566    0.0243 C.cat     1 <0>         0.3137
      4 N1         -1.1226    1.8767    0.0168 N.pl3     1 <0>        -0.5133
      5 H1         -2.0748    1.5712    0.0175 H         1 <0>         0.4796
      6 C4          2.5015    1.4617   -0.0132 C.3       1 <0>        -0.1065
      7 H2          3.1377    1.9217    0.7430 H         1 <0>         0.1479
      8 C5          2.8017    0.0129   -0.4029 C.3       1 <0>        -0.1382
      9 C6          3.1315    1.1507   -1.3724 C.3       1 <0>        -0.1403
     10 H3          4.1822    1.4057   -1.5102 H         1 <0>         0.1364
     11 C7          2.2474    1.3016   -2.6119 C.3       1 <0>        -0.1242
     12 C8          3.0877    1.0688   -3.8691 C.3       1 <0>        -0.0031
     13 H4          0.0021   -0.0041    0.0020 H         1 <0>         0.2240
     14 H5         -1.3225    4.0331    0.0338 H         1 <0>         0.2687
     15 H6          3.6357   -0.4801    0.0967 H         1 <0>         0.1277
     16 H7          1.9549   -0.6282   -0.6477 H         1 <0>         0.1104
     17 H8          1.4403    0.5700   -2.5738 H         1 <0>         0.0903
     18 H9          1.8260    2.3065   -2.6375 H         1 <0>         0.0836
     19 H10         3.8948    1.8004   -3.9072 H         1 <0>         0.1378
     20 H11         3.5091    0.0639   -3.8436 H         1 <0>         0.1430
     21 H12         2.7712    1.0646   -5.9034 H         1 <0>         0.4484
     22 H13         1.4466    0.5903   -5.0164 H         1 <0>         0.4374
     23 N2          2.2319    1.2379   -5.0567 N.4       1 <0>        -0.6489
     24 H14         1.8724    2.1994   -5.0795 H         1 <0>         0.4386
     25 N3          0.6125    3.1576    0.0124 N.pl3     1 <0>        -0.4834
     26 H15         1.2056    3.9958    0.0111 H         1 <0>         0.4831
@<TRIPOS>BOND
     1    1    4 1
     2    1    2 2
     3    1   13 1
     4    2    6 1
     5    2   25 1
     6    3    4 1
     7    3   14 1
     8    3   25 2
     9    4    5 1
    10    6    7 1
    11    6    9 1
    12    6    8 1
    13    8    9 1
    14    8   15 1
    15    8   16 1
    16    9   10 1
    17    9   11 1
    18   11   12 1
    19   11   17 1
    20   11   18 1
    21   12   19 1
    22   12   20 1
    23   12   23 1
    24   21   23 1
    25   22   23 1
    26   23   24 1
    27   25   26 1
@<TRIPOS>MOLECULE
ZINC13519007
   25    26     0     0     0
SMALL
USER_CHARGES

@<TRIPOS>ATOM
      1 C1          0.5690    1.0826   -0.6739 C.2       1 <0>        -0.0152
      2 C2          1.3618    1.7455    0.1896 C.2       1 <0>        -0.0085
      3 N1          1.7225    0.8521    1.1619 N.pl3     1 <0>        -0.5662
      4 C3          1.1372   -0.3265    0.8585 C.2       1 <0>         0.1942
      5 N2          0.4489   -0.1811   -0.2407 N.2       1 <0>        -0.4897
      6 C4          1.7732    3.1926    0.1019 C.3       1 <0>        -0.0735
      7 H1          2.8431    3.3830    0.1857 H         1 <0>         0.1226
      8 C5          0.9641    4.1021   -0.8249 C.3       1 <0>        -0.1479
      9 C6          0.8217    4.2346    0.6934 C.3       1 <0>        -0.1544
     10 H2          1.2657    5.1107    1.1659 H         1 <0>         0.1208
     11 C7         -0.4746    3.7276    1.3285 C.3       1 <0>        -0.1167
     12 C8         -1.2245    4.9007    1.9630 C.3       1 <0>        -0.0061
     13 N3         -2.4691    4.4139    2.5728 N.4       1 <0>        -0.6386
     14 H3          0.1070    1.4970   -1.5578 H         1 <0>         0.1682
     15 H4          1.2243   -1.2383    1.4307 H         1 <0>         0.2123
     16 H5          1.5018    4.8912   -1.3507 H         1 <0>         0.1125
     17 H6          0.1343    3.6538   -1.3713 H         1 <0>         0.1065
     18 H7         -1.0994    3.2687    0.5623 H         1 <0>         0.0919
     19 H8         -0.2391    2.9896    2.0953 H         1 <0>         0.0851
     20 H9         -0.5997    5.3595    2.7292 H         1 <0>         0.1338
     21 H10        -1.4600    5.6387    1.1962 H         1 <0>         0.1370
     22 H11        -3.0475    3.9892    1.8635 H         1 <0>         0.4363
     23 H12        -2.2511    3.7307    3.2826 H         1 <0>         0.4348
     24 H13        -2.9636    5.1875    2.9912 H         1 <0>         0.4394
     25 H14         2.2922    1.0319    1.9261 H         1 <0>         0.4213
@<TRIPOS>BOND
     1    1    5 1
     2    1    2 2
     3    1   14 1
     4    2    3 1
     5    2    6 1
     6    3    4 1
     7    3   25 1
     8    4    5 2
     9    4   15 1
    10    6    7 1
    11    6    9 1
    12    6    8 1
    13    8    9 1
    14    8   16 1
    15    8   17 1
    16    9   10 1
    17    9   11 1
    18   11   12 1
    19   11   18 1
    20   11   19 1
    21   12   13 1
    22   12   20 1
    23   12   21 1
    24   13   22 1
    25   13   23 1
    26   13   24 1
@<TRIPOS>MOLECULE
ZINC00000504
   41    44     0     0     0
SMALL
USER_CHARGES

@<TRIPOS>ATOM
      1 C1         -0.0178    1.4648    0.0101 C.3       1 <0>        -0.0457
      2 N1          0.0021   -0.0041    0.0020 N.4       1 <0>        -0.3851
      3 C2         -1.3782   -0.5248    0.0610 C.3       1 <0>        -0.0107
      4 C3         -1.3147   -2.0017   -0.3247 C.3       1 <0>         0.1097
      5 N2         -0.2536   -2.6823    0.4304 N.pl3     1 <0>        -0.6570
      6 C4         -0.1632   -4.0681    0.2474 C.ar      1 <0>         0.1515
      7 C5          0.1651   -4.5655   -1.0110 C.ar      1 <0>        -0.1283
      8 C6          0.3219   -5.9257   -1.1894 C.ar      1 <0>        -0.1053
      9 C7          0.1595   -6.7897   -0.1216 C.ar      1 <0>        -0.1122
     10 C8         -0.1903   -6.2968    1.1226 C.ar      1 <0>        -0.0978
     11 C9         -0.3794   -4.9379    1.2936 C.ar      1 <0>        -0.0863
     12 C10        -0.9055   -4.4020    2.5876 C.3       1 <0>        -0.0401
     13 C11         0.0255   -3.4607    3.2849 C.ar      1 <0>        -0.0434
     14 C12         0.2033   -3.7275    4.6483 C.ar      1 <0>        -0.1164
     15 C13         1.0009   -2.9352    5.4386 C.ar      1 <0>        -0.1037
     16 C14         1.6407   -1.8450    4.8776 C.ar      1 <0>        -0.1092
     17 C15         1.4792   -1.5873    3.5373 C.ar      1 <0>        -0.1345
     18 C16         0.6836   -2.4040    2.7249 C.ar      1 <0>        -0.1120
     19 C17         0.6957   -2.0166    1.2712 C.3       1 <0>         0.2145
     20 H1          1.6762   -2.3177    0.9022 H         1 <0>         0.0814
     21 C18         0.7079   -0.4980    1.1840 C.3       1 <0>        -0.0096
     22 H2          1.0047    1.8421    0.0024 H         1 <0>         0.1256
     23 H3         -0.5450    1.8259   -0.8730 H         1 <0>         0.1278
     24 H4         -0.5280    1.8163    0.9069 H         1 <0>         0.1233
     25 H5         -1.7720   -0.4210    1.0720 H         1 <0>         0.1359
     26 H6         -2.0104    0.0166   -0.6429 H         1 <0>         0.1459
     27 H7         -2.2727   -2.4732   -0.1054 H         1 <0>         0.1007
     28 H8         -1.1096   -2.0872   -1.3918 H         1 <0>         0.0828
     29 H9          0.2970   -3.8905   -1.8436 H         1 <0>         0.1222
     30 H10         0.5722   -6.3158   -2.1649 H         1 <0>         0.1292
     31 H11         0.3058   -7.8509   -0.2596 H         1 <0>         0.1304
     32 H12        -0.3156   -6.9709    1.9570 H         1 <0>         0.1304
     33 H13        -1.8427   -3.8810    2.3915 H         1 <0>         0.0851
     34 H14        -1.1118   -5.2412    3.2519 H         1 <0>         0.0847
     35 H15        -0.2988   -4.5760    5.0892 H         1 <0>         0.1275
     36 H16         1.1270   -3.1618    6.4870 H         1 <0>         0.1317
     37 H17         2.2602   -1.2030    5.4861 H         1 <0>         0.1308
     38 H18         1.9776   -0.7345    3.1006 H         1 <0>         0.1191
     39 H19         1.7417   -0.1544    1.1475 H         1 <0>         0.1407
     40 H20         0.2329   -0.0891    2.0758 H         1 <0>         0.1370
     41 H21         0.4593   -0.3360   -0.8339 H         1 <0>         0.4294
@<TRIPOS>BOND
     1    1    2 1
     2    1   22 1
     3    1   23 1
     4    1   24 1
     5    2   21 1
     6    2    3 1
     7    2   41 1
     8    3    4 1
     9    3   25 1
    10    3   26 1
    11    4    5 1
    12    4   27 1
    13    4   28 1
    14    5   19 1
    15    5    6 1
    16    6   11 ar
    17    6    7 ar
    18    7    8 ar
    19    7   29 1
    20    8    9 ar
    21    8   30 1
    22    9   10 ar
    23    9   31 1
    24   10   11 ar
    25   10   32 1
    26   11   12 1
    27   12   13 1
    28   12   33 1
    29   12   34 1
    30   13   18 ar
    31   13   14 ar
    32   14   15 ar
    33   14   35 1
    34   15   16 ar
    35   15   36 1
    36   16   17 ar
    37   16   37 1
    38   17   18 ar
    39   17   38 1
    40   18   19 1
    41   19   20 1
    42   19   21 1
    43   21   39 1
    44   21   40 1
@<TRIPOS>MOLECULE
ZINC13560962
   22    22     0     0     0
SMALL
USER_CHARGES
4-(3-methoxypropyl)-1H-imidazole
@<TRIPOS>ATOM
      1 C1          4.6971   -4.9161   -2.4470 C.3       1 <0>         0.0311
      2 O1          4.1512   -3.5996   -2.3423 O.3       1 <0>        -0.3930
      3 C2          3.2728   -3.4215   -1.2293 C.3       1 <0>         0.0596
      4 C3          2.7508   -1.9833   -1.2166 C.3       1 <0>        -0.1099
      5 C4          1.8104   -1.7926   -0.0249 C.3       1 <0>        -0.0303
      6 C5          1.2963   -0.3761   -0.0123 C.2       1 <0>         0.0023
      7 C6          0.0021   -0.0041    0.0020 C.2       1 <0>        -0.0545
      8 N1         -0.0165    1.3646    0.0095 N.pl3     1 <0>        -0.5743
      9 H1         -0.8294    1.9469    0.0204 H         1 <0>         0.4268
     10 C7          1.2679    1.7816   -0.0005 C.2       1 <0>         0.1856
     11 N2          2.0475    0.7351   -0.0135 N.2       1 <0>        -0.4891
     12 H2          3.8875   -5.6374   -2.5575 H         1 <0>         0.0406
     13 H3          5.3526   -4.9695   -3.3163 H         1 <0>         0.0858
     14 H4          5.2677   -5.1454   -1.5471 H         1 <0>         0.0412
     15 H5          3.8139   -3.6198   -0.3041 H         1 <0>         0.0495
     16 H6          2.4336   -4.1119   -1.3145 H         1 <0>         0.0479
     17 H7          2.2098   -1.7850   -2.1418 H         1 <0>         0.0676
     18 H8          3.5900   -1.2930   -1.1313 H         1 <0>         0.0788
     19 H9          2.3515   -1.9910    0.9003 H         1 <0>         0.0758
     20 H10         0.9712   -2.4830   -0.1101 H         1 <0>         0.0751
     21 H11        -0.8562   -0.6596    0.0072 H         1 <0>         0.1755
     22 H12         1.5957    2.8106    0.0019 H         1 <0>         0.2078
@<TRIPOS>BOND
     1    1    2 1
     2    1   12 1
     3    1   13 1
     4    1   14 1
     5    2    3 1
     6    3    4 1
     7    3   15 1
     8    3   16 1
     9    4    5 1
    10    4   17 1
    11    4   18 1
    12    5    6 1
    13    5   19 1
    14    5   20 1
    15    6   11 1
    16    6    7 2
    17    7    8 1
    18    7   21 1
    19    8    9 1
    20    8   10 1
    21   10   11 2
    22   10   22 1
@<TRIPOS>MOLECULE
ZINC13560962
   23    23     0     0     0
SMALL
USER_CHARGES
4-(3-methoxypropyl)-1H-imidazole
@<TRIPOS>ATOM
      1 C1          4.6971   -4.9161   -2.4470 C.3       1 <0>         0.0300
      2 O1          4.1512   -3.5996   -2.3423 O.3       1 <0>        -0.3937
      3 C2          3.2728   -3.4215   -1.2293 C.3       1 <0>         0.0572
      4 C3          2.7508   -1.9833   -1.2166 C.3       1 <0>        -0.1235
      5 C4          1.8104   -1.7926   -0.0249 C.3       1 <0>        -0.0625
      6 C5          1.2963   -0.3761   -0.0123 C.2       1 <0>         0.0371
      7 C6          0.0021   -0.0041    0.0020 C.2       1 <0>         0.0317
      8 N1         -0.0165    1.3646    0.0095 N.pl3     1 <0>        -0.5151
      9 H1         -0.8294    1.9469    0.0204 H         1 <0>         0.4757
     10 C7          1.2679    1.7816   -0.0005 C.cat     1 <0>         0.3050
     11 H2          3.8875   -5.6374   -2.5575 H         1 <0>         0.0465
     12 H3          5.3526   -4.9695   -3.3163 H         1 <0>         0.0926
     13 H4          5.2677   -5.1454   -1.5471 H         1 <0>         0.0459
     14 H5          3.8139   -3.6198   -0.3041 H         1 <0>         0.0550
     15 H6          2.4336   -4.1119   -1.3145 H         1 <0>         0.0570
     16 H7          2.2098   -1.7850   -2.1418 H         1 <0>         0.0826
     17 H8          3.5900   -1.2930   -1.1313 H         1 <0>         0.0716
     18 H9          2.3515   -1.9910    0.9003 H         1 <0>         0.1047
     19 H10         0.9712   -2.4830   -0.1101 H         1 <0>         0.1149
     20 H11        -0.8562   -0.6596    0.0072 H         1 <0>         0.2254
     21 H12         1.5957    2.8106    0.0019 H         1 <0>         0.2648
     22 N2          2.0461    0.7351   -0.0135 N.pl3     1 <0>        -0.4833
     23 H13         3.0726    0.7586   -0.0231 H         1 <0>         0.4805
@<TRIPOS>BOND
     1    1    2 1
     2    1   11 1
     3    1   12 1
     4    1   13 1
     5    2    3 1
     6    3    4 1
     7    3   14 1
     8    3   15 1
     9    4    5 1
    10    4   16 1
    11    4   17 1
    12    5    6 1
    13    5   18 1
    14    5   19 1
    15    6    7 2
    16    6   22 1
    17    7    8 1
    18    7   20 1
    19    8    9 1
    20    8   10 1
    21   10   21 1
    22   10   22 2
    23   22   23 1
