@<TRIPOS>MOLECULE
ZINC00020245
   46    48     0     0     0
SMALL
USER_CHARGES

@<TRIPOS>ATOM
      1 C1         -5.6836    1.3838    0.0162 C.3       1 <0>        -0.0473
      2 N1         -5.6620   -0.0833   -0.0564 N.4       1 <0>        -0.3868
      3 C2         -6.3713   -0.5242   -1.2649 C.3       1 <0>        -0.0522
      4 C3         -4.2702   -0.5505   -0.1076 C.3       1 <0>        -0.0086
      5 C4         -4.2434   -2.0795   -0.0575 C.3       1 <0>        -0.1781
      6 C5         -2.7938   -2.5661   -0.1108 C.3       1 <0>         0.1490
      7 N2         -2.7704   -4.0309   -0.1190 N.pl3     1 <0>        -0.6108
      8 C6         -2.7295   -4.7451   -1.3212 C.ar      1 <0>         0.1758
      9 C7         -1.6865   -4.4783   -2.2022 C.ar      1 <0>        -0.1411
     10 C8         -1.5734   -5.1772   -3.3856 C.ar      1 <0>        -0.1022
     11 C9         -2.5089   -6.1508   -3.6854 C.ar      1 <0>        -0.1266
     12 C10        -3.5489   -6.4041   -2.8209 C.ar      1 <0>        -0.1101
     13 C11        -3.6933   -5.6947   -1.6266 C.ar      1 <0>        -0.0998
     14 C12        -4.9357   -6.0340   -0.8354 C.3       1 <0>        -0.0687
     15 C13        -5.1005   -5.1892    0.4158 C.3       1 <0>        -0.0773
     16 C14        -3.9592   -5.4030    1.3779 C.ar      1 <0>        -0.0996
     17 C15        -2.7824   -4.7590    1.0748 C.ar      1 <0>         0.1523
     18 C16        -1.6837   -4.8488    1.9126 C.ar      1 <0>        -0.1184
     19 C17        -1.7825   -5.6251    3.0560 C.ar      1 <0>        -0.1094
     20 C18        -2.9565   -6.2950    3.3488 C.ar      1 <0>        -0.1165
     21 C19        -4.0679   -6.1865    2.5030 C.ar      1 <0>        -0.1028
     22 H1         -6.7163    1.7305    0.0542 H         1 <0>         0.1245
     23 H2         -5.1573    1.7109    0.9129 H         1 <0>         0.1235
     24 H3         -5.1933    1.7984   -0.8646 H         1 <0>         0.1221
     25 H4         -6.3552   -1.6128   -1.3188 H         1 <0>         0.1231
     26 H5         -7.4040   -0.1775   -1.2269 H         1 <0>         0.1246
     27 H6         -5.8810   -0.1096   -2.1457 H         1 <0>         0.1227
     28 H7         -3.8061   -0.2091   -1.0329 H         1 <0>         0.1308
     29 H8         -3.7207   -0.1494    0.7440 H         1 <0>         0.1320
     30 H9         -4.7075   -2.4209    0.8678 H         1 <0>         0.0908
     31 H10        -4.7929   -2.4806   -0.9091 H         1 <0>         0.0915
     32 H11        -2.3174   -2.1901   -1.0161 H         1 <0>         0.0824
     33 H12        -2.2550   -2.1990    0.7627 H         1 <0>         0.0801
     34 H13        -0.9599   -3.7176   -1.9576 H         1 <0>         0.1215
     35 H14        -0.7646   -4.9667   -4.0697 H         1 <0>         0.1276
     36 H15        -2.4229   -6.7145   -4.6025 H         1 <0>         0.1250
     37 H16        -4.2693   -7.1687   -3.0712 H         1 <0>         0.1222
     38 H17        -5.8074   -5.8880   -1.4734 H         1 <0>         0.0793
     39 H18        -4.8898   -7.0837   -0.5452 H         1 <0>         0.0765
     40 H19        -5.1365   -4.1371    0.1334 H         1 <0>         0.0724
     41 H20        -6.0358   -5.4578    0.9068 H         1 <0>         0.0709
     42 H21        -0.7686   -4.3248    1.6795 H         1 <0>         0.1257
     43 H22        -0.9372   -5.7074    3.7231 H         1 <0>         0.1275
     44 H23        -3.0178   -6.9071    4.2365 H         1 <0>         0.1269
     45 H24        -4.9880   -6.7067    2.7249 H         1 <0>         0.1290
     46 H25        -6.1159   -0.4671    0.7589 H         1 <0>         0.4268
@<TRIPOS>BOND
     1    1    2 1
     2    1   22 1
     3    1   23 1
     4    1   24 1
     5    2    3 1
     6    2    4 1
     7    2   46 1
     8    3   25 1
     9    3   26 1
    10    3   27 1
    11    4    5 1
    12    4   28 1
    13    4   29 1
    14    5    6 1
    15    5   30 1
    16    5   31 1
    17    6    7 1
    18    6   32 1
    19    6   33 1
    20    7   17 1
    21    7    8 1
    22    8   13 ar
    23    8    9 ar
    24    9   10 ar
    25    9   34 1
    26   10   11 ar
    27   10   35 1
    28   11   12 ar
    29   11   36 1
    30   12   13 ar
    31   12   37 1
    32   13   14 1
    33   14   15 1
    34   14   38 1
    35   14   39 1
    36   15   16 1
    37   15   40 1
    38   15   41 1
    39   16   21 ar
    40   16   17 ar
    41   17   18 ar
    42   18   19 ar
    43   18   42 1
    44   19   20 ar
    45   19   43 1
    46   20   21 ar
    47   20   44 1
    48   21   45 1
@<TRIPOS>MOLECULE
ZINC01915508
   64    68     0     0     0
SMALL
USER_CHARGES
8-[4-[4-(9-thia-8-azabicyclo[4.3.0]nona-2,4,7,10-tetraen-7-yl)piperazin-1-yl]butyl]-8-azaspiro[4.5]decane-7,9-dione
@<TRIPOS>ATOM
      1 C1         -0.1854    3.0363    3.0585 C.ar      1 <0>        -0.1227
      2 C2          0.9702    2.2871    2.8731 C.ar      1 <0>        -0.0631
      3 C3          1.7797    2.5384    1.7969 C.ar      1 <0>        -0.0775
      4 C4          1.4398    3.5390    0.9109 C.ar      1 <0>        -0.1195
      5 C5          0.2738    4.3208    1.0775 C.ar      1 <0>        -0.1259
      6 C6         -0.5340    4.0311    2.1987 C.ar      1 <0>        -0.0351
      7 C7          0.1089    5.3174    0.0302 C.2       1 <0>         0.2965
      8 N1          0.9929    5.4074   -0.9213 N.2       1 <0>        -0.4531
      9 S1          2.1517    4.2026   -0.5700 S.3       1 <0>         0.2239
     10 N2         -0.9928    6.1742    0.0458 N.pl3     1 <0>        -0.4740
     11 C8         -1.8260    5.9826   -1.1494 C.3       1 <0>         0.0288
     12 C9         -3.0618    6.8807   -1.0559 C.3       1 <0>         0.0019
     13 C10        -1.8041    8.4738    0.2628 C.3       1 <0>         0.0063
     14 C11        -0.5684    7.5757    0.1693 C.3       1 <0>         0.0281
     15 C12        -3.7969    9.1840   -0.9159 C.3       1 <0>        -0.0018
     16 C13        -4.4982    9.1379   -2.2750 C.3       1 <0>        -0.1459
     17 C14        -5.7059   10.0771   -2.2578 C.3       1 <0>        -0.1286
     18 C15        -6.4072   10.0310   -3.6168 C.3       1 <0>         0.0907
     19 N3         -7.5636   10.9302   -3.6003 N.am      1 <0>        -0.5674
     20 C16        -8.7518   10.4404   -3.2171 C.2       1 <0>         0.5275
     21 O1         -8.8357    9.2783   -2.8824 O.2       1 <0>        -0.4991
     22 C17        -9.9833   11.3079   -3.1892 C.3       1 <0>        -0.1340
     23 C18        -9.5725   12.7603   -2.9521 C.3       1 <0>        -0.0662
     24 C19       -10.8015   13.6767   -3.0258 C.3       1 <0>        -0.1145
     25 C20       -10.9201   14.3606   -1.6469 C.3       1 <0>        -0.1263
     26 C21        -9.4840   14.3020   -1.0687 C.3       1 <0>        -0.1244
     27 C22        -8.9806   12.9141   -1.5400 C.3       1 <0>        -0.1218
     28 C23        -8.5400   13.1786   -3.9978 C.3       1 <0>        -0.1329
     29 C24        -7.3893   12.2063   -3.9743 C.2       1 <0>         0.5269
     30 O2         -6.2846   12.5847   -4.3000 O.2       1 <0>        -0.4987
     31 H1         -0.8189    2.8271    3.9078 H         1 <0>         0.1379
     32 H2          1.2271    1.5059    3.5731 H         1 <0>         0.1446
     33 H3          2.6772    1.9577    1.6438 H         1 <0>         0.1426
     34 H4         -1.4362    4.5989    2.3719 H         1 <0>         0.1355
     35 H5         -1.2524    6.2448   -2.0384 H         1 <0>         0.0752
     36 H6         -2.1380    4.9401   -1.2119 H         1 <0>         0.1258
     37 H7         -3.6497    6.6005   -0.1819 H         1 <0>         0.1430
     38 H8         -3.6669    6.7619   -1.9547 H         1 <0>         0.1398
     39 H9         -2.3778    8.2117    1.1518 H         1 <0>         0.1425
     40 H10        -1.4921    9.5163    0.3257 H         1 <0>         0.1394
     41 H11         0.0365    7.6946    1.0683 H         1 <0>         0.1260
     42 H12         0.0195    7.8560   -0.7047 H         1 <0>         0.0753
     43 H13        -4.4917    8.8682   -0.1377 H         1 <0>         0.1343
     44 H14        -3.4629   10.2016   -0.7137 H         1 <0>         0.1317
     45 H15        -3.8034    9.4537   -3.0532 H         1 <0>         0.0910
     46 H16        -4.8321    8.1202   -2.4772 H         1 <0>         0.0910
     47 H17        -6.4007    9.7613   -1.4795 H         1 <0>         0.0800
     48 H18        -5.3719   11.0947   -2.0556 H         1 <0>         0.0795
     49 H19        -5.7124   10.3468   -4.3951 H         1 <0>         0.0985
     50 H20        -6.7411    9.0133   -3.8190 H         1 <0>         0.0987
     51 H21       -10.6438   10.9805   -2.3863 H         1 <0>         0.1190
     52 H22       -10.5031   11.2276   -4.1439 H         1 <0>         0.1155
     53 H23       -10.6624   14.4268   -3.8044 H         1 <0>         0.0769
     54 H24       -11.6956   13.0875   -3.2291 H         1 <0>         0.0769
     55 H25       -11.6116   13.8121   -1.0073 H         1 <0>         0.0700
     56 H26       -11.2444   15.3952   -1.7587 H         1 <0>         0.0725
     57 H27        -9.5035   14.3564    0.0198 H         1 <0>         0.0709
     58 H28        -8.8653   15.0981   -1.4826 H         1 <0>         0.0705
     59 H29        -9.3535   12.1291   -0.8821 H         1 <0>         0.0742
     60 H30        -7.8914   12.8959   -1.5784 H         1 <0>         0.0612
     61 H31        -8.1754   14.1800   -3.7693 H         1 <0>         0.1185
     62 H32        -9.0001   13.1744   -4.9859 H         1 <0>         0.1158
     63 N4         -2.6214    8.2879   -0.9547 N.4       1 <0>        -0.3991
     64 H33        -2.0524    8.5196   -1.7774 H         1 <0>         0.4266
@<TRIPOS>BOND
     1    1    6 ar
     2    1    2 ar
     3    1   31 1
     4    2    3 ar
     5    2   32 1
     6    3    4 ar
     7    3   33 1
     8    4    9 1
     9    4    5 ar
    10    5    6 ar
    11    5    7 1
    12    6   34 1
    13    7    8 2
    14    7   10 1
    15    8    9 1
    16   10   14 1
    17   10   11 1
    18   11   12 1
    19   11   35 1
    20   11   36 1
    21   12   37 1
    22   12   38 1
    23   12   63 1
    24   13   14 1
    25   13   39 1
    26   13   40 1
    27   13   63 1
    28   14   41 1
    29   14   42 1
    30   15   16 1
    31   15   43 1
    32   15   44 1
    33   15   63 1
    34   16   17 1
    35   16   45 1
    36   16   46 1
    37   17   18 1
    38   17   47 1
    39   17   48 1
    40   18   19 1
    41   18   49 1
    42   18   50 1
    43   19   29 am
    44   19   20 am
    45   20   21 2
    46   20   22 1
    47   22   23 1
    48   22   51 1
    49   22   52 1
    50   23   27 1
    51   23   24 1
    52   23   28 1
    53   24   25 1
    54   24   53 1
    55   24   54 1
    56   25   26 1
    57   25   55 1
    58   25   56 1
    59   26   27 1
    60   26   57 1
    61   26   58 1
    62   27   59 1
    63   27   60 1
    64   28   29 1
    65   28   61 1
    66   28   62 1
    67   29   30 2
    68   63   64 1
@<TRIPOS>MOLECULE
ZINC19868747
   35    37     0     0     0
SMALL
USER_CHARGES

@<TRIPOS>ATOM
      1 C1          1.7302    1.7441   -0.9395 C.3       1 <0>         0.0240
      2 N1          1.2923    0.3866   -0.5886 N.3       1 <0>        -0.5432
      3 C2          1.3850   -0.5124   -1.7468 C.3       1 <0>         0.0387
      4 C3          0.7532   -1.8628   -1.3929 C.3       1 <0>         0.1167
      5 N2          1.3840   -2.3658   -0.1631 N.am      1 <0>        -0.6105
      6 C4          1.4518   -1.4694    1.0010 C.3       1 <0>         0.0883
      7 C5          2.0561   -0.1344    0.5529 C.3       1 <0>         0.0410
      8 C6          1.8862   -3.6152   -0.1043 C.2       1 <0>         0.5853
      9 O1          1.8175   -4.3446   -1.0754 O.2       1 <0>        -0.5148
     10 C7          2.5172   -4.0965    1.1337 C.2       1 <0>         0.0219
     11 C8          3.5030   -5.0289    1.2044 C.2       1 <0>        -0.1018
     12 C9          3.8299   -5.2082    2.5703 C.ar      1 <0>        -0.1076
     13 C10         4.7524   -6.0229    3.2398 C.ar      1 <0>        -0.0492
     14 C11         4.8387   -5.9739    4.6014 C.ar      1 <0>        -0.0596
     15 C12         4.0183   -5.1217    5.3321 C.ar      1 <0>        -0.0784
     16 C13         3.1040   -4.3122    4.6965 C.ar      1 <0>        -0.1163
     17 C14         2.9980   -4.3442    3.3087 C.ar      1 <0>         0.1111
     18 N3          2.2062   -3.6685    2.4098 N.pl3     1 <0>        -0.5787
     19 H1          1.5375   -3.0029    2.6350 H         1 <0>         0.4234
     20 Cl1         5.9824   -6.9851    5.4279 Cl        1 <0>        -0.0682
     21 H2          2.7874    1.7277   -1.2047 H         1 <0>         0.0280
     22 H3          1.1486    2.1058   -1.7875 H         1 <0>         0.0730
     23 H4          1.5797    2.4063   -0.0869 H         1 <0>         0.0722
     24 H5          0.8548   -0.0730   -2.5916 H         1 <0>         0.0931
     25 H6          2.4324   -0.6588   -2.0106 H         1 <0>         0.0418
     26 H7         -0.3169   -1.7349   -1.2296 H         1 <0>         0.0811
     27 H8          0.9205   -2.5696   -2.2056 H         1 <0>         0.1017
     28 H9          0.4489   -1.3036    1.3944 H         1 <0>         0.0850
     29 H10         2.0810   -1.9161    1.7709 H         1 <0>         0.0956
     30 H11         3.0942   -0.2862    0.2570 H         1 <0>         0.0428
     31 H12         2.0126    0.5790    1.3757 H         1 <0>         0.0919
     32 H13         3.9556   -5.5417    0.3686 H         1 <0>         0.1591
     33 H14         5.3933   -6.6881    2.6802 H         1 <0>         0.1382
     34 H15         4.0989   -5.0947    6.4088 H         1 <0>         0.1403
     35 H16         2.4707   -3.6541    5.2729 H         1 <0>         0.1342
@<TRIPOS>BOND
     1    1    2 1
     2    1   21 1
     3    1   22 1
     4    1   23 1
     5    2    7 1
     6    2    3 1
     7    3    4 1
     8    3   24 1
     9    3   25 1
    10    4    5 1
    11    4   26 1
    12    4   27 1
    13    5    6 1
    14    5    8 am
    15    6    7 1
    16    6   28 1
    17    6   29 1
    18    7   30 1
    19    7   31 1
    20    8    9 2
    21    8   10 1
    22   10   18 1
    23   10   11 2
    24   11   12 1
    25   11   32 1
    26   12   17 ar
    27   12   13 ar
    28   13   14 ar
    29   13   33 1
    30   14   15 ar
    31   14   20 1
    32   15   16 ar
    33   15   34 1
    34   16   17 ar
    35   16   35 1
    36   17   18 1
    37   18   19 1
@<TRIPOS>MOLECULE
ZINC13526674
   37    39     0     0     0
SMALL
USER_CHARGES
(7-amino-1H-indol-2-yl)-(4-methylpiperazin-1-yl)methanone
@<TRIPOS>ATOM
      1 C1         -5.9536    0.0663    1.5971 C.3       1 <0>         0.0217
      2 N1         -4.8731    0.5361    0.7197 N.3       1 <0>        -0.5422
      3 C2         -4.6601    1.9813    0.8745 C.3       1 <0>         0.0372
      4 C3         -3.6578    2.4624   -0.1801 C.3       1 <0>         0.1147
      5 N2         -2.4424    1.6404   -0.0787 N.am      1 <0>        -0.6142
      6 C4         -2.5888    0.1770   -0.0942 C.3       1 <0>         0.0844
      7 C5         -3.6337   -0.2141    0.9628 C.3       1 <0>         0.0417
      8 C6         -1.2263    2.2129    0.0201 C.2       1 <0>         0.5873
      9 O1         -1.1304    3.4186    0.1502 O.2       1 <0>        -0.5174
     10 C7         -0.0152    1.3800   -0.0293 C.2       1 <0>         0.0095
     11 C8          1.1981    1.7226    0.4779 C.2       1 <0>        -0.1162
     12 C9          2.0909    0.6547    0.2196 C.ar      1 <0>        -0.0766
     13 C10         3.4486    0.4451    0.5035 C.ar      1 <0>        -0.1285
     14 C11         4.0537   -0.7156    0.1196 C.ar      1 <0>        -0.0916
     15 C12         3.3390   -1.6989   -0.5525 C.ar      1 <0>        -0.1962
     16 C13         1.9999   -1.5184   -0.8456 C.ar      1 <0>         0.2226
     17 C14         1.3602   -0.3358   -0.4609 C.ar      1 <0>         0.0612
     18 N3          0.0723    0.1275   -0.6037 N.pl3     1 <0>        -0.5910
     19 H1         -0.8139   -0.3262   -1.0715 H         1 <0>         0.4392
     20 N4          1.2884   -2.5139   -1.5226 N.pl3     1 <0>        -0.9030
     21 H2         -6.8677    0.6437    1.3944 H         1 <0>         0.0737
     22 H3         -5.6585    0.2036    2.6479 H         1 <0>         0.0282
     23 H4         -6.1436   -1.0002    1.4060 H         1 <0>         0.0727
     24 H5         -5.6160    2.5091    0.7413 H         1 <0>         0.0930
     25 H6         -4.2641    2.1880    1.8797 H         1 <0>         0.0420
     26 H7         -4.1001    2.3563   -1.1816 H         1 <0>         0.0804
     27 H8         -3.4125    3.5191    0.0023 H         1 <0>         0.1024
     28 H9         -2.9209   -0.1477   -1.0913 H         1 <0>         0.0840
     29 H10        -1.6213   -0.2908    0.1404 H         1 <0>         0.1018
     30 H11        -3.2509    0.0254    1.9658 H         1 <0>         0.0437
     31 H12        -3.8390   -1.2927    0.8967 H         1 <0>         0.0921
     32 H13         1.4383    2.6446    0.9865 H         1 <0>         0.1520
     33 H14         4.0144    1.2021    1.0262 H         1 <0>         0.1210
     34 H15         5.0992   -0.8717    0.3407 H         1 <0>         0.1217
     35 H16         3.8336   -2.6120   -0.8489 H         1 <0>         0.1226
     36 H17         0.2231   -2.3675   -1.7544 H         1 <0>         0.4050
     37 H18         1.7940   -3.4434   -1.8233 H         1 <0>         0.4213
@<TRIPOS>BOND
     1    1    2 1
     2    1   21 1
     3    1   22 1
     4    1   23 1
     5    2    7 1
     6    2    3 1
     7    3    4 1
     8    3   24 1
     9    3   25 1
    10    4    5 1
    11    4   26 1
    12    4   27 1
    13    5    6 1
    14    5    8 am
    15    6    7 1
    16    6   28 1
    17    6   29 1
    18    7   30 1
    19    7   31 1
    20    8    9 2
    21    8   10 1
    22   10   18 1
    23   10   11 2
    24   11   12 1
    25   11   32 1
    26   12   17 ar
    27   12   13 ar
    28   13   14 ar
    29   13   33 1
    30   14   15 ar
    31   14   34 1
    32   15   16 ar
    33   15   35 1
    34   16   17 ar
    35   16   20 1
    36   17   18 1
    37   18   19 1
    38   20   36 1
    39   20   37 1
@<TRIPOS>MOLECULE
ZINC19796155
   42    45     0     0     0
SMALL
USER_CHARGES

@<TRIPOS>ATOM
      1 C1         -0.0670    1.4396   -0.3852 C.3       1 <0>         0.0243
      2 N1         -0.0229   -0.0169   -0.1987 N.3       1 <0>        -0.5428
      3 C2          0.3808   -0.6943   -1.4380 C.3       1 <0>         0.0399
      4 C3          0.2401   -2.2095   -1.2572 C.3       1 <0>         0.1263
      5 N2          0.9912   -2.6085   -0.0572 N.pl3     1 <0>        -0.5953
      6 C4          0.7394   -1.8803    1.1955 C.3       1 <0>         0.1122
      7 C5          0.8604   -0.3781    0.9181 C.3       1 <0>         0.0393
      8 C6          1.9051   -3.6365   -0.1053 C.2       1 <0>         0.5098
      9 N3          2.1670   -4.1290   -1.2643 N.2       1 <0>        -0.6041
     10 C7          3.0130   -5.1503   -1.5719 C.ar      1 <0>         0.1655
     11 C8          2.6280   -6.0848   -2.5372 C.ar      1 <0>        -0.1058
     12 C9          3.4872   -7.1047   -2.8991 C.ar      1 <0>        -0.0230
     13 C10         4.7348   -7.2069   -2.3106 C.ar      1 <0>        -0.1209
     14 C11         5.1212   -6.2977   -1.3402 C.ar      1 <0>        -0.1017
     15 C12         4.2618   -5.2835   -0.9546 C.ar      1 <0>         0.1117
     16 N4          4.6314   -4.4326    0.1003 N.pl3     1 <0>        -0.7261
     17 C13         3.8434   -4.4184    1.2519 C.ar      1 <0>         0.2140
     18 C14         2.4943   -4.0640    1.1729 C.ar      1 <0>        -0.1453
     19 C15         1.7072   -4.1133    2.3240 C.ar      1 <0>        -0.0723
     20 C16         2.2727   -4.4729    3.5311 C.ar      1 <0>        -0.1389
     21 C17         3.6189   -4.7825    3.6069 C.ar      1 <0>        -0.0765
     22 C18         4.3974   -4.7629    2.4751 C.ar      1 <0>        -0.1433
     23 Cl1         2.9987   -8.2627   -4.0966 Cl        1 <0>        -0.0679
     24 H1          0.9359    1.8090   -0.5992 H         1 <0>         0.0255
     25 H2         -0.7279    1.6794   -1.2181 H         1 <0>         0.0711
     26 H3         -0.4416    1.9111    0.5233 H         1 <0>         0.0709
     27 H4         -0.2581   -0.3649   -2.2574 H         1 <0>         0.0878
     28 H5          1.4186   -0.4499   -1.6647 H         1 <0>         0.0378
     29 H6         -0.8117   -2.4673   -1.1334 H         1 <0>         0.0720
     30 H7          0.6453   -2.7216   -2.1299 H         1 <0>         0.1060
     31 H8         -0.2645   -2.1065    1.5551 H         1 <0>         0.0792
     32 H9          1.4746   -2.1748    1.9444 H         1 <0>         0.0984
     33 H10         1.8915   -0.1381    0.6586 H         1 <0>         0.0379
     34 H11         0.5693    0.1807    1.8075 H         1 <0>         0.0892
     35 H12         1.6558   -6.0097   -3.0016 H         1 <0>         0.1375
     36 H13         5.4083   -7.9971   -2.6081 H         1 <0>         0.1357
     37 H14         6.0961   -6.3802   -0.8829 H         1 <0>         0.1326
     38 H15         5.4169   -3.8679    0.0299 H         1 <0>         0.4097
     39 H16         0.6563   -3.8699    2.2709 H         1 <0>         0.1344
     40 H17         1.6613   -4.5124    4.4205 H         1 <0>         0.1323
     41 H18         4.0571   -5.0467    4.5580 H         1 <0>         0.1317
     42 H19         5.4473   -5.0071    2.5424 H         1 <0>         0.1313
@<TRIPOS>BOND
     1    1    2 1
     2    1   24 1
     3    1   25 1
     4    1   26 1
     5    2    7 1
     6    2    3 1
     7    3    4 1
     8    3   27 1
     9    3   28 1
    10    4    5 1
    11    4   29 1
    12    4   30 1
    13    5    6 1
    14    5    8 1
    15    6    7 1
    16    6   31 1
    17    6   32 1
    18    7   33 1
    19    7   34 1
    20    8   18 1
    21    8    9 2
    22    9   10 1
    23   10   15 ar
    24   10   11 ar
    25   11   12 ar
    26   11   35 1
    27   12   13 ar
    28   12   23 1
    29   13   14 ar
    30   13   36 1
    31   14   15 ar
    32   14   37 1
    33   15   16 1
    34   16   17 1
    35   16   38 1
    36   17   22 ar
    37   17   18 ar
    38   18   19 ar
    39   19   20 ar
    40   19   39 1
    41   20   21 ar
    42   20   40 1
    43   21   22 ar
    44   21   41 1
    45   22   42 1
@<TRIPOS>MOLECULE
ZINC19796155
   44    47     0     0     0
SMALL
USER_CHARGES

@<TRIPOS>ATOM
      1 C1         -1.5703   -0.0018   -1.9302 C.3       1 <0>        -0.0497
      2 N1         -0.7527   -0.7171   -0.9414 N.4       1 <0>        -0.3854
      3 C2         -1.0498   -2.1535   -1.0104 C.3       1 <0>        -0.0252
      4 C3         -0.2839   -2.8861    0.0962 C.3       1 <0>         0.1048
      5 N2          1.1441   -2.5548   -0.0269 N.pl3     1 <0>        -0.7052
      6 C4          1.5202   -1.1363   -0.1296 C.3       1 <0>         0.1049
      7 C5          0.6692   -0.4862   -1.2256 C.3       1 <0>        -0.0251
      8 C6          2.0831   -3.5253   -0.0448 C.2       1 <0>         0.6309
      9 C7          2.6112   -3.9094    1.2074 C.ar      1 <0>        -0.2438
     10 C8          2.0495   -3.1929    2.2728 C.ar      1 <0>         0.0055
     11 C9          2.4602   -3.4528    3.5483 C.ar      1 <0>        -0.1817
     12 C10         3.4265   -4.4148    3.8208 C.ar      1 <0>         0.0489
     13 C11         4.0101   -5.1439    2.8276 C.ar      1 <0>        -0.2233
     14 C12         3.6302   -4.9235    1.4921 C.ar      1 <0>         0.3343
     15 N3          4.2865   -5.7106    0.6358 N.pl3     1 <0>        -0.6131
     16 C13         4.1767   -5.7728   -0.7271 C.ar      1 <0>         0.1589
     17 C14         5.0408   -6.7320   -1.2562 C.ar      1 <0>        -0.1157
     18 C15         5.0795   -6.9478   -2.6222 C.ar      1 <0>        -0.0495
     19 C16         4.2642   -6.2154   -3.4643 C.ar      1 <0>        -0.0338
     20 C17         3.4016   -5.2585   -2.9468 C.ar      1 <0>        -0.0846
     21 C18         3.3520   -5.0321   -1.5848 C.ar      1 <0>         0.0769
     22 N4          2.4115   -4.0290   -1.2719 N.pl3     1 <0>        -0.5773
     23 Cl1         4.3195   -6.4929   -5.1771 Cl        1 <0>        -0.0159
     24 H1         -1.3348   -0.3678   -2.9295 H         1 <0>         0.1246
     25 H2         -2.6262   -0.1724   -1.7203 H         1 <0>         0.1321
     26 H3         -1.3566    1.0656   -1.8745 H         1 <0>         0.1321
     27 H4         -2.1201   -2.3101   -0.8766 H         1 <0>         0.1569
     28 H5         -0.7442   -2.5415   -1.9820 H         1 <0>         0.1344
     29 H6         -0.6518   -2.5648    1.0707 H         1 <0>         0.1155
     30 H7         -0.4211   -3.9618   -0.0138 H         1 <0>         0.1302
     31 H8          1.3345   -0.6383    0.8220 H         1 <0>         0.1155
     32 H9          2.5758   -1.0551   -0.3891 H         1 <0>         0.1302
     33 H10         0.9228   -0.9247   -2.1907 H         1 <0>         0.1344
     34 H11         0.8655    0.5856   -1.2504 H         1 <0>         0.1569
     35 H12         1.2975   -2.4405    2.0860 H         1 <0>         0.1502
     36 H13         2.0243   -2.8976    4.3657 H         1 <0>         0.1496
     37 H14         3.7223   -4.5886    4.8448 H         1 <0>         0.1558
     38 H15         4.7590   -5.8851    3.0650 H         1 <0>         0.1623
     39 H16         5.6790   -7.3052   -0.6001 H         1 <0>         0.1677
     40 H17         5.7487   -7.6901   -3.0316 H         1 <0>         0.1653
     41 H18         2.7675   -4.6896   -3.6107 H         1 <0>         0.1565
     42 H19         1.9393   -3.6432   -2.0263 H         1 <0>         0.4255
     43 H20         4.9278   -6.3202    1.0333 H         1 <0>         0.4372
     44 H21        -0.9695   -0.3754   -0.0171 H         1 <0>         0.4310
@<TRIPOS>BOND
     1    1    2 1
     2    1   24 1
     3    1   25 1
     4    1   26 1
     5    2    7 1
     6    2    3 1
     7    2   44 1
     8    3    4 1
     9    3   27 1
    10    3   28 1
    11    4    5 1
    12    4   29 1
    13    4   30 1
    14    5    6 1
    15    5    8 1
    16    6    7 1
    17    6   31 1
    18    6   32 1
    19    7   33 1
    20    7   34 1
    21    8   22 1
    22    8    9 2
    23    9   14 ar
    24    9   10 ar
    25   10   11 ar
    26   10   35 1
    27   11   12 ar
    28   11   36 1
    29   12   13 ar
    30   12   37 1
    31   13   14 ar
    32   13   38 1
    33   14   15 2
    34   15   16 1
    35   15   43 1
    36   16   21 ar
    37   16   17 ar
    38   17   18 ar
    39   17   39 1
    40   18   19 ar
    41   18   40 1
    42   19   20 ar
    43   19   23 1
    44   20   21 ar
    45   20   41 1
    46   21   22 1
    47   22   42 1
@<TRIPOS>MOLECULE
ZINC19796155
   43    46     0     0     0
SMALL
USER_CHARGES

@<TRIPOS>ATOM
      1 C1         -0.0523    1.4387   -0.3863 C.3       1 <0>        -0.0469
      2 N1         -0.0147   -0.0168   -0.1908 N.4       1 <0>        -0.3852
      3 C2          0.4863   -0.6601   -1.4120 C.3       1 <0>        -0.0213
      4 C3          0.4181   -2.1823   -1.2510 C.3       1 <0>         0.1002
      5 N2          1.1441   -2.5548   -0.0269 N.pl3     1 <0>        -0.6180
      6 C4          0.8178   -1.8405    1.2170 C.3       1 <0>         0.0860
      7 C5          0.8671   -0.3344    0.9395 C.3       1 <0>        -0.0221
      8 C6          2.1017   -3.5432   -0.0451 C.2       1 <0>         0.5019
      9 N3          2.4234   -4.0210   -1.1951 N.2       1 <0>        -0.5760
     10 C7          3.3217   -5.0050   -1.4750 C.ar      1 <0>         0.1390
     11 C8          3.0096   -5.9522   -2.4541 C.ar      1 <0>        -0.0932
     12 C9          3.9229   -6.9340   -2.7877 C.ar      1 <0>        -0.0267
     13 C10         5.1529   -6.9852   -2.1572 C.ar      1 <0>        -0.1032
     14 C11         5.4673   -6.0631   -1.1730 C.ar      1 <0>        -0.1031
     15 C12         4.5533   -5.0871   -0.8155 C.ar      1 <0>         0.1235
     16 N4          4.8505   -4.2243    0.2524 N.pl3     1 <0>        -0.7273
     17 C13         4.0239   -4.2464    1.3765 C.ar      1 <0>         0.2173
     18 C14         2.6645   -3.9489    1.2520 C.ar      1 <0>        -0.1537
     19 C15         1.8414   -4.0345    2.3754 C.ar      1 <0>        -0.0841
     20 C16         2.3802   -4.3733    3.6007 C.ar      1 <0>        -0.1334
     21 C17         3.7349   -4.6261    3.7220 C.ar      1 <0>        -0.0692
     22 C18         4.5500   -4.5705    2.6174 C.ar      1 <0>        -0.1369
     23 Cl1         3.5248   -8.1083   -4.0027 Cl        1 <0>        -0.0551
     24 H1          0.9534    1.8033   -0.5956 H         1 <0>         0.1211
     25 H2         -0.7066    1.6758   -1.2253 H         1 <0>         0.1256
     26 H3         -0.4316    1.9169    0.5167 H         1 <0>         0.1252
     27 H4         -0.1269   -0.3565   -2.2605 H         1 <0>         0.1425
     28 H5          1.5196   -0.3587   -1.5839 H         1 <0>         0.1315
     29 H6         -0.6226   -2.4957   -1.1694 H         1 <0>         0.0898
     30 H7          0.8819   -2.6629   -2.1125 H         1 <0>         0.1431
     31 H8         -0.1827   -2.1194    1.5479 H         1 <0>         0.0960
     32 H9          1.5457   -2.0950    1.9873 H         1 <0>         0.1385
     33 H10         1.8889   -0.0428    0.6965 H         1 <0>         0.1320
     34 H11         0.5345    0.2092    1.8238 H         1 <0>         0.1439
     35 H12         2.0515   -5.9169   -2.9512 H         1 <0>         0.1396
     36 H13         5.8689   -7.7454   -2.4325 H         1 <0>         0.1422
     37 H14         6.4287   -6.1057   -0.6827 H         1 <0>         0.1382
     38 H15         5.6134   -3.6267    0.2096 H         1 <0>         0.4129
     39 H16         0.7836   -3.8354    2.2868 H         1 <0>         0.1314
     40 H17         1.7411   -4.4409    4.4686 H         1 <0>         0.1357
     41 H18         4.1512   -4.8742    4.6872 H         1 <0>         0.1370
     42 H19         5.6063   -4.7705    2.7202 H         1 <0>         0.1363
     43 H20        -0.9456   -0.3526    0.0057 H         1 <0>         0.4250
@<TRIPOS>BOND
     1    1    2 1
     2    1   24 1
     3    1   25 1
     4    1   26 1
     5    2    7 1
     6    2    3 1
     7    2   43 1
     8    3    4 1
     9    3   27 1
    10    3   28 1
    11    4    5 1
    12    4   29 1
    13    4   30 1
    14    5    6 1
    15    5    8 1
    16    6    7 1
    17    6   31 1
    18    6   32 1
    19    7   33 1
    20    7   34 1
    21    8   18 1
    22    8    9 2
    23    9   10 1
    24   10   15 ar
    25   10   11 ar
    26   11   12 ar
    27   11   35 1
    28   12   13 ar
    29   12   23 1
    30   13   14 ar
    31   13   36 1
    32   14   15 ar
    33   14   37 1
    34   15   16 1
    35   16   17 1
    36   16   38 1
    37   17   22 ar
    38   17   18 ar
    39   18   19 ar
    40   19   20 ar
    41   19   39 1
    42   20   21 ar
    43   20   40 1
    44   21   22 ar
    45   21   41 1
    46   22   42 1
@<TRIPOS>MOLECULE
ZINC36139575
   40    42     0     0     0
SMALL
USER_CHARGES

@<TRIPOS>ATOM
      1 C1         -0.0362    1.4405    0.3642 C.3       1 <0>        -0.0468
      2 N1         -0.0069   -0.0159    0.1742 N.4       1 <0>        -0.3851
      3 C2          0.8259   -0.3389   -0.9912 C.3       1 <0>        -0.0222
      4 C3          0.7650   -1.8463   -1.2592 C.3       1 <0>         0.1011
      5 N2          1.1441   -2.5548   -0.0269 N.pl3     1 <0>        -0.6194
      6 C4          0.4709   -2.1764    1.2252 C.3       1 <0>         0.1018
      7 C5          0.5458   -0.6534    1.3759 C.3       1 <0>        -0.0217
      8 C6          2.1076   -3.5505   -0.0452 C.ar      1 <0>         0.4765
      9 C7          2.5867   -4.0481   -1.2568 C.ar      1 <0>        -0.3372
     10 C8          3.5547   -5.0484   -1.2250 C.ar      1 <0>         0.3029
     11 N3          3.9877   -5.4937   -0.0451 N.ar      1 <0>        -0.5895
     12 C9          3.5089   -4.9966    1.0840 C.ar      1 <0>         0.6163
     13 N4          2.5916   -4.0406    1.0921 N.ar      1 <0>        -0.6278
     14 N5          3.9830   -5.4850    2.2892 N.pl3     1 <0>        -0.8149
     15 C10         4.0962   -5.6113   -2.4860 C.ar      1 <0>        -0.0732
     16 C11         3.6424   -5.1369   -3.7154 C.ar      1 <0>        -0.0878
     17 C12         4.1501   -5.6639   -4.8855 C.ar      1 <0>        -0.1267
     18 C13         5.1073   -6.6615   -4.8397 C.ar      1 <0>        -0.0930
     19 C14         5.5614   -7.1361   -3.6223 C.ar      1 <0>        -0.1259
     20 C15         5.0649   -6.6124   -2.4459 C.ar      1 <0>        -0.0655
     21 H1          0.9765    1.8049    0.5366 H         1 <0>         0.1216
     22 H2         -0.4463    1.9150   -0.5273 H         1 <0>         0.1257
     23 H3         -0.6607    1.6821    1.2243 H         1 <0>         0.1258
     24 H4          0.4559    0.2005   -1.8631 H         1 <0>         0.1454
     25 H5          1.8571   -0.0464   -0.7934 H         1 <0>         0.1332
     26 H6         -0.2486   -2.1267   -1.5458 H         1 <0>         0.0969
     27 H7          1.4595   -2.1046   -2.0586 H         1 <0>         0.1301
     28 H8         -0.5723   -2.4901    1.1895 H         1 <0>         0.0897
     29 H9          0.9711   -2.6529    2.0684 H         1 <0>         0.1389
     30 H10         1.5855   -0.3514    1.5022 H         1 <0>         0.1323
     31 H11        -0.0307   -0.3458    2.2483 H         1 <0>         0.1428
     32 H12         2.2157   -3.6670   -2.1968 H         1 <0>         0.1423
     33 H13         4.6573   -6.1823    2.2983 H         1 <0>         0.4206
     34 H14         3.6411   -5.1300    3.1246 H         1 <0>         0.4157
     35 H15         2.8945   -4.3586   -3.7523 H         1 <0>         0.1240
     36 H16         3.7991   -5.2971   -5.8387 H         1 <0>         0.1300
     37 H17         5.5014   -7.0715   -5.7578 H         1 <0>         0.1294
     38 H18         6.3089   -7.9151   -3.5924 H         1 <0>         0.1311
     39 H19         5.4234   -6.9806   -1.4960 H         1 <0>         0.1371
     40 H20        -0.9451   -0.3524    0.0177 H         1 <0>         0.4254
@<TRIPOS>BOND
     1    1    2 1
     2    1   21 1
     3    1   22 1
     4    1   23 1
     5    2    7 1
     6    2    3 1
     7    2   40 1
     8    3    4 1
     9    3   24 1
    10    3   25 1
    11    4    5 1
    12    4   26 1
    13    4   27 1
    14    5    6 1
    15    5    8 1
    16    6    7 1
    17    6   28 1
    18    6   29 1
    19    7   30 1
    20    7   31 1
    21    8   13 ar
    22    8    9 ar
    23    9   10 ar
    24    9   32 1
    25   10   11 ar
    26   10   15 1
    27   11   12 ar
    28   12   13 ar
    29   12   14 1
    30   14   33 1
    31   14   34 1
    32   15   20 ar
    33   15   16 ar
    34   16   17 ar
    35   16   35 1
    36   17   18 ar
    37   17   36 1
    38   18   19 ar
    39   18   37 1
    40   19   20 ar
    41   19   38 1
    42   20   39 1
@<TRIPOS>MOLECULE
ZINC36139575
   39    41     0     0     0
SMALL
USER_CHARGES

@<TRIPOS>ATOM
      1 C1         -0.0254    1.4415    0.3655 C.3       1 <0>         0.0244
      2 N1         -0.0018   -0.0159    0.1825 N.3       1 <0>        -0.5433
      3 C2          0.7529   -0.3829   -1.0232 C.3       1 <0>         0.0387
      4 C3          0.6024   -1.8864   -1.2781 C.3       1 <0>         0.1265
      5 N2          0.9912   -2.6085   -0.0572 N.pl3     1 <0>        -0.5987
      6 C4          0.3771   -2.2033    1.2163 C.3       1 <0>         0.1272
      7 C5          0.5365   -0.6873    1.3730 C.3       1 <0>         0.0395
      8 C6          1.9114   -3.6435   -0.1056 C.ar      1 <0>         0.4839
      9 C7          2.3282   -4.1618   -1.3315 C.ar      1 <0>        -0.3382
     10 C8          3.2543   -5.2015   -1.3299 C.ar      1 <0>         0.2854
     11 N3          3.7082   -5.6631   -0.1643 N.ar      1 <0>        -0.6037
     12 C9          3.2889   -5.1455    0.9792 C.ar      1 <0>         0.6101
     13 N4          2.4129   -4.1521    1.0159 N.ar      1 <0>        -0.6295
     14 N5          3.7829   -5.6519    2.1688 N.pl3     1 <0>        -0.8222
     15 C10         3.7291   -5.7876   -2.6072 C.ar      1 <0>        -0.0580
     16 C11         3.2540   -5.2960   -3.8217 C.ar      1 <0>        -0.0898
     17 C12         3.6995   -5.8449   -5.0070 C.ar      1 <0>        -0.1267
     18 C13         4.6155   -6.8813   -4.9911 C.ar      1 <0>        -0.1028
     19 C14         5.0905   -7.3732   -3.7886 C.ar      1 <0>        -0.1290
     20 C15         4.6562   -6.8281   -2.5974 C.ar      1 <0>        -0.0708
     21 H1          0.9880    1.8020    0.5418 H         1 <0>         0.0261
     22 H2         -0.4282    1.9137   -0.5305 H         1 <0>         0.0710
     23 H3         -0.6535    1.6901    1.2209 H         1 <0>         0.0715
     24 H4          0.3652    0.1715   -1.8778 H         1 <0>         0.0907
     25 H5          1.8063   -0.1419   -0.8804 H         1 <0>         0.0393
     26 H6         -0.4350   -2.1141   -1.5236 H         1 <0>         0.0796
     27 H7          1.2505   -2.1848   -2.1022 H         1 <0>         0.0900
     28 H8         -0.6819   -2.4615    1.2107 H         1 <0>         0.0718
     29 H9          0.8763   -2.7112    2.0415 H         1 <0>         0.1007
     30 H10         1.5929   -0.4421    1.4825 H         1 <0>         0.0387
     31 H11        -0.0082   -0.3537    2.2562 H         1 <0>         0.0879
     32 H12         1.9417   -3.7665   -2.2593 H         1 <0>         0.1403
     33 H13         4.4275   -6.3766    2.1569 H         1 <0>         0.4146
     34 H14         3.4844   -5.2821    3.0144 H         1 <0>         0.4129
     35 H15         2.5383   -4.4874   -3.8352 H         1 <0>         0.1269
     36 H16         3.3320   -5.4648   -5.9487 H         1 <0>         0.1274
     37 H17         4.9609   -7.3083   -5.9210 H         1 <0>         0.1249
     38 H18         5.8056   -8.1825   -3.7821 H         1 <0>         0.1267
     39 H19         5.0311   -7.2099   -1.6592 H         1 <0>         0.1357
@<TRIPOS>BOND
     1    1    2 1
     2    1   21 1
     3    1   22 1
     4    1   23 1
     5    2    7 1
     6    2    3 1
     7    3    4 1
     8    3   24 1
     9    3   25 1
    10    4    5 1
    11    4   26 1
    12    4   27 1
    13    5    6 1
    14    5    8 1
    15    6    7 1
    16    6   28 1
    17    6   29 1
    18    7   30 1
    19    7   31 1
    20    8   13 ar
    21    8    9 ar
    22    9   10 ar
    23    9   32 1
    24   10   11 ar
    25   10   15 1
    26   11   12 ar
    27   12   13 ar
    28   12   14 1
    29   14   33 1
    30   14   34 1
    31   15   20 ar
    32   15   16 ar
    33   16   17 ar
    34   16   35 1
    35   17   18 ar
    36   17   36 1
    37   18   19 ar
    38   18   37 1
    39   19   20 ar
    40   19   38 1
    41   20   39 1
@<TRIPOS>MOLECULE
ZINC40977166
   44    47     0     0     0
SMALL
USER_CHARGES

@<TRIPOS>ATOM
      1 C1         -0.1341    1.1357    0.2656 C.ar      1 <0>        -0.0960
      2 C2          1.0093    1.9104    0.1840 C.ar      1 <0>        -0.1233
      3 C3          2.2493    1.3087    0.0922 C.ar      1 <0>        -0.0725
      4 C4          2.3407   -0.0787    0.0895 C.ar      1 <0>        -0.0616
      5 C5          1.1882   -0.8560    0.1930 C.ar      1 <0>        -0.0530
      6 C6         -0.0459   -0.2453    0.2682 C.ar      1 <0>        -0.1176
      7 C7          1.3139   -2.3530    0.2566 C.3       1 <0>        -0.0850
      8 C8          1.5753   -2.9445   -1.1243 C.3       1 <0>        -0.1027
      9 C9          2.6263   -2.1270   -1.8734 C.3       1 <0>        -0.0593
     10 C10         3.7836   -1.7822   -0.9800 C.ar      1 <0>        -0.2243
     11 C11         3.6465   -0.7637   -0.0400 C.ar      1 <0>         0.2792
     12 N1          4.6862   -0.4366    0.7209 N.ar      1 <0>        -0.5509
     13 C12         5.8347   -1.0877    0.6015 C.ar      1 <0>         0.5828
     14 N2          5.9934   -2.0771   -0.2650 N.ar      1 <0>        -0.5872
     15 C13         4.9990   -2.4505   -1.0688 C.ar      1 <0>         0.4712
     16 N3          5.1726   -3.4847   -1.9748 N.pl3     1 <0>        -0.6589
     17 C14         5.6462   -3.3400   -3.3634 C.3       1 <0>         0.1328
     18 C15         6.2481   -4.7213   -3.7231 C.3       1 <0>        -0.1492
     19 C16         5.2742   -5.6847   -2.9946 C.3       1 <0>         0.0111
     20 H1          4.3844   -5.8628   -3.5985 H         1 <0>         0.1617
     21 C17         4.9211   -4.9085   -1.7085 C.3       1 <0>         0.1210
     22 N4          5.9423   -6.9522   -2.6705 N.4       1 <0>        -0.6297
     23 N5          6.9002   -0.7226    1.4060 N.pl3     1 <0>        -0.8179
     24 H2         -1.1012    1.6118    0.3320 H         1 <0>         0.1294
     25 H3          0.9322    2.9876    0.1918 H         1 <0>         0.1307
     26 H4          3.1423    1.9122    0.0234 H         1 <0>         0.1280
     27 H5         -0.9426   -0.8442    0.3288 H         1 <0>         0.1298
     28 H6          2.1391   -2.6143    0.9191 H         1 <0>         0.0656
     29 H7          0.3903   -2.7723    0.6557 H         1 <0>         0.0792
     30 H8          1.9293   -3.9695   -1.0145 H         1 <0>         0.0603
     31 H9          0.6471   -2.9455   -1.6958 H         1 <0>         0.0740
     32 H10         2.9903   -2.7053   -2.7226 H         1 <0>         0.0730
     33 H11         2.1700   -1.2068   -2.2383 H         1 <0>         0.0758
     34 H12         4.8131   -3.1051   -4.0259 H         1 <0>         0.0760
     35 H13         6.4107   -2.5655   -3.4247 H         1 <0>         0.0847
     36 H14         6.2291   -4.8873   -4.8002 H         1 <0>         0.1136
     37 H15         7.2607   -4.8201   -3.3319 H         1 <0>         0.0990
     38 H16         5.5485   -5.2479   -0.8843 H         1 <0>         0.0711
     39 H17         3.8698   -5.0597   -1.4634 H         1 <0>         0.0880
     40 H18         6.7465   -6.7694   -2.0891 H         1 <0>         0.4357
     41 H19         5.3003   -7.5542   -2.1770 H         1 <0>         0.4390
     42 H20         6.7999    0.0001    2.0452 H         1 <0>         0.4195
     43 H21         7.7471   -1.1893    1.3306 H         1 <0>         0.4155
     44 H22         6.2391   -7.4035   -3.5227 H         1 <0>         0.4412
@<TRIPOS>BOND
     1    1    6 ar
     2    1    2 ar
     3    1   24 1
     4    2    3 ar
     5    2   25 1
     6    3    4 ar
     7    3   26 1
     8    4   11 1
     9    4    5 ar
    10    5    6 ar
    11    5    7 1
    12    6   27 1
    13    7    8 1
    14    7   28 1
    15    7   29 1
    16    8    9 1
    17    8   30 1
    18    8   31 1
    19    9   10 1
    20    9   32 1
    21    9   33 1
    22   10   15 ar
    23   10   11 ar
    24   11   12 ar
    25   12   13 ar
    26   13   14 ar
    27   13   23 1
    28   14   15 ar
    29   15   16 1
    30   16   21 1
    31   16   17 1
    32   17   18 1
    33   17   34 1
    34   17   35 1
    35   18   19 1
    36   18   36 1
    37   18   37 1
    38   19   20 1
    39   19   21 1
    40   19   22 1
    41   21   38 1
    42   21   39 1
    43   22   40 1
    44   22   41 1
    45   22   44 1
    46   23   42 1
    47   23   43 1
@<TRIPOS>MOLECULE
ZINC40977166
   45    48     0     0     0
SMALL
USER_CHARGES

@<TRIPOS>ATOM
      1 C1         -0.1341    1.1357    0.2656 C.ar      1 <0>        -0.0586
      2 C2          1.0093    1.9104    0.1840 C.ar      1 <0>        -0.1133
      3 C3          2.2493    1.3087    0.0922 C.ar      1 <0>        -0.0733
      4 C4          2.3407   -0.0787    0.0895 C.ar      1 <0>        -0.1343
      5 C5          1.1882   -0.8560    0.1930 C.ar      1 <0>        -0.0240
      6 C6         -0.0459   -0.2453    0.2682 C.ar      1 <0>        -0.1094
      7 C7          1.3139   -2.3530    0.2566 C.3       1 <0>        -0.0975
      8 C8          1.5753   -2.9445   -1.1243 C.3       1 <0>        -0.1086
      9 C9          2.6263   -2.1270   -1.8734 C.3       1 <0>        -0.0717
     10 C10         3.7836   -1.7822   -0.9800 C.ar      1 <0>        -0.1783
     11 C11         3.6465   -0.7637   -0.0400 C.ar      1 <0>         0.3089
     12 N1          4.6862   -0.4366    0.7209 N.ar      1 <0>        -0.5397
     13 C12         5.8347   -1.0877    0.6015 C.ar      1 <0>         0.6403
     14 N2          5.9934   -2.0771   -0.2650 N.ar      1 <0>        -0.5341
     15 C13         4.9990   -2.4505   -1.0688 C.ar      1 <0>         0.5594
     16 N3          5.1726   -3.4847   -1.9748 N.pl3     1 <0>        -0.6713
     17 C14         5.6462   -3.3400   -3.3634 C.3       1 <0>         0.1296
     18 C15         6.2481   -4.7213   -3.7231 C.3       1 <0>        -0.1508
     19 C16         5.2742   -5.6847   -2.9946 C.3       1 <0>         0.0135
     20 H1          4.3844   -5.8628   -3.5985 H         1 <0>         0.1680
     21 C17         4.9211   -4.9085   -1.7085 C.3       1 <0>         0.1165
     22 N4          5.9423   -6.9522   -2.6705 N.4       1 <0>        -0.6308
     23 N5          6.9002   -0.7226    1.4060 N.pl3     1 <0>        -0.7836
     24 H2         -1.1012    1.6118    0.3320 H         1 <0>         0.1454
     25 H3          0.9322    2.9876    0.1918 H         1 <0>         0.1459
     26 H4          3.1423    1.9122    0.0234 H         1 <0>         0.1329
     27 H5         -0.9426   -0.8442    0.3288 H         1 <0>         0.1459
     28 H6          2.1391   -2.6143    0.9191 H         1 <0>         0.0668
     29 H7          0.3903   -2.7723    0.6557 H         1 <0>         0.0972
     30 H8          1.9293   -3.9695   -1.0145 H         1 <0>         0.0731
     31 H9          0.6471   -2.9455   -1.6958 H         1 <0>         0.0919
     32 H10         2.9903   -2.7053   -2.7226 H         1 <0>         0.0962
     33 H11         2.1700   -1.2068   -2.2383 H         1 <0>         0.0966
     34 H12         4.8131   -3.1051   -4.0259 H         1 <0>         0.0902
     35 H13         6.4107   -2.5655   -3.4247 H         1 <0>         0.0931
     36 H14         6.2291   -4.8873   -4.8002 H         1 <0>         0.1240
     37 H15         7.2607   -4.8201   -3.3319 H         1 <0>         0.1046
     38 H16         5.5485   -5.2479   -0.8843 H         1 <0>         0.0823
     39 H17         3.8698   -5.0597   -1.4634 H         1 <0>         0.0996
     40 H18         6.7465   -6.7694   -2.0891 H         1 <0>         0.4366
     41 H19         5.3003   -7.5542   -2.1770 H         1 <0>         0.4424
     42 H20         6.7999    0.0001    2.0452 H         1 <0>         0.4347
     43 H21         7.7471   -1.1893    1.3306 H         1 <0>         0.4479
     44 H22         6.2391   -7.4035   -3.5227 H         1 <0>         0.4471
     45 H23         4.6042    0.2826    1.3666 H         1 <0>         0.4487
@<TRIPOS>BOND
     1    1    6 ar
     2    1    2 ar
     3    1   24 1
     4    2    3 ar
     5    2   25 1
     6    3    4 ar
     7    3   26 1
     8    4   11 1
     9    4    5 ar
    10    5    6 ar
    11    5    7 1
    12    6   27 1
    13    7    8 1
    14    7   28 1
    15    7   29 1
    16    8    9 1
    17    8   30 1
    18    8   31 1
    19    9   10 1
    20    9   32 1
    21    9   33 1
    22   10   15 ar
    23   10   11 ar
    24   11   12 ar
    25   12   13 ar
    26   12   45 1
    27   13   14 ar
    28   13   23 1
    29   14   15 ar
    30   15   16 1
    31   16   21 1
    32   16   17 1
    33   17   18 1
    34   17   34 1
    35   17   35 1
    36   18   19 1
    37   18   36 1
    38   18   37 1
    39   19   20 1
    40   19   21 1
    41   19   22 1
    42   21   38 1
    43   21   39 1
    44   22   40 1
    45   22   41 1
    46   22   44 1
    47   23   42 1
    48   23   43 1
@<TRIPOS>MOLECULE
ZINC40977166
   45    48     0     0     0
SMALL
USER_CHARGES

@<TRIPOS>ATOM
      1 C1         -0.1342    1.1327    0.2646 C.ar      1 <0>        -0.0650
      2 C2          1.0085    1.9083    0.1837 C.ar      1 <0>        -0.1194
      3 C3          2.2493    1.3076    0.0943 C.ar      1 <0>        -0.0524
      4 C4          2.3410   -0.0796    0.0865 C.ar      1 <0>        -0.1101
      5 C5          1.1894   -0.8582    0.1885 C.ar      1 <0>        -0.0378
      6 C6         -0.0450   -0.2483    0.2668 C.ar      1 <0>        -0.1133
      7 C7          1.3150   -2.3555    0.2411 C.3       1 <0>        -0.0953
      8 C8          1.5671   -2.9363   -1.1459 C.3       1 <0>        -0.1073
      9 C9          2.6129   -2.1125   -1.8958 C.3       1 <0>        -0.0737
     10 C10         3.7761   -1.7745   -1.0075 C.ar      1 <0>        -0.1557
     11 C11         3.6456   -0.7643   -0.0577 C.ar      1 <0>         0.3670
     12 N1          4.6906   -0.4443    0.6993 N.ar      1 <0>        -0.4980
     13 C12         5.8380   -1.0941    0.5666 C.ar      1 <0>         0.6386
     14 N2          5.9910   -2.0756   -0.3102 N.ar      1 <0>        -0.5644
     15 C13         4.9914   -2.4418   -1.1105 C.ar      1 <0>         0.4709
     16 N3          5.1591   -3.4676   -2.0270 N.pl3     1 <0>        -0.6730
     17 C14         5.6235   -3.3103   -3.4173 C.3       1 <0>         0.1211
     18 C15         6.2231   -4.6882   -3.7934 C.3       1 <0>        -0.1521
     19 C16         5.2541   -5.6583   -3.0673 C.3       1 <0>         0.0143
     20 H1          4.3603   -5.8310   -3.6669 H         1 <0>         0.1712
     21 C17         4.9094   -4.8939   -1.7719 C.3       1 <0>         0.1075
     22 N4          5.9245   -6.9286   -2.7592 N.4       1 <0>        -0.6309
     23 N5          6.9087   -0.7364    1.3674 N.pl3     1 <0>        -0.7826
     24 H2         -1.1017    1.6079    0.3309 H         1 <0>         0.1417
     25 H3          0.9304    2.9855    0.1901 H         1 <0>         0.1428
     26 H4          3.1423    1.9117    0.0305 H         1 <0>         0.1357
     27 H5         -0.9411   -0.8478    0.3302 H         1 <0>         0.1417
     28 H6          2.1446   -2.6216    0.8961 H         1 <0>         0.0647
     29 H7          0.3940   -2.7775    0.6432 H         1 <0>         0.0959
     30 H8          1.9221   -3.9620   -1.0464 H         1 <0>         0.0697
     31 H9          0.6351   -2.9331   -1.7111 H         1 <0>         0.0928
     32 H10         2.9713   -2.6840   -2.7520 H         1 <0>         0.0910
     33 H11         2.1541   -1.1891   -2.2494 H         1 <0>         0.1027
     34 H12         4.7860   -3.0695   -4.0720 H         1 <0>         0.0975
     35 H13         6.3875   -2.5351   -3.4766 H         1 <0>         0.0956
     36 H14         6.1970   -4.8444   -4.8719 H         1 <0>         0.1283
     37 H15         7.2383   -4.7903   -3.4099 H         1 <0>         0.1040
     38 H16         5.5424   -5.2407   -0.9550 H         1 <0>         0.0828
     39 H17         3.8598   -5.0474   -1.5212 H         1 <0>         0.1074
     40 H18         6.7324   -6.7510   -2.1815 H         1 <0>         0.4351
     41 H19         5.2858   -7.5351   -2.2670 H         1 <0>         0.4443
     42 H20         6.8126   -0.0197    2.0139 H         1 <0>         0.4514
     43 H21         7.7551   -1.2025    1.2822 H         1 <0>         0.4313
     44 H22         6.2156   -7.3720   -3.6175 H         1 <0>         0.4492
     45 H23         6.8437   -2.5340   -0.3703 H         1 <0>         0.4347
@<TRIPOS>BOND
     1    1    6 ar
     2    1    2 ar
     3    1   24 1
     4    2    3 ar
     5    2   25 1
     6    3    4 ar
     7    3   26 1
     8    4    5 ar
     9    4   11 1
    10    5    6 ar
    11    5    7 1
    12    6   27 1
    13    7    8 1
    14    7   28 1
    15    7   29 1
    16    8    9 1
    17    8   30 1
    18    8   31 1
    19    9   32 1
    20    9   33 1
    21    9   10 1
    22   10   11 ar
    23   10   15 ar
    24   11   12 ar
    25   12   13 ar
    26   13   23 1
    27   13   14 ar
    28   14   15 ar
    29   14   45 1
    30   15   16 1
    31   16   21 1
    32   16   17 1
    33   17   18 1
    34   17   34 1
    35   17   35 1
    36   18   19 1
    37   18   36 1
    38   18   37 1
    39   19   20 1
    40   19   21 1
    41   19   22 1
    42   21   38 1
    43   21   39 1
    44   22   40 1
    45   22   41 1
    46   22   44 1
    47   23   42 1
    48   23   43 1
@<TRIPOS>MOLECULE
ZINC32500347
   33    35     0     0     0
SMALL
USER_CHARGES
(5-chloro-1H-indol-2-yl)-piperazin-1-yl-methanone
@<TRIPOS>ATOM
      1 C1          4.1184   -2.3788   -6.6062 C.ar      1 <0>        -0.0676
      2 C2          3.9953   -1.6971   -5.4161 C.ar      1 <0>        -0.1225
      3 C3          2.8241   -1.8085   -4.6725 C.ar      1 <0>         0.1110
      4 C4          1.7758   -2.6202   -5.1486 C.ar      1 <0>        -0.1151
      5 C5          1.9246   -3.3043   -6.3619 C.ar      1 <0>        -0.0466
      6 C6          3.0830   -3.1792   -7.0744 C.ar      1 <0>        -0.0582
      7 Cl1         3.2640   -4.0280   -8.5779 Cl        1 <0>        -0.0569
      8 C7          0.7309   -2.5462   -4.1960 C.2       1 <0>        -0.0826
      9 C8          1.1374   -1.7171   -3.1993 C.2       1 <0>         0.0071
     10 N1          2.4127   -1.2650   -3.4779 N.pl3     1 <0>        -0.5976
     11 H1          3.0802   -0.5903   -2.9217 H         1 <0>         0.4443
     12 C9          0.3481   -1.3626   -2.0103 C.2       1 <0>         0.5979
     13 O1         -0.4817   -2.1395   -1.5772 O.2       1 <0>        -0.4889
     14 N2          0.5441   -0.1768   -1.4004 N.am      1 <0>        -0.6319
     15 C10        -0.2379    0.1997   -0.2129 C.3       1 <0>         0.0837
     16 C11        -0.8375    1.5905   -0.4457 C.3       1 <0>        -0.0146
     17 N3          0.2342    2.5281   -0.8066 N.4       1 <0>        -0.5352
     18 C12         0.8753    2.1435   -2.0711 C.3       1 <0>        -0.0159
     19 C13         1.5451    0.7753   -1.9049 C.3       1 <0>         0.0536
     20 H2          5.0281   -2.2904   -7.1816 H         1 <0>         0.1441
     21 H3          4.8053   -1.0773   -5.0609 H         1 <0>         0.1354
     22 H4          1.1255   -3.9289   -6.7328 H         1 <0>         0.1408
     23 H5         -0.2199   -3.0553   -4.2528 H         1 <0>         0.1613
     24 H6         -1.0422   -0.5341   -0.0557 H         1 <0>         0.1391
     25 H7          0.4197    0.2174    0.6687 H         1 <0>         0.0989
     26 H8         -1.5731    1.5407   -1.2621 H         1 <0>         0.1336
     27 H9         -1.3332    1.9347    0.4740 H         1 <0>         0.1492
     28 H10        -0.1854    3.5386   -0.9198 H         1 <0>         0.4603
     29 H11         0.1159    2.0873   -2.8650 H         1 <0>         0.1342
     30 H12         1.6331    2.8937   -2.3410 H         1 <0>         0.1486
     31 H13         2.3756    0.8488   -1.1873 H         1 <0>         0.1018
     32 H14         1.9284    0.4249   -2.8746 H         1 <0>         0.1376
     33 H15         0.9977    2.5348   -0.0147 H         1 <0>         0.4513
@<TRIPOS>BOND
     1    1    6 ar
     2    1    2 ar
     3    1   20 1
     4    2    3 ar
     5    2   21 1
     6    3   10 1
     7    3    4 ar
     8    4    5 ar
     9    4    8 1
    10    5    6 ar
    11    5   22 1
    12    6    7 1
    13    8    9 2
    14    8   23 1
    15    9   10 1
    16    9   12 1
    17   10   11 1
    18   12   13 2
    19   12   14 am
    20   14   19 1
    21   14   15 1
    22   15   16 1
    23   15   24 1
    24   15   25 1
    25   16   17 1
    26   16   26 1
    27   16   27 1
    28   17   18 1
    29   17   28 1
    30   17   33 1
    31   18   19 1
    32   18   29 1
    33   18   30 1
    34   19   31 1
    35   19   32 1
@<TRIPOS>MOLECULE
ZINC32500347
   32    34     0     0     0
SMALL
USER_CHARGES
(5-chloro-1H-indol-2-yl)-piperazin-1-yl-methanone
@<TRIPOS>ATOM
      1 C1          4.1184   -2.3788   -6.6062 C.ar      1 <0>        -0.0799
      2 C2          3.9953   -1.6971   -5.4161 C.ar      1 <0>        -0.1167
      3 C3          2.8241   -1.8085   -4.6725 C.ar      1 <0>         0.1031
      4 C4          1.7758   -2.6202   -5.1486 C.ar      1 <0>        -0.1102
      5 C5          1.9246   -3.3043   -6.3619 C.ar      1 <0>        -0.0500
      6 C6          3.0830   -3.1792   -7.0744 C.ar      1 <0>        -0.0607
      7 Cl1         3.2640   -4.0280   -8.5779 Cl        1 <0>        -0.0696
      8 C7          0.7309   -2.5462   -4.1960 C.2       1 <0>        -0.1084
      9 C8          1.1374   -1.7171   -3.1993 C.2       1 <0>         0.0362
     10 N1          2.4127   -1.2650   -3.4779 N.pl3     1 <0>        -0.5895
     11 H1          3.0802   -0.5903   -2.9217 H         1 <0>         0.4500
     12 C9          0.3481   -1.3626   -2.0103 C.2       1 <0>         0.5847
     13 O1         -0.4817   -2.1395   -1.5772 O.2       1 <0>        -0.5170
     14 N2          0.5441   -0.1768   -1.4004 N.am      1 <0>        -0.6102
     15 C10        -0.2379    0.1997   -0.2129 C.3       1 <0>         0.1123
     16 C11        -0.8375    1.5905   -0.4457 C.3       1 <0>         0.0325
     17 N3          0.2342    2.5281   -0.8066 N.3       1 <0>        -0.6711
     18 C12         0.8753    2.1435   -2.0711 C.3       1 <0>         0.0326
     19 C13         1.5451    0.7753   -1.9049 C.3       1 <0>         0.0842
     20 H2          5.0281   -2.2904   -7.1816 H         1 <0>         0.1392
     21 H3          4.8053   -1.0773   -5.0609 H         1 <0>         0.1335
     22 H4          1.1255   -3.9289   -6.7328 H         1 <0>         0.1366
     23 H5         -0.2199   -3.0553   -4.2528 H         1 <0>         0.1581
     24 H6         -1.0422   -0.5341   -0.0557 H         1 <0>         0.1011
     25 H7          0.4197    0.2174    0.6687 H         1 <0>         0.0796
     26 H8         -1.5731    1.5407   -1.2621 H         1 <0>         0.0393
     27 H9         -1.3332    1.9347    0.4740 H         1 <0>         0.0947
     28 H10         0.1159    2.0873   -2.8650 H         1 <0>         0.0400
     29 H11         1.6331    2.8937   -2.3410 H         1 <0>         0.0935
     30 H12         2.3756    0.8488   -1.1873 H         1 <0>         0.0829
     31 H13         1.9284    0.4249   -2.8746 H         1 <0>         0.0985
     32 H14        -0.1854    3.5386   -0.9198 H         1 <0>         0.3507
@<TRIPOS>BOND
     1    1    6 ar
     2    1    2 ar
     3    1   20 1
     4    2    3 ar
     5    2   21 1
     6    3   10 1
     7    3    4 ar
     8    4    5 ar
     9    4    8 1
    10    5    6 ar
    11    5   22 1
    12    6    7 1
    13    8    9 2
    14    8   23 1
    15    9   10 1
    16    9   12 1
    17   10   11 1
    18   12   13 2
    19   12   14 am
    20   14   19 1
    21   14   15 1
    22   15   16 1
    23   15   24 1
    24   15   25 1
    25   16   17 1
    26   16   26 1
    27   16   27 1
    28   17   18 1
    29   17   32 1
    30   18   19 1
    31   18   28 1
    32   18   29 1
    33   19   30 1
    34   19   31 1
@<TRIPOS>MOLECULE
ZINC42887577
   51    55     0     0     0
SMALL
USER_CHARGES

@<TRIPOS>ATOM
      1 C1         -0.0518    1.5017   -0.1148 C.3       1 <0>        -0.1240
      2 C2          1.3896    2.0009   -0.1884 C.3       1 <0>        -0.1233
      3 C3          2.1792    1.5324    1.0162 C.3       1 <0>        -0.1236
      4 C4          2.0195    0.0939    1.3795 C.3       1 <0>         0.0936
      5 H1          2.2717   -0.0155    2.4343 H         1 <0>         0.0954
      6 C5          0.6350   -0.5290    1.1646 C.3       1 <0>        -0.0591
      7 H2         -0.0167   -0.3840    2.0262 H         1 <0>         0.1072
      8 C6         -0.0335   -0.0263   -0.0957 C.3       1 <0>        -0.1163
      9 C7          1.0170   -1.9803    0.9762 C.2       1 <0>        -0.3344
     10 C8          2.3328   -2.0225    0.6739 C.2       1 <0>         0.2511
     11 O1          2.8682   -0.7933    0.6365 O.3       1 <0>        -0.2589
     12 C9          3.0235   -3.3350    0.3757 C.3       1 <0>        -0.0898
     13 C10         2.3849   -4.4569    1.1913 C.3       1 <0>        -0.0540
     14 C11         0.8856   -4.4170    1.1377 C.ar      1 <0>        -0.2237
     15 C12         0.2049   -3.1948    1.0601 C.ar      1 <0>         0.3605
     16 N1         -1.1238   -3.1799    1.0574 N.ar      1 <0>        -0.5496
     17 C13        -1.8045   -4.3176    1.0919 C.ar      1 <0>         0.6483
     18 N2         -1.1964   -5.4936    1.1387 N.ar      1 <0>        -0.5521
     19 C14         0.1326   -5.5842    1.1657 C.ar      1 <0>         0.5268
     20 N3          0.7537   -6.8224    1.2213 N.pl3     1 <0>        -0.6706
     21 C15         1.1158   -7.4297    2.5114 C.3       1 <0>         0.1172
     22 C16         0.5808   -8.8652    2.5396 C.3       1 <0>        -0.0241
     23 N4          1.0770   -9.5946    1.3658 N.4       1 <0>        -0.5044
     24 C17         0.5361   -8.9955    0.1392 C.3       1 <0>        -0.0241
     25 C18         1.0638   -7.5690   -0.0077 C.3       1 <0>         0.1164
     26 N5         -3.1878   -4.2751    1.0794 N.pl3     1 <0>        -0.7861
     27 H3         -0.5233    1.8744    0.7945 H         1 <0>         0.0723
     28 H4         -0.6061    1.8511   -0.9859 H         1 <0>         0.0790
     29 H5          1.8567    1.6173   -1.0955 H         1 <0>         0.0679
     30 H6          1.3913    3.0905   -0.2174 H         1 <0>         0.0831
     31 H7          3.2358    1.7200    0.8248 H         1 <0>         0.0919
     32 H8          1.8815    2.1354    1.8741 H         1 <0>         0.0970
     33 H9         -1.0557   -0.4014   -0.1447 H         1 <0>         0.0613
     34 H10         0.5270   -0.3925   -0.9558 H         1 <0>         0.0705
     35 H11         2.9287   -3.5606   -0.6864 H         1 <0>         0.1212
     36 H12         4.0793   -3.2553    0.6345 H         1 <0>         0.1271
     37 H13         2.7271   -5.4157    0.8020 H         1 <0>         0.1112
     38 H14         2.7040   -4.3648    2.2295 H         1 <0>         0.1008
     39 H15         2.2003   -7.4408    2.6194 H         1 <0>         0.1031
     40 H16         0.6696   -6.8565    3.3241 H         1 <0>         0.1198
     41 H17         0.9220   -9.3625    3.4475 H         1 <0>         0.1503
     42 H18        -0.5090   -8.8474    2.5225 H         1 <0>         0.1373
     43 H19         2.0848   -9.5495    1.3446 H         1 <0>         0.4310
     44 H20         0.8444   -9.5888   -0.7216 H         1 <0>         0.1504
     45 H21        -0.5523   -8.9737    0.1947 H         1 <0>         0.1374
     46 H22         0.5833   -7.0878   -0.8596 H         1 <0>         0.1202
     47 H23         2.1430   -7.5944   -0.1584 H         1 <0>         0.1025
     48 H24        -3.6465   -3.4211    1.0456 H         1 <0>         0.4335
     49 H25        -3.6986   -5.0994    1.1043 H         1 <0>         0.4469
     50 H26         0.7871  -10.5594    1.4236 H         1 <0>         0.4402
     51 H27        -1.5976   -2.3339    1.0303 H         1 <0>         0.4460
@<TRIPOS>BOND
     1    1    8 1
     2    1    2 1
     3    1   27 1
     4    1   28 1
     5    2    3 1
     6    2   29 1
     7    2   30 1
     8    3    4 1
     9    3   31 1
    10    3   32 1
    11    4    5 1
    12    4   11 1
    13    4    6 1
    14    6    7 1
    15    6    8 1
    16    6    9 1
    17    8   33 1
    18    8   34 1
    19    9   15 1
    20    9   10 2
    21   10   11 1
    22   10   12 1
    23   12   13 1
    24   12   35 1
    25   12   36 1
    26   13   14 1
    27   13   37 1
    28   13   38 1
    29   14   19 ar
    30   14   15 ar
    31   15   16 ar
    32   16   17 ar
    33   16   51 1
    34   17   18 ar
    35   17   26 1
    36   18   19 ar
    37   19   20 1
    38   20   25 1
    39   20   21 1
    40   21   22 1
    41   21   39 1
    42   21   40 1
    43   22   23 1
    44   22   41 1
    45   22   42 1
    46   23   24 1
    47   23   43 1
    48   23   50 1
    49   24   25 1
    50   24   44 1
    51   24   45 1
    52   25   46 1
    53   25   47 1
    54   26   48 1
    55   26   49 1
@<TRIPOS>MOLECULE
ZINC42887577
   50    54     0     0     0
SMALL
USER_CHARGES

@<TRIPOS>ATOM
      1 C1         -0.0518    1.5017   -0.1148 C.3       1 <0>        -0.1220
      2 C2          1.3896    2.0009   -0.1884 C.3       1 <0>        -0.1192
      3 C3          2.1792    1.5324    1.0162 C.3       1 <0>        -0.1147
      4 C4          2.0195    0.0939    1.3795 C.3       1 <0>         0.0898
      5 H1          2.2717   -0.0155    2.4343 H         1 <0>         0.0758
      6 C5          0.6350   -0.5290    1.1646 C.3       1 <0>        -0.0477
      7 H2         -0.0167   -0.3840    2.0262 H         1 <0>         0.0960
      8 C6         -0.0335   -0.0263   -0.0957 C.3       1 <0>        -0.1049
      9 C7          1.0170   -1.9803    0.9762 C.2       1 <0>        -0.2453
     10 C8          2.3328   -2.0225    0.6739 C.2       1 <0>         0.1401
     11 O1          2.8682   -0.7933    0.6365 O.3       1 <0>        -0.2869
     12 C9          3.0235   -3.3350    0.3757 C.3       1 <0>        -0.0663
     13 C10         2.3849   -4.4569    1.1913 C.3       1 <0>        -0.0450
     14 C11         0.8856   -4.4170    1.1377 C.ar      1 <0>        -0.2541
     15 C12         0.2049   -3.1948    1.0601 C.ar      1 <0>         0.3245
     16 N1         -1.1238   -3.1799    1.0574 N.ar      1 <0>        -0.5564
     17 C13        -1.8045   -4.3176    1.0919 C.ar      1 <0>         0.5906
     18 N2         -1.1964   -5.4936    1.1387 N.ar      1 <0>        -0.6006
     19 C14         0.1326   -5.5842    1.1657 C.ar      1 <0>         0.4501
     20 N3          0.7537   -6.8224    1.2213 N.pl3     1 <0>        -0.6608
     21 C15         1.1158   -7.4297    2.5114 C.3       1 <0>         0.1219
     22 C16         0.5808   -8.8652    2.5396 C.3       1 <0>        -0.0241
     23 N4          1.0770   -9.5946    1.3658 N.4       1 <0>        -0.5018
     24 C17         0.5361   -8.9955    0.1392 C.3       1 <0>        -0.0239
     25 C18         1.0638   -7.5690   -0.0077 C.3       1 <0>         0.1212
     26 N5         -3.1878   -4.2751    1.0794 N.pl3     1 <0>        -0.8176
     27 H3         -0.5233    1.8744    0.7945 H         1 <0>         0.0664
     28 H4         -0.6061    1.8511   -0.9859 H         1 <0>         0.0695
     29 H5          1.8567    1.6173   -1.0955 H         1 <0>         0.0639
     30 H6          1.3913    3.0905   -0.2174 H         1 <0>         0.0723
     31 H7          3.2358    1.7200    0.8248 H         1 <0>         0.0806
     32 H8          1.8815    2.1354    1.8741 H         1 <0>         0.0857
     33 H9         -1.0557   -0.4014   -0.1447 H         1 <0>         0.0725
     34 H10         0.5270   -0.3925   -0.9558 H         1 <0>         0.0586
     35 H11         2.9287   -3.5606   -0.6864 H         1 <0>         0.0972
     36 H12         4.0793   -3.2553    0.6345 H         1 <0>         0.1003
     37 H13         2.7271   -5.4157    0.8020 H         1 <0>         0.0853
     38 H14         2.7040   -4.3648    2.2295 H         1 <0>         0.0768
     39 H15         2.2003   -7.4408    2.6194 H         1 <0>         0.0885
     40 H16         0.6696   -6.8565    3.3241 H         1 <0>         0.1147
     41 H17         0.9220   -9.3625    3.4475 H         1 <0>         0.1413
     42 H18        -0.5090   -8.8474    2.5225 H         1 <0>         0.1345
     43 H19         2.0848   -9.5495    1.3446 H         1 <0>         0.4272
     44 H20         0.8444   -9.5888   -0.7216 H         1 <0>         0.1416
     45 H21        -0.5523   -8.9737    0.1947 H         1 <0>         0.1346
     46 H22         0.5833   -7.0878   -0.8596 H         1 <0>         0.1152
     47 H23         2.1430   -7.5944   -0.1584 H         1 <0>         0.0877
     48 H24        -3.6465   -3.4211    1.0456 H         1 <0>         0.4194
     49 H25        -3.6986   -5.0994    1.1043 H         1 <0>         0.4149
     50 H26         0.7871  -10.5594    1.4236 H         1 <0>         0.4326
@<TRIPOS>BOND
     1    1    8 1
     2    1    2 1
     3    1   27 1
     4    1   28 1
     5    2    3 1
     6    2   29 1
     7    2   30 1
     8    3    4 1
     9    3   31 1
    10    3   32 1
    11    4    5 1
    12    4   11 1
    13    4    6 1
    14    6    7 1
    15    6    8 1
    16    6    9 1
    17    8   33 1
    18    8   34 1
    19    9   15 1
    20    9   10 2
    21   10   11 1
    22   10   12 1
    23   12   13 1
    24   12   35 1
    25   12   36 1
    26   13   14 1
    27   13   37 1
    28   13   38 1
    29   14   19 ar
    30   14   15 ar
    31   15   16 ar
    32   16   17 ar
    33   17   18 ar
    34   17   26 1
    35   18   19 ar
    36   19   20 1
    37   20   25 1
    38   20   21 1
    39   21   22 1
    40   21   39 1
    41   21   40 1
    42   22   23 1
    43   22   41 1
    44   22   42 1
    45   23   24 1
    46   23   43 1
    47   23   50 1
    48   24   25 1
    49   24   44 1
    50   24   45 1
    51   25   46 1
    52   25   47 1
    53   26   48 1
    54   26   49 1
@<TRIPOS>MOLECULE
ZINC42887577
   51    55     0     0     0
SMALL
USER_CHARGES

@<TRIPOS>ATOM
      1 C1         -0.0530    1.5009   -0.1188 C.3       1 <0>        -0.1241
      2 C2          1.3884    2.0000   -0.1944 C.3       1 <0>        -0.1226
      3 C3          2.1794    1.5322    1.0096 C.3       1 <0>        -0.1211
      4 C4          2.0201    0.0940    1.3739 C.3       1 <0>         0.0885
      5 H1          2.2735   -0.0148    2.4285 H         1 <0>         0.0910
      6 C5          0.6353   -0.5290    1.1610 C.3       1 <0>        -0.0474
      7 H2         -0.0154   -0.3835    2.0233 H         1 <0>         0.1079
      8 C6         -0.0346   -0.0270   -0.0987 C.3       1 <0>        -0.1091
      9 C7          1.0170   -1.9805    0.9730 C.2       1 <0>        -0.2880
     10 C8          2.3324   -2.0229    0.6692 C.2       1 <0>         0.2249
     11 O1          2.8679   -0.7937    0.6305 O.3       1 <0>        -0.2629
     12 C9          3.0227   -3.3356    0.3710 C.3       1 <0>        -0.0848
     13 C10         2.3850   -4.4570    1.1880 C.3       1 <0>        -0.0597
     14 C11         0.8856   -4.4170    1.1361 C.ar      1 <0>        -0.1763
     15 C12         0.2049   -3.1948    1.0586 C.ar      1 <0>         0.3893
     16 N1         -1.1238   -3.1799    1.0574 N.ar      1 <0>        -0.5112
     17 C13        -1.8045   -4.3176    1.0935 C.ar      1 <0>         0.6478
     18 N2         -1.1964   -5.4935    1.1402 N.ar      1 <0>        -0.5789
     19 C14         0.1326   -5.5842    1.1657 C.ar      1 <0>         0.4358
     20 N3          0.7537   -6.8224    1.2213 N.pl3     1 <0>        -0.6731
     21 C15         1.1158   -7.4297    2.5114 C.3       1 <0>         0.1064
     22 C16         0.5808   -8.8652    2.5396 C.3       1 <0>        -0.0246
     23 N4          1.0770   -9.5946    1.3658 N.4       1 <0>        -0.5057
     24 C17         0.5361   -8.9955    0.1392 C.3       1 <0>        -0.0245
     25 C18         1.0638   -7.5690   -0.0077 C.3       1 <0>         0.1048
     26 N5         -3.1878   -4.2750    1.0825 N.pl3     1 <0>        -0.7858
     27 H3         -0.5234    1.8742    0.7909 H         1 <0>         0.0704
     28 H4         -0.6083    1.8498   -0.9894 H         1 <0>         0.0754
     29 H5          1.8544    1.6159   -1.1017 H         1 <0>         0.0659
     30 H6          1.3901    3.0896   -0.2240 H         1 <0>         0.0797
     31 H7          3.2357    1.7197    0.8169 H         1 <0>         0.0881
     32 H8          1.8828    2.1357    1.8674 H         1 <0>         0.0950
     33 H9         -1.0570   -0.4021   -0.1463 H         1 <0>         0.0741
     34 H10         0.5248   -0.3938   -0.9593 H         1 <0>         0.0610
     35 H11         2.9266   -3.5619   -0.6909 H         1 <0>         0.1187
     36 H12         4.0788   -3.2558    0.6285 H         1 <0>         0.1259
     37 H13         2.7267   -5.4161    0.7988 H         1 <0>         0.1069
     38 H14         2.7053   -4.3643    2.2258 H         1 <0>         0.1056
     39 H15         2.2003   -7.4408    2.6194 H         1 <0>         0.1105
     40 H16         0.6696   -6.8565    3.3241 H         1 <0>         0.1251
     41 H17         0.9220   -9.3625    3.4475 H         1 <0>         0.1558
     42 H18        -0.5090   -8.8474    2.5225 H         1 <0>         0.1333
     43 H19         2.0848   -9.5495    1.3446 H         1 <0>         0.4347
     44 H20         0.8444   -9.5888   -0.7216 H         1 <0>         0.1561
     45 H21        -0.5523   -8.9737    0.1947 H         1 <0>         0.1330
     46 H22         0.5833   -7.0878   -0.8596 H         1 <0>         0.1249
     47 H23         2.1430   -7.5944   -0.1584 H         1 <0>         0.1103
     48 H24        -3.6465   -3.4210    1.0488 H         1 <0>         0.4503
     49 H25        -3.6987   -5.0992    1.1085 H         1 <0>         0.4297
     50 H26         0.7871  -10.5594    1.4236 H         1 <0>         0.4428
     51 H27        -1.7289   -6.3042    1.1559 H         1 <0>         0.4302
@<TRIPOS>BOND
     1    1    8 1
     2    1    2 1
     3    1   27 1
     4    1   28 1
     5    2    3 1
     6    2   29 1
     7    2   30 1
     8    3    4 1
     9    3   31 1
    10    3   32 1
    11    4    5 1
    12    4   11 1
    13    4    6 1
    14    6    7 1
    15    6    8 1
    16    6    9 1
    17    8   33 1
    18    8   34 1
    19    9   15 1
    20    9   10 2
    21   10   11 1
    22   10   12 1
    23   12   13 1
    24   12   35 1
    25   12   36 1
    26   13   14 1
    27   13   37 1
    28   13   38 1
    29   14   19 ar
    30   14   15 ar
    31   15   16 ar
    32   16   17 ar
    33   17   18 ar
    34   17   26 1
    35   18   19 ar
    36   18   51 1
    37   19   20 1
    38   20   25 1
    39   20   21 1
    40   21   22 1
    41   21   39 1
    42   21   40 1
    43   22   23 1
    44   22   41 1
    45   22   42 1
    46   23   24 1
    47   23   43 1
    48   23   50 1
    49   24   25 1
    50   24   44 1
    51   24   45 1
    52   25   46 1
    53   25   47 1
    54   26   48 1
    55   26   49 1
@<TRIPOS>MOLECULE
ZINC00000504
   41    44     0     0     0
SMALL
USER_CHARGES

@<TRIPOS>ATOM
      1 C1         -0.0178    1.4648    0.0101 C.3       1 <0>        -0.0457
      2 N1          0.0021   -0.0041    0.0020 N.4       1 <0>        -0.3851
      3 C2         -1.3782   -0.5248    0.0610 C.3       1 <0>        -0.0107
      4 C3         -1.3147   -2.0017   -0.3247 C.3       1 <0>         0.1097
      5 N2         -0.2536   -2.6823    0.4304 N.pl3     1 <0>        -0.6570
      6 C4         -0.1632   -4.0681    0.2474 C.ar      1 <0>         0.1515
      7 C5          0.1651   -4.5655   -1.0110 C.ar      1 <0>        -0.1283
      8 C6          0.3219   -5.9257   -1.1894 C.ar      1 <0>        -0.1053
      9 C7          0.1595   -6.7897   -0.1216 C.ar      1 <0>        -0.1122
     10 C8         -0.1903   -6.2968    1.1226 C.ar      1 <0>        -0.0978
     11 C9         -0.3794   -4.9379    1.2936 C.ar      1 <0>        -0.0863
     12 C10        -0.9055   -4.4020    2.5876 C.3       1 <0>        -0.0401
     13 C11         0.0255   -3.4607    3.2849 C.ar      1 <0>        -0.0434
     14 C12         0.2033   -3.7275    4.6483 C.ar      1 <0>        -0.1164
     15 C13         1.0009   -2.9352    5.4386 C.ar      1 <0>        -0.1037
     16 C14         1.6407   -1.8450    4.8776 C.ar      1 <0>        -0.1092
     17 C15         1.4792   -1.5873    3.5373 C.ar      1 <0>        -0.1345
     18 C16         0.6836   -2.4040    2.7249 C.ar      1 <0>        -0.1120
     19 C17         0.6957   -2.0166    1.2712 C.3       1 <0>         0.2145
     20 H1          1.6762   -2.3177    0.9022 H         1 <0>         0.0814
     21 C18         0.7079   -0.4980    1.1840 C.3       1 <0>        -0.0096
     22 H2          1.0047    1.8421    0.0024 H         1 <0>         0.1256
     23 H3         -0.5450    1.8259   -0.8730 H         1 <0>         0.1278
     24 H4         -0.5280    1.8163    0.9069 H         1 <0>         0.1233
     25 H5         -1.7720   -0.4210    1.0720 H         1 <0>         0.1359
     26 H6         -2.0104    0.0166   -0.6429 H         1 <0>         0.1459
     27 H7         -2.2727   -2.4732   -0.1054 H         1 <0>         0.1007
     28 H8         -1.1096   -2.0872   -1.3918 H         1 <0>         0.0828
     29 H9          0.2970   -3.8905   -1.8436 H         1 <0>         0.1222
     30 H10         0.5722   -6.3158   -2.1649 H         1 <0>         0.1292
     31 H11         0.3058   -7.8509   -0.2596 H         1 <0>         0.1304
     32 H12        -0.3156   -6.9709    1.9570 H         1 <0>         0.1304
     33 H13        -1.8427   -3.8810    2.3915 H         1 <0>         0.0851
     34 H14        -1.1118   -5.2412    3.2519 H         1 <0>         0.0847
     35 H15        -0.2988   -4.5760    5.0892 H         1 <0>         0.1275
     36 H16         1.1270   -3.1618    6.4870 H         1 <0>         0.1317
     37 H17         2.2602   -1.2030    5.4861 H         1 <0>         0.1308
     38 H18         1.9776   -0.7345    3.1006 H         1 <0>         0.1191
     39 H19         1.7417   -0.1544    1.1475 H         1 <0>         0.1407
     40 H20         0.2329   -0.0891    2.0758 H         1 <0>         0.1370
     41 H21         0.4593   -0.3360   -0.8339 H         1 <0>         0.4294
@<TRIPOS>BOND
     1    1    2 1
     2    1   22 1
     3    1   23 1
     4    1   24 1
     5    2   21 1
     6    2    3 1
     7    2   41 1
     8    3    4 1
     9    3   25 1
    10    3   26 1
    11    4    5 1
    12    4   27 1
    13    4   28 1
    14    5   19 1
    15    5    6 1
    16    6   11 ar
    17    6    7 ar
    18    7    8 ar
    19    7   29 1
    20    8    9 ar
    21    8   30 1
    22    9   10 ar
    23    9   31 1
    24   10   11 ar
    25   10   32 1
    26   11   12 1
    27   12   13 1
    28   12   33 1
    29   12   34 1
    30   13   18 ar
    31   13   14 ar
    32   14   15 ar
    33   14   35 1
    34   15   16 ar
    35   15   36 1
    36   16   17 ar
    37   16   37 1
    38   17   18 ar
    39   17   38 1
    40   18   19 1
    41   19   20 1
    42   19   21 1
    43   21   39 1
    44   21   40 1
@<TRIPOS>MOLECULE
ZINC18217584
   18    18     0     0     0
SMALL
USER_CHARGES

@<TRIPOS>ATOM
      1 C1         -0.0165    1.3646    0.0095 C.2       1 <0>        -0.0270
      2 C2          1.2671    1.7717   -0.0005 C.2       1 <0>        -0.0303
      3 N1          2.0482    0.6814   -0.0138 N.2       1 <0>        -0.4943
      4 C3          1.2973   -0.3859   -0.0124 C.2       1 <0>         0.2060
      5 N2          0.0021   -0.0041    0.0020 N.pl3     1 <0>        -0.5630
      6 H1         -0.7708   -0.5902    0.0065 H         1 <0>         0.4305
      7 C4          1.7427    3.2017    0.0026 C.3       1 <0>        -0.0519
      8 C5          2.7000    3.4183    1.1763 C.3       1 <0>        -0.0028
      9 N3          3.1635    4.8122    1.1794 N.4       1 <0>        -0.6379
     10 H2         -0.8922    1.9965    0.0253 H         1 <0>         0.1810
     11 H3          1.6529   -1.4057   -0.0218 H         1 <0>         0.2158
     12 H4          2.2605    3.4145   -0.9326 H         1 <0>         0.0964
     13 H5          0.8868    3.8690    0.1039 H         1 <0>         0.0968
     14 H6          2.1821    3.2055    2.1116 H         1 <0>         0.1320
     15 H7          3.5559    2.7510    1.0750 H         1 <0>         0.1402
     16 H8          3.7948    4.9550    1.9534 H         1 <0>         0.4390
     17 H9          3.6429    5.0092    0.3137 H         1 <0>         0.4357
     18 H10         2.3712    5.4299    1.2732 H         1 <0>         0.4338
@<TRIPOS>BOND
     1    1    5 1
     2    1    2 2
     3    1   10 1
     4    2    3 1
     5    2    7 1
     6    3    4 2
     7    4    5 1
     8    4   11 1
     9    5    6 1
    10    7    8 1
    11    7   12 1
    12    7   13 1
    13    8    9 1
    14    8   14 1
    15    8   15 1
    16    9   16 1
    17    9   17 1
    18    9   18 1
