@<TRIPOS>MOLECULE
ZINC18217584
   18    18     0     0     0
SMALL
USER_CHARGES

@<TRIPOS>ATOM
      1 C1         -0.0165    1.3646    0.0095 C.2       1 <0>        -0.0270
      2 C2          1.2671    1.7717   -0.0005 C.2       1 <0>        -0.0303
      3 N1          2.0482    0.6814   -0.0138 N.2       1 <0>        -0.4943
      4 C3          1.2973   -0.3859   -0.0124 C.2       1 <0>         0.2060
      5 N2          0.0021   -0.0041    0.0020 N.pl3     1 <0>        -0.5630
      6 H1         -0.7708   -0.5902    0.0065 H         1 <0>         0.4305
      7 C4          1.7427    3.2017    0.0026 C.3       1 <0>        -0.0519
      8 C5          2.7000    3.4183    1.1763 C.3       1 <0>        -0.0028
      9 N3          3.1635    4.8122    1.1794 N.4       1 <0>        -0.6379
     10 H2         -0.8922    1.9965    0.0253 H         1 <0>         0.1810
     11 H3          1.6529   -1.4057   -0.0218 H         1 <0>         0.2158
     12 H4          2.2605    3.4145   -0.9326 H         1 <0>         0.0964
     13 H5          0.8868    3.8690    0.1039 H         1 <0>         0.0968
     14 H6          2.1821    3.2055    2.1116 H         1 <0>         0.1320
     15 H7          3.5559    2.7510    1.0750 H         1 <0>         0.1402
     16 H8          3.7948    4.9550    1.9534 H         1 <0>         0.4390
     17 H9          3.6429    5.0092    0.3137 H         1 <0>         0.4357
     18 H10         2.3712    5.4299    1.2732 H         1 <0>         0.4338
@<TRIPOS>BOND
     1    1    5 1
     2    1    2 2
     3    1   10 1
     4    2    3 1
     5    2    7 1
     6    3    4 2
     7    4    5 1
     8    4   11 1
     9    5    6 1
    10    7    8 1
    11    7   12 1
    12    7   13 1
    13    8    9 1
    14    8   14 1
    15    8   15 1
    16    9   16 1
    17    9   17 1
    18    9   18 1
