@<TRIPOS>MOLECULE
ZINC04617893
   45    47     0     0     0
SMALL
USER_CHARGES

@<TRIPOS>ATOM
      1 C1         -0.0187    1.5258    0.0104 C.3       1 <0>        -0.1662
      2 C2          0.0021   -0.0041    0.0020 C.3       1 <0>         0.1146
      3 N1          0.6878   -0.4765   -1.2033 N.am      1 <0>        -0.7208
      4 C3          0.8268   -1.7986   -1.4250 C.2       1 <0>         0.5996
      5 O1          0.3832   -2.5993   -0.6247 O.2       1 <0>        -0.5147
      6 C4          1.5175   -2.2745   -2.6391 C.2       1 <0>        -0.0028
      7 C5          1.7342   -3.6305   -3.0093 C.2       1 <0>        -0.0589
      8 C6          2.4181   -3.5670   -4.2180 C.2       1 <0>         0.0579
      9 N2          2.5734   -2.2429   -4.5044 N.pl3     1 <0>        -0.3675
     10 H1          3.0178   -1.8950   -5.2932 H         1 <0>         0.4493
     11 N3          2.0429   -1.5226   -3.5841 N.2       1 <0>        -0.2479
     12 C7          2.8850   -4.7080   -5.0306 C.ar      1 <0>        -0.0568
     13 C8          4.2521   -4.9231   -5.2162 C.ar      1 <0>        -0.0605
     14 C9          4.6843   -5.9901   -5.9755 C.ar      1 <0>        -0.0744
     15 C10         3.7623   -6.8531   -6.5573 C.ar      1 <0>         0.1514
     16 C11         2.4026   -6.6463   -6.3783 C.ar      1 <0>        -0.1612
     17 C12         1.9582   -5.5818   -5.6134 C.ar      1 <0>         0.1689
     18 O2          0.6267   -5.3821   -5.4325 O.3       1 <0>        -0.4776
     19 O3          4.1950   -7.9025   -7.3042 O.3       1 <0>        -0.4840
     20 Cl1         6.3842   -6.2562   -6.2060 Cl        1 <0>        -0.0447
     21 C13         1.3218   -4.8449   -2.2688 C.ar      1 <0>        -0.0401
     22 C14         2.2865   -5.7018   -1.7385 C.ar      1 <0>        -0.0629
     23 C15         1.8988   -6.8314   -1.0492 C.ar      1 <0>        -0.1550
     24 C16         0.5502   -7.1163   -0.8825 C.ar      1 <0>         0.1314
     25 C17        -0.4126   -6.2658   -1.4089 C.ar      1 <0>        -0.2067
     26 C18        -0.0323   -5.1316   -2.0948 C.ar      1 <0>        -0.0231
     27 O4          0.1718   -8.2307   -0.2030 O.3       1 <0>        -0.3191
     28 C19        -1.2317   -8.4633   -0.0686 C.3       1 <0>         0.0272
     29 H2          1.0039    1.9031    0.0027 H         1 <0>         0.0625
     30 H3         -0.5459    1.8868   -0.8726 H         1 <0>         0.0623
     31 H4         -0.5289    1.8773    0.9072 H         1 <0>         0.0759
     32 H5          0.5293   -0.3651    0.8851 H         1 <0>         0.0700
     33 H6         -1.0205   -0.3814    0.0098 H         1 <0>         0.0698
     34 H7          1.0417    0.1622   -1.8418 H         1 <0>         0.4060
     35 H8          4.9705   -4.2542   -4.7658 H         1 <0>         0.1447
     36 H9          1.6902   -7.3189   -6.8328 H         1 <0>         0.1512
     37 H10         0.2189   -4.8180   -6.1038 H         1 <0>         0.3950
     38 H11         4.3386   -8.7134   -6.7973 H         1 <0>         0.4008
     39 H12         3.3357   -5.4810   -1.8681 H         1 <0>         0.1224
     40 H13         2.6451   -7.4955   -0.6387 H         1 <0>         0.1291
     41 H14        -1.4607   -6.4906   -1.2773 H         1 <0>         0.1265
     42 H15        -0.7819   -4.4681   -2.5001 H         1 <0>         0.1182
     43 H16        -1.6808   -8.5566   -1.0574 H         1 <0>         0.0550
     44 H17        -1.3955   -9.3830    0.4930 H         1 <0>         0.0992
     45 H18        -1.6895   -7.6278    0.4609 H         1 <0>         0.0560
@<TRIPOS>BOND
     1    1    2 1
     2    1   29 1
     3    1   30 1
     4    1   31 1
     5    2    3 1
     6    2   32 1
     7    2   33 1
     8    3    4 am
     9    3   34 1
    10    4    5 2
    11    4    6 1
    12    6   11 2
    13    6    7 1
    14    7    8 2
    15    7   21 1
    16    8    9 1
    17    8   12 1
    18    9   10 1
    19    9   11 1
    20   12   17 ar
    21   12   13 ar
    22   13   14 ar
    23   13   35 1
    24   14   15 ar
    25   14   20 1
    26   15   16 ar
    27   15   19 1
    28   16   17 ar
    29   16   36 1
    30   17   18 1
    31   18   37 1
    32   19   38 1
    33   21   26 ar
    34   21   22 ar
    35   22   23 ar
    36   22   39 1
    37   23   24 ar
    38   23   40 1
    39   24   25 ar
    40   24   27 1
    41   25   26 ar
    42   25   41 1
    43   26   42 1
    44   27   28 1
    45   28   43 1
    46   28   44 1
    47   28   45 1
@<TRIPOS>MOLECULE
ZINC04617893
   45    47     0     0     0
SMALL
USER_CHARGES

@<TRIPOS>ATOM
      1 C1         -0.6190    1.4858    0.4022 C.3       1 <0>        -0.1677
      2 C2         -0.4654   -0.0334    0.3057 C.3       1 <0>         0.1149
      3 N1          0.3644   -0.5117    1.4143 N.am      1 <0>        -0.7283
      4 C3          0.6366   -1.8263    1.5340 C.2       1 <0>         0.5809
      5 O1          0.1931   -2.6158    0.7212 O.2       1 <0>        -0.4960
      6 C4          1.4680   -2.3056    2.6448 C.2       1 <0>         0.0369
      7 C5          1.8358   -3.6238    2.8930 C.2       1 <0>        -0.0911
      8 C6          2.6336   -3.6231    4.0601 C.2       1 <0>         0.1207
      9 N2          2.7408   -2.3842    4.4892 N.2       1 <0>        -0.2205
     10 N3          2.0322   -1.5388    3.6279 N.pl3     1 <0>        -0.4551
     11 H1          1.9529   -0.5759    3.7141 H         1 <0>         0.4440
     12 C7          3.2451   -4.8161    4.6932 C.ar      1 <0>        -0.0405
     13 C8          3.9371   -5.7427    3.9153 C.ar      1 <0>        -0.0476
     14 C9          4.5052   -6.8521    4.5071 C.ar      1 <0>        -0.0721
     15 C10         4.3893   -7.0485    5.8781 C.ar      1 <0>         0.1470
     16 C11         3.7024   -6.1309    6.6583 C.ar      1 <0>        -0.1629
     17 C12         3.1342   -5.0119    6.0733 C.ar      1 <0>         0.1587
     18 O2          2.4660   -4.1089    6.8377 O.3       1 <0>        -0.4803
     19 O3          4.9505   -8.1433    6.4556 O.3       1 <0>        -0.4836
     20 Cl1         5.3663   -8.0057    3.5368 Cl        1 <0>        -0.0463
     21 C13         1.4612   -4.8070    2.0858 C.ar      1 <0>        -0.0527
     22 C14         0.6045   -5.7724    2.6159 C.ar      1 <0>        -0.0572
     23 C15         0.2579   -6.8728    1.8614 C.ar      1 <0>        -0.1507
     24 C16         0.7607   -7.0215    0.5755 C.ar      1 <0>         0.1350
     25 C17         1.6140   -6.0629    0.0449 C.ar      1 <0>        -0.2051
     26 C18         1.9596   -4.9565    0.7911 C.ar      1 <0>        -0.0404
     27 O4          0.4174   -8.1075   -0.1650 O.3       1 <0>        -0.3171
     28 C19         0.9705   -8.1976   -1.4796 C.3       1 <0>         0.0267
     29 H2          0.3637    1.9544    0.3490 H         1 <0>         0.0630
     30 H3         -1.2363    1.8417   -0.4226 H         1 <0>         0.0790
     31 H4         -1.0937    1.7436    1.3489 H         1 <0>         0.0631
     32 H5         -1.4481   -0.5020    0.3589 H         1 <0>         0.0734
     33 H6          0.0093   -0.2913   -0.6410 H         1 <0>         0.0732
     34 H7          0.7178    0.1177    2.0622 H         1 <0>         0.3959
     35 H8          4.0282   -5.5925    2.8496 H         1 <0>         0.1454
     36 H9          3.6140   -6.2869    7.7233 H         1 <0>         0.1501
     37 H10         1.5225   -4.2975    6.9348 H         1 <0>         0.3944
     38 H11         5.8616   -8.0089    6.7506 H         1 <0>         0.3983
     39 H12         0.2136   -5.6578    3.6161 H         1 <0>         0.1242
     40 H13        -0.4052   -7.6205    2.2710 H         1 <0>         0.1312
     41 H14         2.0037   -6.1821   -0.9553 H         1 <0>         0.1281
     42 H15         2.6191   -4.2088    0.3759 H         1 <0>         0.1192
     43 H16         0.6580   -7.3330   -2.0653 H         1 <0>         0.0560
     44 H17         2.0584   -8.2189   -1.4153 H         1 <0>         0.0560
     45 H18         0.6170   -9.1095   -1.9608 H         1 <0>         0.1001
@<TRIPOS>BOND
     1    1    2 1
     2    1   29 1
     3    1   30 1
     4    1   31 1
     5    2    3 1
     6    2   32 1
     7    2   33 1
     8    3    4 am
     9    3   34 1
    10    4    5 2
    11    4    6 1
    12    6   10 1
    13    6    7 2
    14    7    8 1
    15    7   21 1
    16    8    9 2
    17    8   12 1
    18    9   10 1
    19   10   11 1
    20   12   17 ar
    21   12   13 ar
    22   13   14 ar
    23   13   35 1
    24   14   15 ar
    25   14   20 1
    26   15   16 ar
    27   15   19 1
    28   16   17 ar
    29   16   36 1
    30   17   18 1
    31   18   37 1
    32   19   38 1
    33   21   26 ar
    34   21   22 ar
    35   22   23 ar
    36   22   39 1
    37   23   24 ar
    38   23   40 1
    39   24   25 ar
    40   24   27 1
    41   25   26 ar
    42   25   41 1
    43   26   42 1
    44   27   28 1
    45   28   43 1
    46   28   44 1
    47   28   45 1
@<TRIPOS>MOLECULE
ZINC04617893
   44    46     0     0     0
SMALL
USER_CHARGES

@<TRIPOS>ATOM
      1 C1          0.6229    1.5050    0.3331 C.3       1 <0>        -0.1659
      2 C2          0.5003   -0.0181    0.2542 C.3       1 <0>         0.1168
      3 N1          1.0573   -0.4876   -1.0168 N.am      1 <0>        -0.7341
      4 C3          1.0575   -1.8037   -1.3073 C.2       1 <0>         0.5874
      5 O1          0.5949   -2.6019   -0.5138 O.2       1 <0>        -0.5071
      6 C4          1.6156   -2.2743   -2.5809 C.2       1 <0>         0.0115
      7 C5          1.6844   -3.5936   -3.0160 C.2       1 <0>        -0.1053
      8 C6          2.2941   -3.5824   -4.2914 C.2       1 <0>         0.1865
      9 N2          2.5754   -2.3365   -4.6064 N.2       1 <0>        -0.2288
     10 H1          2.2471   -0.5310   -3.5464 H         1 <0>         0.4326
     11 N3          2.1609   -1.4970   -3.5663 N.pl3     1 <0>        -0.4760
     12 C7          2.5696   -4.7727   -5.1313 C.ar      1 <0>        -0.1881
     13 C8          1.5767   -5.7294   -5.3347 C.ar      1 <0>        -0.0078
     14 C9          1.8359   -6.8362   -6.1168 C.ar      1 <0>        -0.1895
     15 C10         3.0854   -7.0000   -6.7030 C.ar      1 <0>         0.1667
     16 C11         4.0780   -6.0522   -6.5050 C.ar      1 <0>        -0.2771
     17 C12         3.8245   -4.9357   -5.7263 C.ar      1 <0>         0.3088
     18 O2          4.7944   -4.0033   -5.5366 O.3       1 <0>        -0.6911
     19 O3          3.3352   -8.0923   -7.4720 O.3       1 <0>        -0.5015
     20 Cl1         0.5984   -8.0274   -6.3688 Cl        1 <0>        -0.1122
     21 C13         1.2080   -4.7869   -2.2806 C.ar      1 <0>        -0.0246
     22 C14         2.1236   -5.7233   -1.7992 C.ar      1 <0>        -0.0521
     23 C15         1.6764   -6.8333   -1.1149 C.ar      1 <0>        -0.1490
     24 C16         0.3164   -7.0204   -0.9049 C.ar      1 <0>         0.1210
     25 C17        -0.5977   -6.0907   -1.3830 C.ar      1 <0>        -0.2072
     26 C18        -0.1573   -4.9749   -2.0623 C.ar      1 <0>        -0.0465
     27 O4         -0.1208   -8.1157   -0.2305 O.3       1 <0>        -0.3208
     28 C19        -1.5323   -8.2458   -0.0500 C.3       1 <0>         0.0296
     29 H2          1.6734    1.7887    0.2699 H         1 <0>         0.0621
     30 H3          0.0741    1.9569   -0.4932 H         1 <0>         0.0616
     31 H4          0.2085    1.8543    1.2787 H         1 <0>         0.0745
     32 H5          1.0491   -0.4700    1.0804 H         1 <0>         0.0695
     33 H6         -0.5502   -0.3018    0.3174 H         1 <0>         0.0691
     34 H7          1.4260    0.1487   -1.6493 H         1 <0>         0.3954
     35 H8          0.6050   -5.6047   -4.8800 H         1 <0>         0.1098
     36 H9          5.0479   -6.1828   -6.9618 H         1 <0>         0.1128
     37 H10         3.1300   -7.9690   -8.4089 H         1 <0>         0.3785
     38 H11         3.1813   -5.5789   -1.9627 H         1 <0>         0.1276
     39 H12         2.3845   -7.5585   -0.7420 H         1 <0>         0.1269
     40 H13        -1.6547   -6.2397   -1.2184 H         1 <0>         0.1217
     41 H14        -0.8684   -4.2497   -2.4293 H         1 <0>         0.1151
     42 H15        -1.9077   -7.3886    0.5089 H         1 <0>         0.0519
     43 H16        -2.0208   -8.2870   -1.0236 H         1 <0>         0.0535
     44 H17        -1.7452   -9.1611    0.5023 H         1 <0>         0.0939
@<TRIPOS>BOND
     1    1    2 1
     2    1   29 1
     3    1   30 1
     4    1   31 1
     5    2    3 1
     6    2   32 1
     7    2   33 1
     8    3    4 am
     9    3   34 1
    10    4    5 2
    11    4    6 1
    12    6    7 2
    13    6   11 1
    14    7   21 1
    15    7    8 1
    16    8   12 1
    17    8    9 2
    18    9   11 1
    19   10   11 1
    20   12   17 ar
    21   12   13 ar
    22   13   14 ar
    23   13   35 1
    24   14   15 ar
    25   14   20 1
    26   15   16 ar
    27   15   19 1
    28   16   17 ar
    29   16   36 1
    30   17   18 1
    31   19   37 1
    32   21   26 ar
    33   21   22 ar
    34   22   23 ar
    35   22   38 1
    36   23   24 ar
    37   23   39 1
    38   24   25 ar
    39   24   27 1
    40   25   26 ar
    41   25   40 1
    42   26   41 1
    43   27   28 1
    44   28   42 1
    45   28   43 1
    46   28   44 1
@<TRIPOS>MOLECULE
ZINC08536348
   46    49     0     0     0
SMALL
USER_CHARGES

@<TRIPOS>ATOM
      1 C1         -0.8059   -2.9576    2.2468 C.3       1 <0>        -0.1466
      2 C2         -2.2135   -2.3593    2.2053 C.3       1 <0>        -0.0826
      3 C3         -2.3690   -1.5274    0.9584 C.ar      1 <0>        -0.1131
      4 C4         -3.0251   -2.0472   -0.1371 C.ar      1 <0>        -0.0647
      5 C5         -3.1699   -1.2779   -1.2927 C.ar      1 <0>        -0.0753
      6 C6         -2.6466    0.0216   -1.3332 C.ar      1 <0>         0.1558
      7 C7         -1.9901    0.5332   -0.2280 C.ar      1 <0>        -0.1705
      8 C8         -1.8560   -0.2371    0.9184 C.ar      1 <0>         0.1411
      9 O1         -1.2159    0.2706    2.0040 O.3       1 <0>        -0.4910
     10 O2         -2.7832    0.7764   -2.4542 O.3       1 <0>        -0.4874
     11 C9         -3.8714   -1.8312   -2.4681 C.2       1 <0>         0.1568
     12 C10        -5.0768   -1.3870   -2.9957 C.2       1 <0>        -0.1818
     13 C11        -5.3702   -2.1969   -4.1071 C.2       1 <0>         0.0985
     14 N1         -4.4116   -3.0733   -4.2476 N.2       1 <0>        -0.2848
     15 N2         -3.4559   -2.8713   -3.2452 N.pl3     1 <0>        -0.4630
     16 H1         -2.6412   -3.3836   -3.1234 H         1 <0>         0.4414
     17 C12        -6.5868   -2.0748   -4.9880 C.3       1 <0>        -0.0768
     18 C13        -5.9013   -0.2667   -2.4823 C.ar      1 <0>         0.0017
     19 C14        -6.4970   -0.3564   -1.2252 C.ar      1 <0>        -0.0993
     20 C15        -7.2649    0.6867   -0.7502 C.ar      1 <0>        -0.1089
     21 C16        -7.4468    1.8278   -1.5195 C.ar      1 <0>         0.0494
     22 C17        -6.8530    1.9237   -2.7736 C.ar      1 <0>         0.0533
     23 C18        -6.0779    0.8808   -3.2529 C.ar      1 <0>        -0.1085
     24 O3         -7.0149    3.0388   -3.5374 O.3       1 <0>        -0.3062
     25 C19        -8.0946    3.9101   -3.1840 C.3       1 <0>         0.0205
     26 C20        -8.0647    4.1200   -1.6640 C.3       1 <0>         0.0199
     27 O4         -8.2119    2.8436   -1.0325 O.3       1 <0>        -0.3071
     28 H2         -0.6934   -3.5593    3.1487 H         1 <0>         0.0625
     29 H3         -0.6520   -3.5857    1.3694 H         1 <0>         0.0552
     30 H4         -0.0695   -2.1540    2.2520 H         1 <0>         0.0523
     31 H5         -2.9498   -3.1629    2.2001 H         1 <0>         0.0740
     32 H6         -2.3673   -1.7311    3.0827 H         1 <0>         0.0820
     33 H7         -3.4263   -3.0493   -0.1013 H         1 <0>         0.1342
     34 H8         -1.5854    1.5341   -0.2560 H         1 <0>         0.1410
     35 H9         -0.2636    0.1032    2.0131 H         1 <0>         0.3936
     36 H10        -3.5877    1.3125   -2.4718 H         1 <0>         0.3933
     37 H11        -6.3728   -1.3922   -5.8104 H         1 <0>         0.0800
     38 H12        -6.8458   -3.0552   -5.3877 H         1 <0>         0.0758
     39 H13        -7.4216   -1.6887   -4.4032 H         1 <0>         0.0792
     40 H14        -6.3577   -1.2423   -0.6234 H         1 <0>         0.1302
     41 H15        -7.7264    0.6151    0.2236 H         1 <0>         0.1358
     42 H16        -5.6143    0.9550   -4.2256 H         1 <0>         0.1372
     43 H17        -7.9744    4.8682   -3.6898 H         1 <0>         0.1232
     44 H18        -9.0426    3.4570   -3.4740 H         1 <0>         0.0788
     45 H19        -7.1138    4.5666   -1.3732 H         1 <0>         0.0781
     46 H20        -8.8847    4.7738   -1.3670 H         1 <0>         0.1229
@<TRIPOS>BOND
     1    1    2 1
     2    1   28 1
     3    1   29 1
     4    1   30 1
     5    2    3 1
     6    2   31 1
     7    2   32 1
     8    3    8 ar
     9    3    4 ar
    10    4    5 ar
    11    4   33 1
    12    5    6 ar
    13    5   11 1
    14    6    7 ar
    15    6   10 1
    16    7    8 ar
    17    7   34 1
    18    8    9 1
    19    9   35 1
    20   10   36 1
    21   11   15 1
    22   11   12 2
    23   12   13 1
    24   12   18 1
    25   13   14 2
    26   13   17 1
    27   14   15 1
    28   15   16 1
    29   17   37 1
    30   17   38 1
    31   17   39 1
    32   18   23 ar
    33   18   19 ar
    34   19   20 ar
    35   19   40 1
    36   20   21 ar
    37   20   41 1
    38   21   27 1
    39   21   22 ar
    40   22   23 ar
    41   22   24 1
    42   23   42 1
    43   24   25 1
    44   25   26 1
    45   25   43 1
    46   25   44 1
    47   26   27 1
    48   26   45 1
    49   26   46 1
@<TRIPOS>MOLECULE
ZINC08536348
   46    49     0     0     0
SMALL
USER_CHARGES

@<TRIPOS>ATOM
      1 C1         -5.0743    0.1445    2.8553 C.3       1 <0>        -0.1448
      2 C2         -4.6196    0.9852    1.6605 C.3       1 <0>        -0.0807
      3 C3         -3.7325    0.1539    0.7699 C.ar      1 <0>        -0.1136
      4 C4         -4.2475   -0.4141   -0.3769 C.ar      1 <0>        -0.0555
      5 C5         -3.4286   -1.1825   -1.2015 C.ar      1 <0>        -0.0451
      6 C6         -2.0850   -1.3752   -0.8626 C.ar      1 <0>         0.1461
      7 C7         -1.5768   -0.8016    0.2899 C.ar      1 <0>        -0.1750
      8 C8         -2.3976   -0.0334    1.1030 C.ar      1 <0>         0.1340
      9 O1         -1.8949    0.5330    2.2312 O.3       1 <0>        -0.4925
     10 O2         -1.2815   -2.1238   -1.6623 O.3       1 <0>        -0.4882
     11 C9         -3.9795   -1.7945   -2.4342 C.2       1 <0>         0.1461
     12 C10        -5.1975   -2.5127   -2.5376 C.2       1 <0>        -0.1899
     13 C11        -5.3336   -2.9035   -3.8359 C.2       1 <0>         0.1092
     14 N1         -4.2584   -2.4559   -4.5171 N.pl3     1 <0>        -0.4676
     15 H1         -4.0907   -2.5888   -5.4632 H         1 <0>         0.4418
     16 N2         -3.4282   -1.7629   -3.6280 N.2       1 <0>        -0.2747
     17 C12        -6.4809   -3.6948   -4.4089 C.3       1 <0>        -0.0965
     18 C13        -6.1498   -2.7888   -1.4337 C.ar      1 <0>         0.0040
     19 C14        -5.7757   -3.6210   -0.3805 C.ar      1 <0>        -0.0950
     20 C15        -6.6631   -3.8777    0.6443 C.ar      1 <0>        -0.1099
     21 C16        -7.9292   -3.3089    0.6313 C.ar      1 <0>         0.0500
     22 C17        -8.3069   -2.4757   -0.4161 C.ar      1 <0>         0.0523
     23 C18        -7.4176   -2.2123   -1.4450 C.ar      1 <0>        -0.1038
     24 O3         -9.5419   -1.9035   -0.4404 O.3       1 <0>        -0.3074
     25 C19       -10.5351   -2.4791    0.4151 C.3       1 <0>         0.0206
     26 C20        -9.9089   -2.6973    1.7991 C.3       1 <0>         0.0203
     27 O4         -8.7905   -3.5787    1.6509 O.3       1 <0>        -0.3075
     28 H2         -5.7159    0.7458    3.4994 H         1 <0>         0.0596
     29 H3         -5.6285   -0.7237    2.4987 H         1 <0>         0.0560
     30 H4         -4.2023   -0.1874    3.4188 H         1 <0>         0.0519
     31 H5         -5.4916    1.3171    1.0969 H         1 <0>         0.0719
     32 H6         -4.0654    1.8534    2.0170 H         1 <0>         0.0798
     33 H7         -5.2853   -0.2635   -0.6352 H         1 <0>         0.1331
     34 H8         -0.5400   -0.9485    0.5543 H         1 <0>         0.1383
     35 H9         -1.9655   -0.0262    3.0170 H         1 <0>         0.3916
     36 H10        -0.7711   -1.6074   -2.3010 H         1 <0>         0.3947
     37 H11        -7.2551   -3.0115   -4.7580 H         1 <0>         0.0847
     38 H12        -6.1250   -4.2979   -5.2442 H         1 <0>         0.0747
     39 H13        -6.8925   -4.3474   -3.6389 H         1 <0>         0.0889
     40 H14        -4.7914   -4.0653   -0.3666 H         1 <0>         0.1301
     41 H15        -6.3718   -4.5237    1.4593 H         1 <0>         0.1348
     42 H16        -7.7088   -1.5636   -2.2579 H         1 <0>         0.1326
     43 H17       -11.3852   -1.8020    0.4989 H         1 <0>         0.1223
     44 H18       -10.8641   -3.4342    0.0057 H         1 <0>         0.0777
     45 H19        -9.5736   -1.7431    2.2055 H         1 <0>         0.0780
     46 H20       -10.6435   -3.1449    2.4685 H         1 <0>         0.1222
@<TRIPOS>BOND
     1    1    2 1
     2    1   28 1
     3    1   29 1
     4    1   30 1
     5    2    3 1
     6    2   31 1
     7    2   32 1
     8    3    8 ar
     9    3    4 ar
    10    4    5 ar
    11    4   33 1
    12    5    6 ar
    13    5   11 1
    14    6    7 ar
    15    6   10 1
    16    7    8 ar
    17    7   34 1
    18    8    9 1
    19    9   35 1
    20   10   36 1
    21   11   16 2
    22   11   12 1
    23   12   13 2
    24   12   18 1
    25   13   14 1
    26   13   17 1
    27   14   15 1
    28   14   16 1
    29   17   37 1
    30   17   38 1
    31   17   39 1
    32   18   23 ar
    33   18   19 ar
    34   19   20 ar
    35   19   40 1
    36   20   21 ar
    37   20   41 1
    38   21   27 1
    39   21   22 ar
    40   22   23 ar
    41   22   24 1
    42   23   42 1
    43   24   25 1
    44   25   26 1
    45   25   43 1
    46   25   44 1
    47   26   27 1
    48   26   45 1
    49   26   46 1
@<TRIPOS>MOLECULE
ZINC13515668
   42    44     0     0     0
SMALL
USER_CHARGES
chloro-dihydroxy-methyl-BLAHdione
@<TRIPOS>ATOM
      1 C1         -1.3916    1.2428    4.1873 C.3       1 <0>        -0.1768
      2 C2         -0.3366    0.2031    3.8030 C.3       1 <0>         0.1063
      3 H1         -0.8017   -0.7738    3.6047 H         1 <0>         0.1162
      4 C3          0.7005    0.0808    4.9249 C.3       1 <0>        -0.1899
      5 C4          0.9246   -1.3926    5.2565 C.3       1 <0>        -0.0015
      6 H2          0.7945   -1.7033    4.2093 H         1 <0>         0.1562
      7 C5          1.8742   -1.7631    6.3906 C.3       1 <0>         0.0163
      8 H3          2.7381   -2.4364    6.4921 H         1 <0>         0.1664
      9 O1          0.4550   -1.8843    6.5142 O.3       1 <0>        -0.3117
     10 C6          2.5430   -0.6874    7.2013 C.2       1 <0>        -0.1413
     11 C7          3.3594    0.2015    6.6484 C.2       1 <0>        -0.1363
     12 C8          3.6645    0.1861    5.2238 C.2       1 <0>        -0.0284
     13 C9          3.8462    1.3720    4.5837 C.2       1 <0>        -0.2268
     14 C10         4.0794    1.3957    3.1983 C.2       1 <0>         0.3939
     15 O2          4.3970    0.3852    2.6072 O.2       1 <0>        -0.4563
     16 C11         3.8980    2.6919    2.4427 C.3       1 <0>        -0.1499
     17 C12         3.1538    2.4012    1.1652 C.ar      1 <0>         0.0845
     18 C13         1.8744    1.8349    1.2021 C.ar      1 <0>        -0.2050
     19 C14         1.2213    1.5318   -0.0014 C.ar      1 <0>         0.2658
     20 C15         1.8308    1.8249   -1.2090 C.ar      1 <0>        -0.2704
     21 C16         3.0918    2.3991   -1.2310 C.ar      1 <0>         0.2534
     22 C17         3.7525    2.6836   -0.0395 C.ar      1 <0>        -0.1825
     23 Cl1         5.3347    3.3980   -0.0790 Cl        1 <0>        -0.0470
     24 O3          3.6848    2.6856   -2.4177 O.3       1 <0>        -0.4904
     25 O4         -0.0110    0.9628    0.0073 O.3       1 <0>        -0.4757
     26 C18         1.2111    1.5345    2.4826 C.2       1 <0>         0.5285
     27 O5          1.4831    2.2084    3.4592 O.2       1 <0>        -0.5074
     28 O6          0.2919    0.5683    2.5572 O.3       1 <0>        -0.3394
     29 H4         -1.8628    0.9529    5.1380 H         1 <0>         0.0767
     30 H5         -2.1576    1.2963    3.3997 H         1 <0>         0.0682
     31 H6         -0.9127    2.2266    4.3004 H         1 <0>         0.0713
     32 H7          1.6496    0.5303    4.5975 H         1 <0>         0.1208
     33 H8          0.3358    0.6057    5.8202 H         1 <0>         0.0848
     34 H9          2.3394   -0.6499    8.2816 H         1 <0>         0.1317
     35 H10         3.8277    0.9792    7.2696 H         1 <0>         0.1330
     36 H11         3.7488   -0.7584    4.6663 H         1 <0>         0.1359
     37 H12         3.8107    2.3140    5.1505 H         1 <0>         0.1400
     38 H13         3.3231    3.3984    3.0594 H         1 <0>         0.1306
     39 H14         4.8834    3.1234    2.2130 H         1 <0>         0.1180
     40 H15         1.3224    1.6044   -2.1361 H         1 <0>         0.1523
     41 H16         4.6857    3.1414   -2.4365 H         1 <0>         0.4408
     42 H17        -0.5154    0.7287   -0.9418 H         1 <0>         0.4449
@<TRIPOS>BOND
     1    1    2 1
     2    1   29 1
     3    1   30 1
     4    1   31 1
     5    2    3 1
     6    2   28 1
     7    2    4 1
     8    4    5 1
     9    4   32 1
    10    4   33 1
    11    5    6 1
    12    5    9 1
    13    5    7 1
    14    7    8 1
    15    7    9 1
    16    7   10 1
    17   10   11 2
    18   10   34 1
    19   11   12 1
    20   11   35 1
    21   12   13 2
    22   12   36 1
    23   13   14 1
    24   13   37 1
    25   14   15 2
    26   14   16 1
    27   16   17 1
    28   16   38 1
    29   16   39 1
    30   17   22 ar
    31   17   18 ar
    32   18   19 ar
    33   18   26 1
    34   19   20 ar
    35   19   25 1
    36   20   21 ar
    37   20   40 1
    38   21   22 ar
    39   21   24 1
    40   22   23 1
    41   24   41 1
    42   25   42 1
    43   26   27 2
    44   26   28 1
@<TRIPOS>MOLECULE
ZINC13515668
   41    43     0     0     0
SMALL
USER_CHARGES
chloro-dihydroxy-methyl-BLAHdione
@<TRIPOS>ATOM
      1 C1         -1.3916    1.2428    4.1873 C.3       1 <0>        -0.1730
      2 C2         -0.3366    0.2031    3.8030 C.3       1 <0>         0.1038
      3 H1         -0.8017   -0.7738    3.6047 H         1 <0>         0.1053
      4 C3          0.7005    0.0808    4.9249 C.3       1 <0>        -0.1871
      5 C4          0.9246   -1.3926    5.2565 C.3       1 <0>        -0.0013
      6 H2          0.7945   -1.7033    4.2093 H         1 <0>         0.1589
      7 C5          1.8742   -1.7631    6.3906 C.3       1 <0>         0.0154
      8 H3          2.7381   -2.4364    6.4921 H         1 <0>         0.1629
      9 O1          0.4550   -1.8843    6.5142 O.3       1 <0>        -0.3191
     10 C6          2.5430   -0.6874    7.2013 C.2       1 <0>        -0.1563
     11 C7          3.3594    0.2015    6.6484 C.2       1 <0>        -0.1216
     12 C8          3.6645    0.1861    5.2238 C.2       1 <0>        -0.0565
     13 C9          3.8462    1.3720    4.5837 C.2       1 <0>        -0.2003
     14 C10         4.0794    1.3957    3.1983 C.2       1 <0>         0.3909
     15 O2          4.3970    0.3852    2.6072 O.2       1 <0>        -0.4541
     16 C11         3.8980    2.6919    2.4427 C.3       1 <0>        -0.1383
     17 C12         3.1538    2.4012    1.1652 C.ar      1 <0>         0.0680
     18 C13         1.8744    1.8349    1.2021 C.ar      1 <0>        -0.2919
     19 C14         1.2213    1.5318   -0.0014 C.ar      1 <0>         0.2513
     20 C15         1.8308    1.8249   -1.2090 C.ar      1 <0>        -0.3684
     21 C16         3.0918    2.3991   -1.2310 C.ar      1 <0>         0.3296
     22 C17         3.7525    2.6836   -0.0395 C.ar      1 <0>        -0.1818
     23 Cl1         5.3347    3.3980   -0.0790 Cl        1 <0>        -0.0950
     24 O3          3.6848    2.6856   -2.4177 O.3       1 <0>        -0.6768
     25 O4         -0.0110    0.9628    0.0073 O.3       1 <0>        -0.4995
     26 C18         1.2111    1.5345    2.4826 C.2       1 <0>         0.5363
     27 O5          1.4831    2.2084    3.4592 O.2       1 <0>        -0.5412
     28 O6          0.2919    0.5683    2.5572 O.3       1 <0>        -0.3443
     29 H4         -1.8628    0.9529    5.1380 H         1 <0>         0.0676
     30 H5         -2.1576    1.2963    3.3997 H         1 <0>         0.0645
     31 H6         -0.9127    2.2266    4.3004 H         1 <0>         0.0707
     32 H7          1.6496    0.5303    4.5975 H         1 <0>         0.1263
     33 H8          0.3358    0.6057    5.8202 H         1 <0>         0.0771
     34 H9          2.3394   -0.6499    8.2816 H         1 <0>         0.1256
     35 H10         3.8277    0.9792    7.2696 H         1 <0>         0.1278
     36 H11         3.7488   -0.7584    4.6663 H         1 <0>         0.1341
     37 H12         3.8107    2.3140    5.1505 H         1 <0>         0.1350
     38 H13         3.3231    3.3984    3.0594 H         1 <0>         0.1132
     39 H14         4.8834    3.1234    2.2130 H         1 <0>         0.1076
     40 H15         1.3224    1.6044   -2.1361 H         1 <0>         0.1145
     41 H16        -0.5154    0.7287   -0.9418 H         1 <0>         0.4203
@<TRIPOS>BOND
     1    1    2 1
     2    1   29 1
     3    1   30 1
     4    1   31 1
     5    2    3 1
     6    2   28 1
     7    2    4 1
     8    4    5 1
     9    4   32 1
    10    4   33 1
    11    5    6 1
    12    5    9 1
    13    5    7 1
    14    7    8 1
    15    7    9 1
    16    7   10 1
    17   10   11 2
    18   10   34 1
    19   11   12 1
    20   11   35 1
    21   12   13 2
    22   12   36 1
    23   13   14 1
    24   13   37 1
    25   14   15 2
    26   14   16 1
    27   16   17 1
    28   16   38 1
    29   16   39 1
    30   17   22 ar
    31   17   18 ar
    32   18   19 ar
    33   18   26 1
    34   19   20 ar
    35   19   25 1
    36   20   21 ar
    37   20   40 1
    38   21   22 ar
    39   21   24 1
    40   22   23 1
    41   25   41 1
    42   26   27 2
    43   26   28 1
@<TRIPOS>MOLECULE
ZINC13515668
   41    43     0     0     0
SMALL
USER_CHARGES
chloro-dihydroxy-methyl-BLAHdione
@<TRIPOS>ATOM
      1 C1         -1.3916    1.2428    4.1873 C.3       1 <0>        -0.1714
      2 C2         -0.3366    0.2031    3.8030 C.3       1 <0>         0.0991
      3 H1         -0.8017   -0.7738    3.6047 H         1 <0>         0.1045
      4 C3          0.7005    0.0808    4.9249 C.3       1 <0>        -0.1851
      5 C4          0.9246   -1.3926    5.2565 C.3       1 <0>        -0.0012
      6 H2          0.7945   -1.7033    4.2093 H         1 <0>         0.1611
      7 C5          1.8742   -1.7631    6.3906 C.3       1 <0>         0.0133
      8 H3          2.7381   -2.4364    6.4921 H         1 <0>         0.1616
      9 O1          0.4550   -1.8843    6.5142 O.3       1 <0>        -0.3191
     10 C6          2.5430   -0.6874    7.2013 C.2       1 <0>        -0.1532
     11 C7          3.3594    0.2015    6.6484 C.2       1 <0>        -0.1240
     12 C8          3.6645    0.1861    5.2238 C.2       1 <0>        -0.0526
     13 C9          3.8462    1.3720    4.5837 C.2       1 <0>        -0.2030
     14 C10         4.0794    1.3957    3.1983 C.2       1 <0>         0.3929
     15 O2          4.3970    0.3852    2.6072 O.2       1 <0>        -0.4560
     16 C11         3.8980    2.6919    2.4427 C.3       1 <0>        -0.1395
     17 C12         3.1538    2.4012    1.1652 C.ar      1 <0>         0.0851
     18 C13         1.8744    1.8349    1.2021 C.ar      1 <0>        -0.3040
     19 C14         1.2213    1.5318   -0.0014 C.ar      1 <0>         0.3383
     20 C15         1.8308    1.8249   -1.2090 C.ar      1 <0>        -0.2936
     21 C16         3.0918    2.3991   -1.2310 C.ar      1 <0>         0.2267
     22 C17         3.7525    2.6836   -0.0395 C.ar      1 <0>        -0.2425
     23 Cl1         5.3347    3.3980   -0.0790 Cl        1 <0>        -0.1021
     24 O3          3.6848    2.6856   -2.4177 O.3       1 <0>        -0.5085
     25 O4         -0.0110    0.9628    0.0073 O.3       1 <0>        -0.6665
     26 C18         1.2111    1.5345    2.4826 C.2       1 <0>         0.5440
     27 O5          1.4831    2.2084    3.4592 O.2       1 <0>        -0.5538
     28 O6          0.2919    0.5683    2.5572 O.3       1 <0>        -0.3226
     29 H4         -1.8628    0.9529    5.1380 H         1 <0>         0.0650
     30 H5         -2.1576    1.2963    3.3997 H         1 <0>         0.0664
     31 H6         -0.9127    2.2266    4.3004 H         1 <0>         0.0690
     32 H7          1.6496    0.5303    4.5975 H         1 <0>         0.1249
     33 H8          0.3358    0.6057    5.8202 H         1 <0>         0.0757
     34 H9          2.3394   -0.6499    8.2816 H         1 <0>         0.1252
     35 H10         3.8277    0.9792    7.2696 H         1 <0>         0.1274
     36 H11         3.7488   -0.7584    4.6663 H         1 <0>         0.1341
     37 H12         3.8107    2.3140    5.1505 H         1 <0>         0.1345
     38 H13         3.3231    3.3984    3.0594 H         1 <0>         0.1149
     39 H14         4.8834    3.1234    2.2130 H         1 <0>         0.1035
     40 H15         1.3224    1.6044   -2.1361 H         1 <0>         0.1180
     41 H16         4.6857    3.1414   -2.4365 H         1 <0>         0.4136
@<TRIPOS>BOND
     1    1    2 1
     2    1   29 1
     3    1   30 1
     4    1   31 1
     5    2    3 1
     6    2   28 1
     7    2    4 1
     8    4    5 1
     9    4   32 1
    10    4   33 1
    11    5    6 1
    12    5    9 1
    13    5    7 1
    14    7    8 1
    15    7    9 1
    16    7   10 1
    17   10   11 2
    18   10   34 1
    19   11   12 1
    20   11   35 1
    21   12   13 2
    22   12   36 1
    23   13   14 1
    24   13   37 1
    25   14   15 2
    26   14   16 1
    27   16   17 1
    28   16   38 1
    29   16   39 1
    30   17   22 ar
    31   17   18 ar
    32   18   19 ar
    33   18   26 1
    34   19   20 ar
    35   19   25 1
    36   20   21 ar
    37   20   40 1
    38   21   22 ar
    39   21   24 1
    40   22   23 1
    41   24   41 1
    42   26   27 2
    43   26   28 1
