@<TRIPOS>MOLECULE
ZINC19795938
   70    74     0     0     0
SMALL
USER_CHARGES

@<TRIPOS>ATOM
      1 C1        -12.4049    2.0278   -1.3259 C.3       1 <0>        -0.1088
      2 C2        -11.2432    1.0883   -1.5171 C.2       1 <0>        -0.0614
      3 C3        -11.3743    0.0410   -2.3725 C.2       1 <0>         0.0009
      4 C4        -10.2845   -0.8306   -2.5916 C.2       1 <0>         0.3824
      5 O1        -10.4174   -1.8053   -3.3180 O.2       1 <0>        -0.4987
      6 C5         -9.0435   -0.5717   -1.9793 C.2       1 <0>        -0.2558
      7 C6         -8.9124    0.4583   -1.1031 C.2       1 <0>         0.0326
      8 C7        -10.0350    1.2666   -0.8004 C.2       1 <0>        -0.1225
      9 C8         -9.9415    2.2203    0.2157 C.2       1 <0>         0.0273
     10 C9         -8.7707    2.3245    0.9779 C.2       1 <0>        -0.2062
     11 C10        -7.6609    1.6271    0.7055 C.2       1 <0>         0.0258
     12 C11        -7.5604    0.7314   -0.4931 C.3       1 <0>        -0.0014
     13 C12        -6.8770   -0.5893   -0.1596 C.3       1 <0>        -0.0977
     14 C13        -5.6736   -0.4130    0.7612 C.3       1 <0>        -0.1173
     15 C14        -6.0604    0.3382    2.0406 C.3       1 <0>        -0.0201
     16 C15        -6.4828    1.7587    1.6492 C.3       1 <0>        -0.0218
     17 C16        -6.8890    2.5162    2.9124 C.3       1 <0>        -0.1075
     18 C17        -5.6835    2.6488    3.8346 C.3       1 <0>        -0.1050
     19 C18        -5.0880    1.2946    4.2117 C.3       1 <0>        -0.0395
     20 C19        -4.9108    0.3649    3.0296 C.3       1 <0>        -0.0371
     21 H1         -4.0361    0.7925    2.4575 H         1 <0>         0.0426
     22 C20        -4.4489   -1.0242    3.4190 C.3       1 <0>        -0.0956
     23 C21        -4.8581   -1.5886    4.7588 C.3       1 <0>        -0.1169
     24 C22        -5.2365   -0.5960    5.8400 C.3       1 <0>        -0.0949
     25 C23        -5.9152    0.6562    5.3186 C.3       1 <0>        -0.0984
     26 C24        -3.6448   -2.3985    5.2939 C.3       1 <0>        -0.1274
     27 C25        -5.9768   -2.5991    4.5823 C.2       1 <0>         0.5064
     28 O2         -6.6860   -2.8949    5.5289 O.co2     1 <0>        -0.6987
     29 O3         -6.1663   -3.1149    3.4940 O.co2     1 <0>        -0.6900
     30 C26        -3.6836    1.5948    4.7871 C.3       1 <0>        -0.1442
     31 C27        -5.3389    2.5220    0.9798 C.3       1 <0>        -0.1477
     32 C28        -7.2810   -0.3781    2.6374 C.3       1 <0>        -0.1633
     33 C29        -6.7499    1.4270   -1.5938 C.3       1 <0>        -0.1367
     34 O4        -12.5602   -0.1646   -3.0110 O.3       1 <0>        -0.4690
     35 H2        -12.3257    2.8524   -2.0343 H         1 <0>         0.0720
     36 H3        -13.3381    1.4909   -1.4960 H         1 <0>         0.0757
     37 H4        -12.3915    2.4199   -0.3089 H         1 <0>         0.0658
     38 H5         -8.1912   -1.1918   -2.2233 H         1 <0>         0.1409
     39 H6        -10.7573    2.8893    0.4364 H         1 <0>         0.1359
     40 H7         -8.7763    3.0047    1.8178 H         1 <0>         0.1353
     41 H8         -7.5909   -1.2970    0.2548 H         1 <0>         0.0798
     42 H9         -6.5118   -1.0292   -1.1054 H         1 <0>         0.0656
     43 H10        -5.3126   -1.4097    1.0483 H         1 <0>         0.0839
     44 H11        -4.8605    0.0892    0.2484 H         1 <0>         0.0603
     45 H12        -7.2256    3.5215    2.6221 H         1 <0>         0.0565
     46 H13        -7.7078    2.0245    3.4236 H         1 <0>         0.0721
     47 H14        -4.9232    3.2907    3.3971 H         1 <0>         0.0620
     48 H15        -6.0169    3.1378    4.7667 H         1 <0>         0.0538
     49 H16        -4.7822   -1.7341    2.6379 H         1 <0>         0.0861
     50 H17        -3.3426   -1.0520    3.3465 H         1 <0>         0.0301
     51 H18        -5.9404   -1.0980    6.5343 H         1 <0>         0.0703
     52 H19        -4.3561   -0.3356    6.4406 H         1 <0>         0.0401
     53 H20        -5.9808    1.3833    6.1492 H         1 <0>         0.0405
     54 H21        -6.9309    0.4562    4.9983 H         1 <0>         0.0696
     55 H22        -2.7845   -1.7375    5.3988 H         1 <0>         0.0366
     56 H23        -3.8940   -2.8275    6.2645 H         1 <0>         0.0463
     57 H24        -3.4049   -3.1988    4.5938 H         1 <0>         0.0445
     58 H25        -3.7791    2.2408    5.6599 H         1 <0>         0.0470
     59 H26        -3.2026    0.6608    5.0773 H         1 <0>         0.0614
     60 H27        -3.0798    2.0945    4.0296 H         1 <0>         0.0447
     61 H28        -5.6342    3.5603    0.8289 H         1 <0>         0.0537
     62 H29        -4.4552    2.4845    1.6168 H         1 <0>         0.0701
     63 H30        -5.1120    2.0652    0.0165 H         1 <0>         0.0656
     64 H31        -7.1809   -1.4531    2.4869 H         1 <0>         0.0918
     65 H32        -7.3416   -0.1648    3.7046 H         1 <0>         0.0660
     66 H33        -8.1866   -0.0250    2.1442 H         1 <0>         0.0360
     67 H34        -7.1355    2.4349   -1.7470 H         1 <0>         0.0595
     68 H35        -5.7028    1.4799   -1.2956 H         1 <0>         0.0779
     69 H36        -6.8354    0.8604   -2.5211 H         1 <0>         0.0692
     70 H37       -12.5622   -0.9319   -3.5995 H         1 <0>         0.3991
@<TRIPOS>BOND
     1    1    2 1
     2    1   35 1
     3    1   36 1
     4    1   37 1
     5    2    8 1
     6    2    3 2
     7    3    4 1
     8    3   34 1
     9    4    5 2
    10    4    6 1
    11    6    7 2
    12    6   38 1
    13    7   12 1
    14    7    8 1
    15    8    9 2
    16    9   10 1
    17    9   39 1
    18   10   11 2
    19   10   40 1
    20   11   16 1
    21   11   12 1
    22   12   13 1
    23   12   33 1
    24   13   14 1
    25   13   41 1
    26   13   42 1
    27   14   15 1
    28   14   43 1
    29   14   44 1
    30   15   20 1
    31   15   16 1
    32   15   32 1
    33   16   17 1
    34   16   31 1
    35   17   18 1
    36   17   45 1
    37   17   46 1
    38   18   19 1
    39   18   47 1
    40   18   48 1
    41   19   25 1
    42   19   20 1
    43   19   30 1
    44   20   21 1
    45   20   22 1
    46   22   23 1
    47   22   49 1
    48   22   50 1
    49   23   24 1
    50   23   26 1
    51   23   27 1
    52   24   25 1
    53   24   51 1
    54   24   52 1
    55   25   53 1
    56   25   54 1
    57   26   55 1
    58   26   56 1
    59   26   57 1
    60   27   28 2
    61   27   29 1
    62   30   58 1
    63   30   59 1
    64   30   60 1
    65   31   61 1
    66   31   62 1
    67   31   63 1
    68   32   64 1
    69   32   65 1
    70   32   66 1
    71   33   67 1
    72   33   68 1
    73   33   69 1
    74   34   70 1
@<TRIPOS>MOLECULE
ZINC00487462
   31    33     0     0     0
SMALL
USER_CHARGES

@<TRIPOS>ATOM
      1 C1         -0.0187    1.5258    0.0104 C.3       1 <0>        -0.1706
      2 C2          0.0021   -0.0041    0.0020 C.3       1 <0>         0.1063
      3 N1          0.7106   -0.4894    1.1889 N.pl3     1 <0>        -0.2394
      4 C3          0.0344   -0.7401    2.3412 C.2       1 <0>         0.3675
      5 N2         -1.2735   -0.5698    2.4713 N.2       1 <0>        -0.5741
      6 C4         -1.8936   -0.8281    3.6174 C.2       1 <0>         0.6762
      7 O1         -3.0987   -0.6497    3.6669 O.2       1 <0>        -0.4963
      8 N3         -1.2792   -1.2728    4.7230 N.am      1 <0>        -0.5736
      9 C5          0.0570   -1.4947    4.7437 C.2       1 <0>         0.5798
     10 O2          0.6190   -1.8980    5.7438 O.2       1 <0>        -0.4426
     11 C6          0.7994   -1.2249    3.4975 C.2       1 <0>         0.0906
     12 N4          2.0977   -1.3942    3.3708 N.2       1 <0>        -0.3324
     13 C7          2.6721   -1.1189    2.1952 C.2       1 <0>         0.3142
     14 N5          1.9849   -0.6901    1.1540 N.2       1 <0>        -0.2099
     15 C8          4.1299   -1.3091    2.0548 C.2       1 <0>        -0.1342
     16 C9          5.0362   -1.7505    2.9826 C.2       1 <0>        -0.0812
     17 C10         6.3605   -1.8483    2.6197 C.2       1 <0>        -0.1679
     18 C11         6.7281   -1.5056    1.3576 C.2       1 <0>        -0.1501
     19 S1          5.1687   -1.0309    0.6296 S.3       1 <0>         0.1212
     20 C12        -2.0679   -1.5229    5.9319 C.3       1 <0>         0.0703
     21 H1          1.0039    1.9031    0.0027 H         1 <0>         0.0684
     22 H2         -0.5459    1.8868   -0.8726 H         1 <0>         0.0964
     23 H3         -0.5289    1.8773    0.9072 H         1 <0>         0.0710
     24 H4         -1.0205   -0.3814    0.0098 H         1 <0>         0.1294
     25 H5          0.5123   -0.3556   -0.8948 H         1 <0>         0.1187
     26 H6          4.7178   -2.0164    3.9797 H         1 <0>         0.1495
     27 H7          7.0980   -2.1928    3.3296 H         1 <0>         0.1462
     28 H8          7.7104   -1.5204    0.9088 H         1 <0>         0.1958
     29 H9         -3.1153   -1.2926    5.7366 H         1 <0>         0.1086
     30 H10        -1.9734   -2.5707    6.2171 H         1 <0>         0.0811
     31 H11        -1.7020   -0.8916    6.7416 H         1 <0>         0.0811
@<TRIPOS>BOND
     1    1    2 1
     2    1   21 1
     3    1   22 1
     4    1   23 1
     5    2    3 1
     6    2   24 1
     7    2   25 1
     8    3   14 1
     9    3    4 1
    10    4   11 1
    11    4    5 2
    12    5    6 1
    13    6    7 2
    14    6    8 am
    15    8    9 am
    16    8   20 1
    17    9   10 2
    18    9   11 1
    19   11   12 2
    20   12   13 1
    21   13   14 2
    22   13   15 1
    23   15   19 1
    24   15   16 2
    25   16   17 1
    26   16   26 1
    27   17   18 2
    28   17   27 1
    29   18   19 1
    30   18   28 1
    31   20   29 1
    32   20   30 1
    33   20   31 1
