@<TRIPOS>MOLECULE
ZINC14974435
   79    80     0     0     0
SMALL
USER_CHARGES

@<TRIPOS>ATOM
      1 C1         -0.2239    0.7132    1.7044 C.3       1 <0>        -0.1402
      2 C2         -0.3398   -0.7147    1.1649 C.3       1 <0>        -0.0739
      3 H1         -1.3438   -0.8719    0.7782 H         1 <0>         0.0859
      4 C3          0.6899   -0.9346    0.0563 C.3       1 <0>        -0.1308
      5 C4          0.1076   -0.6374   -1.3236 C.3       1 <0>         0.1076
      6 H2          0.9219   -0.6819   -2.0549 H         1 <0>         0.0568
      7 C5         -0.9532   -1.6700   -1.6939 C.3       1 <0>         0.1155
      8 H3         -1.7173   -1.7118   -0.9176 H         1 <0>         0.0818
      9 C6         -1.6179   -1.3140   -3.0281 C.3       1 <0>        -0.0868
     10 H4         -1.4228   -0.2770   -3.2701 H         1 <0>         0.0910
     11 C7         -3.0912   -1.6024   -2.9366 C.2       1 <0>        -0.1195
     12 C8         -4.0302   -0.7074   -3.0596 C.2       1 <0>        -0.1287
     13 C9         -5.4789   -1.1327   -2.9283 C.3       1 <0>         0.1222
     14 H5         -5.6526   -1.9792   -3.5893 H         1 <0>         0.0958
     15 C10        -5.7498   -1.5520   -1.4848 C.3       1 <0>         0.1229
     16 H6         -5.8198   -2.6377   -1.4378 H         1 <0>         0.1201
     17 C11        -7.0330   -0.9452   -0.9747 C.2       1 <0>        -0.1720
     18 C12        -7.2785   -0.9105    0.3436 C.2       1 <0>        -0.0997
     19 C13        -6.3624   -1.4825    1.2460 C.2       1 <0>        -0.0683
     20 C14        -6.1110   -1.0200    2.4930 C.2       1 <0>        -0.1355
     21 C15        -5.1050   -1.7106    3.2727 C.2       1 <0>         0.5213
     22 O1         -4.7790   -2.8209    2.8577 O.2       1 <0>        -0.5299
     23 N1         -4.5309   -1.2822    4.3865 N.2       1 <0>        -0.6046
     24 C16        -3.2260   -1.1751    4.5052 C.2       1 <0>         0.2799
     25 C17        -2.6262   -0.7586    5.7202 C.2       1 <0>        -0.3844
     26 C18        -1.2765   -0.6372    5.8113 C.2       1 <0>         0.2957
     27 O2         -0.7213   -0.2142    6.9727 O.3       1 <0>        -0.6471
     28 C19        -0.4037   -0.9541    4.6685 C.2       1 <0>         0.1511
     29 C20        -0.9341   -1.3654    3.4941 C.2       1 <0>        -0.2139
     30 C21        -0.0743   -1.7046    2.3018 C.3       1 <0>        -0.0540
     31 C22        -2.3402   -1.4984    3.3488 C.2       1 <0>         0.3752
     32 O3         -2.7948   -1.8611    2.2836 O.2       1 <0>        -0.3990
     33 O4          0.9374   -0.8415    4.8117 O.3       1 <0>        -0.3264
     34 C23         1.5688   -1.7334    5.7325 C.3       1 <0>         0.0384
     35 C24        -6.8436    0.1698    3.0458 C.3       1 <0>        -0.1095
     36 O5         -4.6540   -1.1198   -0.6701 O.3       1 <0>        -0.3393
     37 C25        -4.6649    0.2785   -0.3754 C.3       1 <0>         0.0250
     38 O6         -6.3204   -0.0442   -3.2972 O.3       1 <0>        -0.3455
     39 C26        -6.6733    0.0436   -4.5935 C.2       1 <0>         0.6470
     40 O7         -6.2753   -0.7842   -5.3889 O.2       1 <0>        -0.5704
     41 N2         -7.4679    1.0498   -5.0089 N.am      1 <0>        -0.8288
     42 C27        -3.7237    0.7447   -3.3208 C.3       1 <0>        -0.1129
     43 C28        -1.0115   -2.1977   -4.1280 C.3       1 <0>        -0.1357
     44 O8         -0.3361   -2.9574   -1.8156 O.3       1 <0>        -0.5622
     45 O9         -0.4562    0.6735   -1.3447 O.3       1 <0>        -0.3682
     46 C29         0.4637    1.6956   -1.7332 C.3       1 <0>         0.0322
     47 H7          0.7817    0.8743    2.0930 H         1 <0>         0.0474
     48 H8         -0.4207    1.4225    0.9005 H         1 <0>         0.0561
     49 H9         -0.9501    0.8596    2.5040 H         1 <0>         0.0478
     50 H10         1.5531   -0.2956    0.2388 H         1 <0>         0.0596
     51 H11         1.0171   -1.9770    0.0895 H         1 <0>         0.0768
     52 H12        -3.3975   -2.6351   -2.7561 H         1 <0>         0.0997
     53 H13        -7.7627   -0.5541   -1.6568 H         1 <0>         0.1240
     54 H14        -8.1894   -0.4440    0.6965 H         1 <0>         0.1186
     55 H15        -5.8292   -2.3851    0.9268 H         1 <0>         0.1339
     56 H16        -3.2453   -0.5464    6.5756 H         1 <0>         0.1237
     57 H17        -0.3204   -2.7143    1.9639 H         1 <0>         0.0672
     58 H18         0.9759   -1.6671    2.5825 H         1 <0>         0.0705
     59 H19         1.4171   -2.7617    5.4044 H         1 <0>         0.0402
     60 H20         2.6366   -1.5185    5.7724 H         1 <0>         0.0878
     61 H21         1.1341   -1.6003    6.7232 H         1 <0>         0.0700
     62 H22        -7.7466   -0.1646    3.5565 H         1 <0>         0.0670
     63 H23        -6.2010    0.6965    3.7514 H         1 <0>         0.0730
     64 H24        -7.1145    0.8407    2.2305 H         1 <0>         0.0572
     65 H25        -3.6710    0.5899   -0.0543 H         1 <0>         0.0781
     66 H26        -4.9496    0.8357   -1.2680 H         1 <0>         0.0517
     67 H27        -5.3826    0.4764    0.4207 H         1 <0>         0.0431
     68 H28        -7.7856    1.7107   -4.3739 H         1 <0>         0.4079
     69 H29        -7.7222    1.1131   -5.9429 H         1 <0>         0.4241
     70 H30        -2.6442    0.8830   -3.3810 H         1 <0>         0.0693
     71 H31        -4.1821    1.0493   -4.2616 H         1 <0>         0.0496
     72 H32        -4.1230    1.3522   -2.5086 H         1 <0>         0.0723
     73 H33        -1.1912   -3.2465   -3.8918 H         1 <0>         0.0560
     74 H34        -1.4747   -1.9562   -5.0847 H         1 <0>         0.0495
     75 H35         0.0618   -2.0176   -4.1882 H         1 <0>         0.0567
     76 H36        -0.9497   -3.6672   -2.0499 H         1 <0>         0.3800
     77 H37        -0.0413    2.6615   -1.7242 H         1 <0>         0.0840
     78 H38         1.3001    1.7164   -1.0345 H         1 <0>         0.0422
     79 H39         0.8340    1.4886   -2.7372 H         1 <0>         0.0366
@<TRIPOS>BOND
     1    1    2 1
     2    1   47 1
     3    1   48 1
     4    1   49 1
     5    2    3 1
     6    2   30 1
     7    2    4 1
     8    4    5 1
     9    4   50 1
    10    4   51 1
    11    5    6 1
    12    5    7 1
    13    5   45 1
    14    7    8 1
    15    7    9 1
    16    7   44 1
    17    9   10 1
    18    9   11 1
    19    9   43 1
    20   11   12 2
    21   11   52 1
    22   12   13 1
    23   12   42 1
    24   13   14 1
    25   13   15 1
    26   13   38 1
    27   15   16 1
    28   15   17 1
    29   15   36 1
    30   17   18 2
    31   17   53 1
    32   18   19 1
    33   18   54 1
    34   19   20 2
    35   19   55 1
    36   20   21 1
    37   20   35 1
    38   21   22 2
    39   21   23 1
    40   23   24 2
    41   24   31 1
    42   24   25 1
    43   25   26 2
    44   25   56 1
    45   26   27 1
    46   26   28 1
    47   28   29 2
    48   28   33 1
    49   29   30 1
    50   29   31 1
    51   30   57 1
    52   30   58 1
    53   31   32 2
    54   33   34 1
    55   34   59 1
    56   34   60 1
    57   34   61 1
    58   35   62 1
    59   35   63 1
    60   35   64 1
    61   36   37 1
    62   37   65 1
    63   37   66 1
    64   37   67 1
    65   38   39 1
    66   39   40 2
    67   39   41 am
    68   41   68 1
    69   41   69 1
    70   42   70 1
    71   42   71 1
    72   42   72 1
    73   43   73 1
    74   43   74 1
    75   43   75 1
    76   44   76 1
    77   45   46 1
    78   46   77 1
    79   46   78 1
    80   46   79 1
@<TRIPOS>MOLECULE
ZINC14974435
   79    80     0     0     0
SMALL
USER_CHARGES

@<TRIPOS>ATOM
      1 C1         -1.6220    0.1444   -2.6455 C.3       1 <0>        -0.1448
      2 C2         -0.6490   -0.8066   -1.9371 C.3       1 <0>        -0.0845
      3 H1         -0.6978   -1.7780   -2.4222 H         1 <0>         0.1086
      4 C3         -1.0622   -0.9329   -0.4699 C.3       1 <0>        -0.1082
      5 C4         -0.7837   -2.3347    0.0657 C.3       1 <0>         0.1006
      6 H2         -0.3800   -2.2498    1.0815 H         1 <0>         0.0536
      7 C5         -2.0726   -3.1546    0.1189 C.3       1 <0>         0.0952
      8 H3         -2.5051   -3.2207   -0.8792 H         1 <0>         0.0666
      9 C6         -1.7733   -4.5662    0.6401 C.3       1 <0>        -0.0933
     10 H4         -0.7499   -4.5873    1.0101 H         1 <0>         0.0877
     11 C7         -1.9551   -5.5601   -0.4725 C.2       1 <0>        -0.1028
     12 C8         -1.3371   -6.7091   -0.5150 C.2       1 <0>        -0.1408
     13 C9         -1.5553   -7.6234   -1.7056 C.3       1 <0>         0.1232
     14 H5         -2.6024   -7.9056   -1.7600 H         1 <0>         0.0963
     15 C10        -1.1547   -6.8647   -2.9701 C.3       1 <0>         0.1209
     16 H6         -2.0377   -6.4028   -3.4087 H         1 <0>         0.1217
     17 C11        -0.5066   -7.7806   -3.9798 C.2       1 <0>        -0.1757
     18 C12         0.0696   -7.2257   -5.0637 C.2       1 <0>        -0.0950
     19 C13        -0.0011   -5.8286   -5.2050 C.2       1 <0>        -0.0748
     20 C14         0.8796   -5.0408   -5.8657 C.2       1 <0>        -0.1261
     21 C15         0.6168   -3.6158   -5.8257 C.2       1 <0>         0.5129
     22 O1         -0.4421   -3.3003   -5.2794 O.2       1 <0>        -0.5440
     23 N1          1.3377   -2.6269   -6.3326 N.2       1 <0>        -0.6030
     24 C16         1.5561   -1.5416   -5.6189 C.2       1 <0>         0.2802
     25 C17         2.1162   -0.3783   -6.2014 C.2       1 <0>        -0.3858
     26 C18         2.1747    0.7772   -5.4900 C.2       1 <0>         0.2999
     27 O2          2.6933    1.8898   -6.0628 O.3       1 <0>        -0.6452
     28 C19         1.6896    0.8405   -4.1008 C.2       1 <0>         0.1380
     29 C20         1.2354   -0.2702   -3.4732 C.2       1 <0>        -0.2027
     30 C21         0.7646   -0.2381   -2.0418 C.3       1 <0>        -0.0423
     31 C22         1.1964   -1.5034   -4.1728 C.2       1 <0>         0.3733
     32 O3          0.9115   -2.5221   -3.5706 O.2       1 <0>        -0.3839
     33 O4          1.6936    2.0276   -3.4522 O.3       1 <0>        -0.3286
     34 C23         0.8213    3.0430   -3.9521 C.3       1 <0>         0.0408
     35 C24         2.0598   -5.6083   -6.5908 C.3       1 <0>        -0.1065
     36 O5         -0.2221   -5.8396   -2.6010 O.3       1 <0>        -0.3252
     37 C25         1.0455   -6.3360   -2.1666 C.3       1 <0>         0.0247
     38 O6         -0.7396   -8.7845   -1.5575 O.3       1 <0>        -0.3459
     39 C26        -1.2804   -9.8326   -0.9081 C.2       1 <0>         0.6462
     40 O7         -2.4150   -9.7618   -0.4790 O.2       1 <0>        -0.5709
     41 N2         -0.5633  -10.9604   -0.7339 N.am      1 <0>        -0.8294
     42 C27        -0.4136   -7.1669    0.5826 C.3       1 <0>        -0.1128
     43 C28        -2.7427   -4.8821    1.7826 C.3       1 <0>        -0.1427
     44 O8         -3.0037   -2.5226    1.0007 O.3       1 <0>        -0.5650
     45 O9          0.1766   -3.0006   -0.7534 O.3       1 <0>        -0.3258
     46 C29         1.1450   -3.7526   -0.0195 C.3       1 <0>         0.0259
     47 H7         -1.3391    0.2389   -3.6939 H         1 <0>         0.0503
     48 H8         -2.6342   -0.2540   -2.5768 H         1 <0>         0.0465
     49 H9         -1.5840    1.1241   -2.1692 H         1 <0>         0.0453
     50 H10        -0.5073   -0.2012    0.1228 H         1 <0>         0.0591
     51 H11        -2.1306   -0.7159   -0.3837 H         1 <0>         0.0758
     52 H12        -2.6421   -5.3184   -1.2811 H         1 <0>         0.1040
     53 H13        -0.5092   -8.8442   -3.8535 H         1 <0>         0.1214
     54 H14         0.5585   -7.8533   -5.7899 H         1 <0>         0.1173
     55 H15        -0.8663   -5.3226   -4.7592 H         1 <0>         0.1373
     56 H16         2.5039   -0.4183   -7.2093 H         1 <0>         0.1235
     57 H17         0.7686    0.7893   -1.6785 H         1 <0>         0.0660
     58 H18         1.4426   -0.8323   -1.4273 H         1 <0>         0.0709
     59 H19        -0.1973    2.6574   -3.9964 H         1 <0>         0.0415
     60 H20         0.8538    3.9082   -3.2900 H         1 <0>         0.0869
     61 H21         1.1419    3.3378   -4.9513 H         1 <0>         0.0661
     62 H22         1.7809   -5.8303   -7.6209 H         1 <0>         0.0664
     63 H23         2.8739   -4.8835   -6.5830 H         1 <0>         0.0693
     64 H24         2.3838   -6.5242   -6.0967 H         1 <0>         0.0559
     65 H25         1.6356   -5.5164   -1.7567 H         1 <0>         0.0792
     66 H26         0.8948   -7.0947   -1.3986 H         1 <0>         0.0496
     67 H27         1.5730   -6.7757   -3.0131 H         1 <0>         0.0335
     68 H28         0.3425  -11.0170   -1.0764 H         1 <0>         0.4078
     69 H29        -0.9529  -11.7155   -0.2660 H         1 <0>         0.4238
     70 H30        -0.3680   -6.4048    1.3605 H         1 <0>         0.0629
     71 H31        -0.7881   -8.0981    1.0078 H         1 <0>         0.0556
     72 H32         0.5838   -7.3293    0.1741 H         1 <0>         0.0690
     73 H33        -3.7672   -4.8326    1.4139 H         1 <0>         0.0536
     74 H34        -2.5416   -5.8834    2.1634 H         1 <0>         0.0542
     75 H35        -2.6093   -4.1551    2.5837 H         1 <0>         0.0667
     76 H36        -3.8465   -2.9895    1.0831 H         1 <0>         0.3758
     77 H37         1.9993   -3.9690   -0.6609 H         1 <0>         0.0790
     78 H38         1.4758   -3.1748    0.8436 H         1 <0>         0.0327
     79 H39         0.6986   -4.6877    0.3188 H         1 <0>         0.0426
@<TRIPOS>BOND
     1    1    2 1
     2    1   47 1
     3    1   48 1
     4    1   49 1
     5    2    3 1
     6    2   30 1
     7    2    4 1
     8    4    5 1
     9    4   50 1
    10    4   51 1
    11    5    6 1
    12    5    7 1
    13    5   45 1
    14    7    8 1
    15    7    9 1
    16    7   44 1
    17    9   10 1
    18    9   11 1
    19    9   43 1
    20   11   12 2
    21   11   52 1
    22   12   13 1
    23   12   42 1
    24   13   14 1
    25   13   15 1
    26   13   38 1
    27   15   16 1
    28   15   17 1
    29   15   36 1
    30   17   18 2
    31   17   53 1
    32   18   19 1
    33   18   54 1
    34   19   20 2
    35   19   55 1
    36   20   21 1
    37   20   35 1
    38   21   22 2
    39   21   23 1
    40   23   24 2
    41   24   31 1
    42   24   25 1
    43   25   26 2
    44   25   56 1
    45   26   27 1
    46   26   28 1
    47   28   29 2
    48   28   33 1
    49   29   30 1
    50   29   31 1
    51   30   57 1
    52   30   58 1
    53   31   32 2
    54   33   34 1
    55   34   59 1
    56   34   60 1
    57   34   61 1
    58   35   62 1
    59   35   63 1
    60   35   64 1
    61   36   37 1
    62   37   65 1
    63   37   66 1
    64   37   67 1
    65   38   39 1
    66   39   40 2
    67   39   41 am
    68   41   68 1
    69   41   69 1
    70   42   70 1
    71   42   71 1
    72   42   72 1
    73   43   73 1
    74   43   74 1
    75   43   75 1
    76   44   76 1
    77   45   46 1
    78   46   77 1
    79   46   78 1
    80   46   79 1
