@<TRIPOS>MOLECULE
ZINC48926256
   41    42     0     0     0
SMALL
USER_CHARGES

@<TRIPOS>ATOM
      1 C1         -0.0035    1.5368   -0.0095 C.3       1 <0>        -0.1391
      2 C2          0.0160    0.0069   -0.0102 C.3       1 <0>        -0.1440
      3 C3          0.7141   -0.4860   -1.2515 C.2       1 <0>         0.5134
      4 O1          1.1529    0.3082   -2.0563 O.2       1 <0>        -0.5370
      5 N1          0.8509   -1.8093   -1.4673 N.am      1 <0>        -0.6183
      6 C4          0.3192   -2.7836   -0.5046 C.3       1 <0>         0.1110
      7 C5          1.4435   -3.7434   -0.1026 C.3       1 <0>        -0.1437
      8 C6          2.0488   -4.3694   -1.3611 C.3       1 <0>         0.1638
      9 C7          2.6447   -3.2701   -2.2436 C.3       1 <0>        -0.1444
     10 C8          1.5291   -2.3051   -2.6727 C.3       1 <0>         0.1133
     11 N2          3.1023   -5.3128   -0.9786 N.am      1 <0>        -0.7382
     12 C9          3.4290   -6.3284   -1.8023 C.2       1 <0>         0.7047
     13 O2          2.8493   -6.4615   -2.8628 O.2       1 <0>        -0.5692
     14 N3          4.3981   -7.1964   -1.4504 N.am      1 <0>        -0.6870
     15 C10         4.6713   -8.3056   -2.2588 C.ar      1 <0>         0.1594
     16 C11         5.0454   -9.5119   -1.6816 C.ar      1 <0>        -0.1477
     17 C12         5.3139  -10.6049   -2.4821 C.ar      1 <0>        -0.1018
     18 C13         5.2104  -10.4989   -3.8569 C.ar      1 <0>        -0.1356
     19 C14         4.8386   -9.2989   -4.4348 C.ar      1 <0>        -0.1021
     20 C15         4.5632   -8.2038   -3.6395 C.ar      1 <0>        -0.1195
     21 H1          1.0194    1.9131   -0.0247 H         1 <0>         0.0615
     22 H2         -0.5352    1.8938   -0.8914 H         1 <0>         0.0622
     23 H3         -0.5084    1.8932    0.8883 H         1 <0>         0.0624
     24 H4          0.5477   -0.3502    0.8717 H         1 <0>         0.0928
     25 H5         -1.0069   -0.3695    0.0050 H         1 <0>         0.0936
     26 H6         -0.0486   -2.2613    0.3785 H         1 <0>         0.0941
     27 H7         -0.4938   -3.3454   -0.9645 H         1 <0>         0.0764
     28 H8          2.2147   -3.1944    0.4377 H         1 <0>         0.0753
     29 H9          1.0401   -4.5289    0.5365 H         1 <0>         0.0859
     30 H10         1.2718   -4.8975   -1.9138 H         1 <0>         0.0941
     31 H11         3.4046   -2.7256   -1.6832 H         1 <0>         0.0689
     32 H12         3.0962   -3.7188   -3.1284 H         1 <0>         0.0826
     33 H13         0.8127   -2.8286   -3.3058 H         1 <0>         0.0722
     34 H14         1.9598   -1.4669   -3.2205 H         1 <0>         0.0970
     35 H15         3.5647   -5.2066   -0.1326 H         1 <0>         0.3976
     36 H16         4.9063   -7.0522   -0.6368 H         1 <0>         0.4066
     37 H17         5.1267   -9.5953   -0.6079 H         1 <0>         0.1238
     38 H18         5.6052  -11.5433   -2.0338 H         1 <0>         0.1260
     39 H19         5.4209  -11.3550   -4.4808 H         1 <0>         0.1232
     40 H20         4.7590   -9.2192   -5.5089 H         1 <0>         0.1255
     41 H21         4.2682   -7.2682   -4.0911 H         1 <0>         0.1401
@<TRIPOS>BOND
     1    1    2 1
     2    1   21 1
     3    1   22 1
     4    1   23 1
     5    2    3 1
     6    2   24 1
     7    2   25 1
     8    3    4 2
     9    3    5 am
    10    5   10 1
    11    5    6 1
    12    6    7 1
    13    6   26 1
    14    6   27 1
    15    7    8 1
    16    7   28 1
    17    7   29 1
    18    8    9 1
    19    8   11 1
    20    8   30 1
    21    9   10 1
    22    9   31 1
    23    9   32 1
    24   10   33 1
    25   10   34 1
    26   11   12 am
    27   11   35 1
    28   12   13 2
    29   12   14 am
    30   14   15 1
    31   14   36 1
    32   15   20 ar
    33   15   16 ar
    34   16   17 ar
    35   16   37 1
    36   17   18 ar
    37   17   38 1
    38   18   19 ar
    39   18   39 1
    40   19   20 ar
    41   19   40 1
    42   20   41 1
@<TRIPOS>MOLECULE
ZINC48926254
   47    48     0     0     0
SMALL
USER_CHARGES

@<TRIPOS>ATOM
      1 C1         -0.0187    1.5258    0.0104 C.3       1 <0>        -0.1389
      2 C2          0.0021   -0.0041    0.0020 C.3       1 <0>        -0.1440
      3 C3          0.7309   -0.5033    1.2229 C.2       1 <0>         0.5132
      4 O1          1.1887    0.2867    2.0212 O.2       1 <0>        -0.5376
      5 N1          0.8741   -1.8277    1.4277 N.am      1 <0>        -0.6178
      6 C4          0.3303   -2.7969    0.4666 C.3       1 <0>         0.1109
      7 C5         -0.5651   -3.7870    1.2179 C.3       1 <0>        -0.1435
      8 C6          0.2280   -4.4169    2.3652 C.3       1 <0>         0.1649
      9 C7          0.6678   -3.3251    3.3433 C.3       1 <0>        -0.1437
     10 C8          1.5821   -2.3296    2.6132 C.3       1 <0>         0.1132
     11 N2         -0.6152   -5.3889    3.0655 N.am      1 <0>        -0.7443
     12 C9         -0.0491   -6.4051    3.7463 C.2       1 <0>         0.7047
     13 O2          1.1613   -6.5152    3.7791 O.2       1 <0>        -0.5867
     14 N3         -0.8249   -7.2993    4.3906 N.am      1 <0>        -0.7435
     15 C10        -0.2096   -8.4039    5.1305 C.3       1 <0>         0.1637
     16 C11         0.0765   -9.5624    4.1729 C.3       1 <0>        -0.1291
     17 C12         0.7191  -10.7160    4.9456 C.3       1 <0>        -0.1179
     18 C13        -0.2347  -11.1871    6.0453 C.3       1 <0>        -0.1226
     19 C14        -0.5209  -10.0286    7.0029 C.3       1 <0>        -0.1164
     20 C15        -1.1634   -8.8750    6.2302 C.3       1 <0>        -0.1264
     21 H1          1.0039    1.9031    0.0027 H         1 <0>         0.0621
     22 H2         -0.5459    1.8868   -0.8726 H         1 <0>         0.0622
     23 H3         -0.5289    1.8773    0.9072 H         1 <0>         0.0615
     24 H4         -1.0205   -0.3814    0.0098 H         1 <0>         0.0927
     25 H5          0.5123   -0.3556   -0.8948 H         1 <0>         0.0935
     26 H6         -0.2566   -2.2732   -0.2880 H         1 <0>         0.0933
     27 H7          1.1485   -3.3348   -0.0123 H         1 <0>         0.0759
     28 H8         -1.4313   -3.2615    1.6200 H         1 <0>         0.0743
     29 H9         -0.8979   -4.5678    0.5340 H         1 <0>         0.0850
     30 H10         1.1074   -4.9213    1.9647 H         1 <0>         0.0917
     31 H11        -0.2100   -2.8039    3.7254 H         1 <0>         0.0676
     32 H12         1.2125   -3.7771    4.1722 H         1 <0>         0.0820
     33 H13         2.5002   -2.8303    2.3058 H         1 <0>         0.0716
     34 H14         1.8213   -1.4976    3.2755 H         1 <0>         0.0963
     35 H15        -1.5808   -5.3011    3.0393 H         1 <0>         0.3951
     36 H16        -1.7905   -7.2115    4.3644 H         1 <0>         0.3945
     37 H17         0.7238   -8.0649    5.5798 H         1 <0>         0.0882
     38 H18        -0.8569   -9.9014    3.7236 H         1 <0>         0.0616
     39 H19         0.7560   -9.2268    3.3895 H         1 <0>         0.0673
     40 H20         0.9229  -11.5413    4.2634 H         1 <0>         0.0649
     41 H21         1.6525  -10.3770    5.3950 H         1 <0>         0.0649
     42 H22        -1.1682  -11.5261    5.5960 H         1 <0>         0.0624
     43 H23         0.2230  -12.0089    6.5958 H         1 <0>         0.0645
     44 H24        -1.2004  -10.3642    7.7863 H         1 <0>         0.0677
     45 H25         0.4126   -9.6896    7.4522 H         1 <0>         0.0659
     46 H26        -1.3673   -8.0497    6.9124 H         1 <0>         0.0681
     47 H27        -2.0969   -9.2140    5.7808 H         1 <0>         0.0672
@<TRIPOS>BOND
     1    1    2 1
     2    1   21 1
     3    1   22 1
     4    1   23 1
     5    2    3 1
     6    2   24 1
     7    2   25 1
     8    3    4 2
     9    3    5 am
    10    5   10 1
    11    5    6 1
    12    6    7 1
    13    6   26 1
    14    6   27 1
    15    7    8 1
    16    7   28 1
    17    7   29 1
    18    8    9 1
    19    8   11 1
    20    8   30 1
    21    9   10 1
    22    9   31 1
    23    9   32 1
    24   10   33 1
    25   10   34 1
    26   11   12 am
    27   11   35 1
    28   12   13 2
    29   12   14 am
    30   14   15 1
    31   14   36 1
    32   15   20 1
    33   15   16 1
    34   15   37 1
    35   16   17 1
    36   16   38 1
    37   16   39 1
    38   17   18 1
    39   17   40 1
    40   17   41 1
    41   18   19 1
    42   18   42 1
    43   18   43 1
    44   19   20 1
    45   19   44 1
    46   19   45 1
    47   20   46 1
    48   20   47 1
@<TRIPOS>MOLECULE
ZINC40097054
   46    48     0     0     0
SMALL
USER_CHARGES

@<TRIPOS>ATOM
      1 C1          0.0653    1.2475   -0.5861 C.ar      1 <0>        -0.1098
      2 C2          1.2521    1.9535   -0.5854 C.ar      1 <0>        -0.1025
      3 C3          2.3814    1.4118    0.0108 C.ar      1 <0>         0.0877
      4 C4          2.3194    0.1605    0.6062 C.ar      1 <0>        -0.1695
      5 C5          1.1333   -0.5467    0.6058 C.ar      1 <0>        -0.0779
      6 C6          0.0025   -0.0047    0.0101 C.ar      1 <0>         0.1472
      7 N1         -1.2018   -0.7216    0.0101 N.am      1 <0>        -0.6851
      8 C7         -1.1865   -2.0648   -0.0990 C.2       1 <0>         0.7051
      9 O1         -0.1272   -2.6616   -0.1129 O.2       1 <0>        -0.5690
     10 N2         -2.3453   -2.7466   -0.1927 N.am      1 <0>        -0.7364
     11 C8         -2.3287   -4.2067   -0.3112 C.3       1 <0>         0.1639
     12 C9         -2.1484   -4.5969   -1.7800 C.3       1 <0>        -0.1448
     13 C10        -2.0968   -6.1236   -1.8960 C.3       1 <0>         0.1139
     14 N3         -3.2983   -6.6867   -1.2651 N.am      1 <0>        -0.6120
     15 C11        -3.6152   -6.3044    0.1177 C.3       1 <0>         0.1113
     16 C12        -3.6498   -4.7757    0.2111 C.3       1 <0>        -0.1445
     17 C13        -4.0948   -7.5373   -1.9421 C.2       1 <0>         0.5461
     18 O2         -3.8226   -7.8448   -3.0833 O.2       1 <0>        -0.5371
     19 C14        -5.3237   -8.1065   -1.2811 C.3       1 <0>        -0.2000
     20 C15        -5.3237   -9.6020   -0.9581 C.3       1 <0>        -0.1506
     21 C16        -6.1870   -9.0664   -2.1022 C.3       1 <0>        -0.1471
     22 O3          3.5497    2.1075    0.0111 O.3       1 <0>        -0.3104
     23 C17         4.6726    1.4895    0.6429 C.3       1 <0>         0.6038
     24 F1          4.9573    0.2770    0.0057 F         1 <0>        -0.1639
     25 F2          5.7829    2.3358    0.5523 F         1 <0>        -0.1307
     26 F3          4.3770    1.2505    1.9893 F         1 <0>        -0.1649
     27 H1         -0.8150    1.6713   -1.0464 H         1 <0>         0.1407
     28 H2          1.3012    2.9275   -1.0495 H         1 <0>         0.1441
     29 H3          3.1991   -0.2609    1.0700 H         1 <0>         0.1369
     30 H4          1.0854   -1.5213    1.0688 H         1 <0>         0.1516
     31 H5         -2.0464   -0.2510    0.0887 H         1 <0>         0.4089
     32 H6         -3.1904   -2.2705   -0.1816 H         1 <0>         0.3984
     33 H7         -1.5028   -4.6092    0.2752 H         1 <0>         0.0948
     34 H8         -2.9868   -4.2159   -2.3632 H         1 <0>         0.0693
     35 H9         -1.2187   -4.1717   -2.1580 H         1 <0>         0.0838
     36 H10        -2.0681   -6.4094   -2.9475 H         1 <0>         0.0974
     37 H11        -1.2078   -6.4987   -1.3889 H         1 <0>         0.0730
     38 H12        -4.5884   -6.7096    0.3949 H         1 <0>         0.0955
     39 H13        -2.8501   -6.6943    0.7891 H         1 <0>         0.0767
     40 H14        -3.7887   -4.4778    1.2504 H         1 <0>         0.0863
     41 H15        -4.4741   -4.3931   -0.3908 H         1 <0>         0.0755
     42 H16        -5.8340   -7.4409   -0.5849 H         1 <0>         0.1253
     43 H17        -4.4348  -10.1742   -1.2237 H         1 <0>         0.0999
     44 H18        -5.8339   -9.9205   -0.0491 H         1 <0>         0.1061
     45 H19        -7.2652   -9.0327   -1.9458 H         1 <0>         0.1045
     46 H20        -5.8661   -9.2863   -3.1204 H         1 <0>         0.1083
@<TRIPOS>BOND
     1    1    6 ar
     2    1    2 ar
     3    1   27 1
     4    2    3 ar
     5    2   28 1
     6    3    4 ar
     7    3   22 1
     8    4    5 ar
     9    4   29 1
    10    5    6 ar
    11    5   30 1
    12    6    7 1
    13    7    8 am
    14    7   31 1
    15    8    9 2
    16    8   10 am
    17   10   11 1
    18   10   32 1
    19   11   16 1
    20   11   12 1
    21   11   33 1
    22   12   13 1
    23   12   34 1
    24   12   35 1
    25   13   14 1
    26   13   36 1
    27   13   37 1
    28   14   15 1
    29   14   17 am
    30   15   16 1
    31   15   38 1
    32   15   39 1
    33   16   40 1
    34   16   41 1
    35   17   18 2
    36   17   19 1
    37   19   21 1
    38   19   20 1
    39   19   42 1
    40   20   21 1
    41   20   43 1
    42   20   44 1
    43   21   45 1
    44   21   46 1
    45   22   23 1
    46   23   24 1
    47   23   25 1
    48   23   26 1
@<TRIPOS>MOLECULE
ZINC36388980
   45    46     0     0     0
SMALL
USER_CHARGES

@<TRIPOS>ATOM
      1 C1         -0.0035    1.5368   -0.0095 C.3       1 <0>        -0.1392
      2 C2          0.0160    0.0069   -0.0103 C.3       1 <0>        -0.1440
      3 C3          0.7141   -0.4860   -1.2515 C.2       1 <0>         0.5135
      4 O1          1.1529    0.3082   -2.0563 O.2       1 <0>        -0.5367
      5 N1          0.8509   -1.8093   -1.4673 N.am      1 <0>        -0.6185
      6 C4          0.3192   -2.7836   -0.5046 C.3       1 <0>         0.1108
      7 C5          1.4435   -3.7434   -0.1026 C.3       1 <0>        -0.1437
      8 C6          2.0488   -4.3694   -1.3611 C.3       1 <0>         0.1634
      9 C7          2.6447   -3.2702   -2.2436 C.3       1 <0>        -0.1444
     10 C8          1.5291   -2.3051   -2.6727 C.3       1 <0>         0.1132
     11 N2          3.1023   -5.3128   -0.9786 N.am      1 <0>        -0.7365
     12 C9          3.4290   -6.3284   -1.8023 C.2       1 <0>         0.7051
     13 O2          2.8493   -6.4616   -2.8628 O.2       1 <0>        -0.5689
     14 N3          4.3981   -7.1964   -1.4504 N.am      1 <0>        -0.6852
     15 C10         4.6717   -8.3072   -2.2600 C.ar      1 <0>         0.1471
     16 C11         5.0456   -9.5127   -1.6817 C.ar      1 <0>        -0.1098
     17 C12         5.3146  -10.6071   -2.4799 C.ar      1 <0>        -0.1027
     18 C13         5.2112  -10.5020   -3.8592 C.ar      1 <0>         0.0879
     19 C14         4.8381   -9.2977   -4.4376 C.ar      1 <0>        -0.1696
     20 C15         4.5633   -8.2042   -3.6402 C.ar      1 <0>        -0.0776
     21 O3          5.4762  -11.5799   -4.6446 O.3       1 <0>        -0.3104
     22 C16         5.3499  -11.4005   -6.0567 C.3       1 <0>         0.6038
     23 F1          6.2319  -10.4007   -6.4804 F         1 <0>        -0.1648
     24 F2          5.6565  -12.5998   -6.7085 F         1 <0>        -0.1307
     25 F3          4.0375  -11.0253   -6.3635 F         1 <0>        -0.1640
     26 H1          1.0194    1.9131   -0.0248 H         1 <0>         0.0616
     27 H2         -0.5352    1.8938   -0.8914 H         1 <0>         0.0622
     28 H3         -0.5084    1.8932    0.8883 H         1 <0>         0.0625
     29 H4          0.5477   -0.3502    0.8717 H         1 <0>         0.0929
     30 H5         -1.0069   -0.3695    0.0050 H         1 <0>         0.0936
     31 H6         -0.0486   -2.2613    0.3785 H         1 <0>         0.0942
     32 H7         -0.4938   -3.3454   -0.9645 H         1 <0>         0.0765
     33 H8          2.2147   -3.1944    0.4377 H         1 <0>         0.0755
     34 H9          1.0401   -4.5289    0.5365 H         1 <0>         0.0862
     35 H10         1.2718   -4.8975   -1.9137 H         1 <0>         0.0947
     36 H11         3.4046   -2.7256   -1.6832 H         1 <0>         0.0692
     37 H12         3.0962   -3.7188   -3.1284 H         1 <0>         0.0826
     38 H13         0.8127   -2.8286   -3.3058 H         1 <0>         0.0722
     39 H14         1.9597   -1.4669   -3.2205 H         1 <0>         0.0971
     40 H15         3.5647   -5.2066   -0.1326 H         1 <0>         0.3984
     41 H16         4.9063   -7.0522   -0.6368 H         1 <0>         0.4090
     42 H17         5.1265   -9.5946   -0.6078 H         1 <0>         0.1408
     43 H18         5.6058  -11.5448   -2.0302 H         1 <0>         0.1441
     44 H19         4.7581   -9.2164   -5.5116 H         1 <0>         0.1369
     45 H20         4.2685   -7.2678   -4.0905 H         1 <0>         0.1515
@<TRIPOS>BOND
     1    1    2 1
     2    1   26 1
     3    1   27 1
     4    1   28 1
     5    2    3 1
     6    2   29 1
     7    2   30 1
     8    3    4 2
     9    3    5 am
    10    5   10 1
    11    5    6 1
    12    6    7 1
    13    6   31 1
    14    6   32 1
    15    7    8 1
    16    7   33 1
    17    7   34 1
    18    8    9 1
    19    8   11 1
    20    8   35 1
    21    9   10 1
    22    9   36 1
    23    9   37 1
    24   10   38 1
    25   10   39 1
    26   11   12 am
    27   11   40 1
    28   12   13 2
    29   12   14 am
    30   14   15 1
    31   14   41 1
    32   15   20 ar
    33   15   16 ar
    34   16   17 ar
    35   16   42 1
    36   17   18 ar
    37   17   43 1
    38   18   19 ar
    39   18   21 1
    40   19   20 ar
    41   19   44 1
    42   20   45 1
    43   21   22 1
    44   22   23 1
    45   22   24 1
    46   22   25 1
@<TRIPOS>MOLECULE
ZINC00339690
   35    36     0     0     0
SMALL
USER_CHARGES
N-cyclohexyl-2-phenyl-acetamide
@<TRIPOS>ATOM
      1 C1         -2.8167    0.3390   -8.0767 C.ar      1 <0>        -0.1194
      2 C2         -2.0968    1.4952   -7.8404 C.ar      1 <0>        -0.1188
      3 C3         -1.1995    1.5482   -6.7902 C.ar      1 <0>        -0.1059
      4 C4         -1.0217    0.4449   -5.9766 C.ar      1 <0>        -0.0690
      5 C5         -1.7374   -0.7132   -6.2164 C.ar      1 <0>        -0.1061
      6 C6         -2.6389   -0.7644   -7.2631 C.ar      1 <0>        -0.1187
      7 C7         -0.0432    0.5026   -4.8320 C.3       1 <0>        -0.1030
      8 C8         -0.7486    0.9886   -3.5921 C.2       1 <0>         0.5141
      9 O1         -1.9296    1.2613   -3.6338 O.2       1 <0>        -0.5270
     10 N1         -0.0670    1.1202   -2.4368 N.am      1 <0>        -0.7313
     11 C9         -0.7527    1.5927   -1.2315 C.3       1 <0>         0.1449
     12 C10        -0.0127    1.0858    0.0080 C.3       1 <0>        -0.1262
     13 C11        -0.7288    1.5792    1.2668 C.3       1 <0>        -0.1168
     14 C12        -0.7496    3.1091    1.2752 C.3       1 <0>        -0.1225
     15 C13        -1.4896    3.6159    0.0357 C.3       1 <0>        -0.1181
     16 C14        -0.7734    3.1225   -1.2231 C.3       1 <0>        -0.1287
     17 H1         -3.5182    0.2978   -8.8968 H         1 <0>         0.1216
     18 H2         -2.2356    2.3572   -8.4761 H         1 <0>         0.1222
     19 H3         -0.6371    2.4515   -6.6056 H         1 <0>         0.1187
     20 H4         -1.5953   -1.5766   -5.5834 H         1 <0>         0.1189
     21 H5         -3.2016   -1.6676   -7.4475 H         1 <0>         0.1222
     22 H6          0.7673    1.1876   -5.0810 H         1 <0>         0.1030
     23 H7          0.3643   -0.4922   -4.6518 H         1 <0>         0.1030
     24 H8          0.8776    0.9021   -2.4035 H         1 <0>         0.3996
     25 H9         -1.7753    1.2154   -1.2238 H         1 <0>         0.0874
     26 H10         0.0021   -0.0041    0.0020 H         1 <0>         0.0684
     27 H11         1.0099    1.4631    0.0003 H         1 <0>         0.0680
     28 H12        -1.7514    1.2020    1.2746 H         1 <0>         0.0653
     29 H13        -0.2017    1.2182    2.1499 H         1 <0>         0.0678
     30 H14         0.2730    3.4864    1.2675 H         1 <0>         0.0627
     31 H15        -1.2598    3.4606    2.1720 H         1 <0>         0.0646
     32 H16        -1.5044    4.7058    0.0417 H         1 <0>         0.0652
     33 H17        -2.5122    3.2386    0.0434 H         1 <0>         0.0644
     34 H18         0.2491    3.4998   -1.2308 H         1 <0>         0.0630
     35 H19        -1.3006    3.4836   -2.1062 H         1 <0>         0.0665
@<TRIPOS>BOND
     1    1    6 ar
     2    1    2 ar
     3    1   17 1
     4    2    3 ar
     5    2   18 1
     6    3    4 ar
     7    3   19 1
     8    4    5 ar
     9    4    7 1
    10    5    6 ar
    11    5   20 1
    12    6   21 1
    13    7    8 1
    14    7   22 1
    15    7   23 1
    16    8    9 2
    17    8   10 am
    18   10   11 1
    19   10   24 1
    20   11   16 1
    21   11   12 1
    22   11   25 1
    23   12   13 1
    24   12   26 1
    25   12   27 1
    26   13   14 1
    27   13   28 1
    28   13   29 1
    29   14   15 1
    30   14   30 1
    31   14   31 1
    32   15   16 1
    33   15   32 1
    34   15   33 1
    35   16   34 1
    36   16   35 1
@<TRIPOS>MOLECULE
ZINC00451519
   35    36     0     0     0
SMALL
USER_CHARGES
2-cyclohexyl-N-phenyl-acetamide
@<TRIPOS>ATOM
      1 C1         -2.7368    1.9764   -8.2826 C.ar      1 <0>        -0.1359
      2 C2         -1.3646    1.8656   -8.4129 C.ar      1 <0>        -0.1006
      3 C3         -0.5839    1.5964   -7.3059 C.ar      1 <0>        -0.1480
      4 C4         -1.1784    1.4364   -6.0611 C.ar      1 <0>         0.1449
      5 C5         -2.5572    1.5426   -5.9346 C.ar      1 <0>        -0.1218
      6 C6         -3.3318    1.8176   -7.0445 C.ar      1 <0>        -0.1005
      7 N1         -0.3903    1.1630   -4.9376 N.am      1 <0>        -0.6782
      8 C7         -0.7516    1.6381   -3.7293 C.2       1 <0>         0.5122
      9 O1         -1.7052    2.3810   -3.6301 O.2       1 <0>        -0.5120
     10 C8          0.0293    1.2464   -2.5013 C.3       1 <0>        -0.1374
     11 C9         -0.5844    1.9175   -1.2710 C.3       1 <0>        -0.0713
     12 C10         0.1290    1.4229   -0.0111 C.3       1 <0>        -0.1150
     13 C11        -0.4848    2.0940    1.2193 C.3       1 <0>        -0.1193
     14 C12        -0.3254    3.6114    1.1053 C.3       1 <0>        -0.1214
     15 C13        -1.0389    4.1060   -0.1546 C.3       1 <0>        -0.1179
     16 C14        -0.4251    3.4349   -1.3849 C.3       1 <0>        -0.1205
     17 H1         -3.3450    2.1877   -9.1497 H         1 <0>         0.1236
     18 H2         -0.9028    1.9902   -9.3812 H         1 <0>         0.1263
     19 H3          0.4878    1.5100   -7.4082 H         1 <0>         0.1245
     20 H4         -3.0229    1.4146   -4.9686 H         1 <0>         0.1333
     21 H5         -4.4038    1.9048   -6.9461 H         1 <0>         0.1257
     22 H6          0.4161    0.6316   -5.0285 H         1 <0>         0.4108
     23 H7          1.0651    1.5675   -2.6116 H         1 <0>         0.0965
     24 H8         -0.0043    0.1637   -2.3794 H         1 <0>         0.0979
     25 H9         -1.6435    1.6668   -1.2108 H         1 <0>         0.0791
     26 H10         0.0155    0.3419    0.0701 H         1 <0>         0.0622
     27 H11         1.1881    1.6735   -0.0713 H         1 <0>         0.0629
     28 H12        -1.5438    1.8434    1.2794 H         1 <0>         0.0620
     29 H13         0.0235    1.7417    2.1168 H         1 <0>         0.0619
     30 H14         0.7337    3.8621    1.0451 H         1 <0>         0.0602
     31 H15        -0.7627    4.0895    1.9818 H         1 <0>         0.0600
     32 H16        -0.9254    5.1870   -0.2358 H         1 <0>         0.0598
     33 H17        -2.0980    3.8554   -0.0944 H         1 <0>         0.0616
     34 H18         0.6340    3.6855   -1.4451 H         1 <0>         0.0548
     35 H19        -0.9334    3.7872   -2.2825 H         1 <0>         0.0797
@<TRIPOS>BOND
     1    1    6 ar
     2    1    2 ar
     3    1   17 1
     4    2    3 ar
     5    2   18 1
     6    3    4 ar
     7    3   19 1
     8    4    5 ar
     9    4    7 1
    10    5    6 ar
    11    5   20 1
    12    6   21 1
    13    7    8 am
    14    7   22 1
    15    8    9 2
    16    8   10 1
    17   10   11 1
    18   10   23 1
    19   10   24 1
    20   11   16 1
    21   11   12 1
    22   11   25 1
    23   12   13 1
    24   12   26 1
    25   12   27 1
    26   13   14 1
    27   13   28 1
    28   13   29 1
    29   14   15 1
    30   14   30 1
    31   14   31 1
    32   15   16 1
    33   15   32 1
    34   15   33 1
    35   16   34 1
    36   16   35 1
@<TRIPOS>MOLECULE
ZINC03102859
   35    36     0     0     0
SMALL
USER_CHARGES
2-(3-chlorophenyl)-N-cyclohexyl-acetamide
@<TRIPOS>ATOM
      1 C1          0.7647    4.1894   -7.2692 C.ar      1 <0>        -0.1045
      2 C2          1.0375    3.3342   -6.2176 C.ar      1 <0>        -0.1010
      3 C3          0.2168    2.2480   -5.9787 C.ar      1 <0>        -0.0558
      4 C4         -0.8745    2.0133   -6.7942 C.ar      1 <0>        -0.0968
      5 C5         -1.1509    2.8715   -7.8432 C.ar      1 <0>        -0.0321
      6 C6         -0.3287    3.9586   -8.0821 C.ar      1 <0>        -0.1100
      7 Cl1        -2.5247    2.5809   -8.8640 Cl        1 <0>        -0.0697
      8 C7          0.5154    1.3158   -4.8329 C.3       1 <0>        -0.1034
      9 C8         -0.1900    1.8018   -3.5930 C.2       1 <0>         0.5140
     10 O1         -0.8684    2.8062   -3.6356 O.2       1 <0>        -0.5264
     11 N1         -0.0670    1.1202   -2.4368 N.am      1 <0>        -0.7300
     12 C9         -0.7527    1.5927   -1.2315 C.3       1 <0>         0.1450
     13 C10        -0.0127    1.0858    0.0080 C.3       1 <0>        -0.1261
     14 C11        -0.7288    1.5792    1.2668 C.3       1 <0>        -0.1168
     15 C12        -2.1642    1.0497    1.2777 C.3       1 <0>        -0.1226
     16 C13        -2.9042    1.5565    0.0381 C.3       1 <0>        -0.1181
     17 C14        -2.1881    1.0631   -1.2207 C.3       1 <0>        -0.1290
     18 H1          1.4065    5.0378   -7.4556 H         1 <0>         0.1335
     19 H2          1.8923    3.5148   -5.5827 H         1 <0>         0.1269
     20 H3         -1.5133    1.1622   -6.6100 H         1 <0>         0.1305
     21 H4         -0.5413    4.6262   -8.9040 H         1 <0>         0.1336
     22 H5          1.5903    1.2927   -4.6539 H         1 <0>         0.1074
     23 H6          0.1666    0.3131   -5.0799 H         1 <0>         0.1061
     24 H7          0.4756    0.3168   -2.4028 H         1 <0>         0.4001
     25 H8         -0.7675    2.6825   -1.2255 H         1 <0>         0.0879
     26 H9          0.0021   -0.0041    0.0020 H         1 <0>         0.0681
     27 H10         1.0099    1.4631    0.0003 H         1 <0>         0.0685
     28 H11        -0.2017    1.2182    2.1499 H         1 <0>         0.0679
     29 H12        -0.7436    2.6691    1.2728 H         1 <0>         0.0653
     30 H13        -2.6744    1.4012    2.1745 H         1 <0>         0.0647
     31 H14        -2.1494   -0.0402    1.2717 H         1 <0>         0.0628
     32 H15        -2.9190    2.6464    0.0441 H         1 <0>         0.0645
     33 H16        -3.9268    1.1792    0.0459 H         1 <0>         0.0654
     34 H17        -2.7153    1.4241   -2.1037 H         1 <0>         0.0668
     35 H18        -2.1733   -0.0268   -1.2266 H         1 <0>         0.0632
@<TRIPOS>BOND
     1    1    6 ar
     2    1    2 ar
     3    1   18 1
     4    2    3 ar
     5    2   19 1
     6    3    4 ar
     7    3    8 1
     8    4    5 ar
     9    4   20 1
    10    5    6 ar
    11    5    7 1
    12    6   21 1
    13    8    9 1
    14    8   22 1
    15    8   23 1
    16    9   10 2
    17    9   11 am
    18   11   12 1
    19   11   24 1
    20   12   17 1
    21   12   13 1
    22   12   25 1
    23   13   14 1
    24   13   26 1
    25   13   27 1
    26   14   15 1
    27   14   28 1
    28   14   29 1
    29   15   16 1
    30   15   30 1
    31   15   31 1
    32   16   17 1
    33   16   32 1
    34   16   33 1
    35   17   34 1
    36   17   35 1
@<TRIPOS>MOLECULE
ZINC00395455
   38    39     0     0     0
SMALL
USER_CHARGES
1-cyclohexyl-3-(4-methoxyphenyl)urea
@<TRIPOS>ATOM
      1 C1         -4.3818   -0.6848   -9.1822 C.3       1 <0>         0.0236
      2 O1         -2.9931   -0.3823   -9.3309 O.3       1 <0>        -0.3186
      3 C2         -2.2860   -0.1523   -8.1924 C.ar      1 <0>         0.1080
      4 C3         -0.9335    0.1468   -8.2649 C.ar      1 <0>        -0.1315
      5 C4         -0.2149    0.3810   -7.1091 C.ar      1 <0>        -0.1099
      6 C5         -0.8465    0.3169   -5.8744 C.ar      1 <0>         0.1353
      7 C6         -2.1991    0.0122   -5.8022 C.ar      1 <0>        -0.0824
      8 C7         -2.9177   -0.2165   -6.9591 C.ar      1 <0>        -0.1867
      9 N1         -0.1177    0.5539   -4.7009 N.am      1 <0>        -0.6984
     10 C8         -0.7136    1.1422   -3.6448 C.2       1 <0>         0.7059
     11 O2         -1.8534    1.5545   -3.7417 O.2       1 <0>        -0.5797
     12 N2         -0.0461    1.2734   -2.4813 N.am      1 <0>        -0.7514
     13 C9         -0.6938    1.9128   -1.3333 C.3       1 <0>         0.1668
     14 C10        -0.0495    1.4110   -0.0395 C.3       1 <0>        -0.1245
     15 C11        -0.7259    2.0788    1.1594 C.3       1 <0>        -0.1173
     16 C12        -0.5568    3.5962    1.0605 C.3       1 <0>        -0.1231
     17 C13        -1.2011    4.0979   -0.2333 C.3       1 <0>        -0.1187
     18 C14        -0.5247    3.4302   -1.4322 C.3       1 <0>        -0.1294
     19 H1         -4.8298   -0.8474  -10.1736 H         1 <0>         0.1017
     20 H2         -4.8886    0.1548   -8.6840 H         1 <0>         0.0564
     21 H3         -4.4958   -1.5946   -8.5746 H         1 <0>         0.0560
     22 H4         -0.4422    0.1963   -9.2254 H         1 <0>         0.1342
     23 H5          0.8381    0.6142   -7.1656 H         1 <0>         0.1317
     24 H6         -2.6900   -0.0421   -4.8418 H         1 <0>         0.1366
     25 H7         -3.9709   -0.4492   -6.9034 H         1 <0>         0.1300
     26 H8          0.9406    0.2598   -4.6419 H         1 <0>         0.4267
     27 H9          0.9850    0.9004   -2.3937 H         1 <0>         0.4134
     28 H10        -1.7585    1.6387   -1.3675 H         1 <0>         0.0872
     29 H11        -0.1712    0.3201    0.0316 H         1 <0>         0.0687
     30 H12         1.0217    1.6610   -0.0424 H         1 <0>         0.0688
     31 H13        -1.7971    1.8287    1.1623 H         1 <0>         0.0657
     32 H14        -0.2627    1.7181    2.0896 H         1 <0>         0.0681
     33 H15        -1.0432    4.0763    1.9225 H         1 <0>         0.0646
     34 H16         0.5144    3.8464    1.0577 H         1 <0>         0.0628
     35 H17        -2.2723    3.8477   -0.2304 H         1 <0>         0.0647
     36 H18        -1.0795    5.1888   -0.3044 H         1 <0>         0.0651
     37 H19         0.5465    3.6803   -1.4351 H         1 <0>         0.0628
     38 H20        -0.9880    3.7909   -2.3624 H         1 <0>         0.0669
@<TRIPOS>BOND
     1    1    2 1
     2    1   19 1
     3    1   20 1
     4    1   21 1
     5    2    3 1
     6    3    8 ar
     7    3    4 ar
     8    4    5 ar
     9    4   22 1
    10    5    6 ar
    11    5   23 1
    12    6    7 ar
    13    6    9 1
    14    7    8 ar
    15    7   24 1
    16    8   25 1
    17    9   10 am
    18    9   26 1
    19   10   11 2
    20   10   12 am
    21   12   13 1
    22   12   27 1
    23   13   18 1
    24   13   14 1
    25   13   28 1
    26   14   15 1
    27   14   29 1
    28   14   30 1
    29   15   16 1
    30   15   31 1
    31   15   32 1
    32   16   17 1
    33   16   33 1
    34   16   34 1
    35   17   18 1
    36   17   35 1
    37   17   36 1
    38   18   37 1
    39   18   38 1
@<TRIPOS>MOLECULE
ZINC00201053
   34    35     0     0     0
SMALL
USER_CHARGES

@<TRIPOS>ATOM
      1 C1          0.0701    1.2314    0.5929 C.ar      1 <0>        -0.0871
      2 C2          1.2559    1.9401    0.5945 C.ar      1 <0>        -0.1441
      3 C3          2.3816    1.4093   -0.0210 C.ar      1 <0>         0.1758
      4 C4          2.3121    0.1666   -0.6369 C.ar      1 <0>        -0.1136
      5 C5          1.1230   -0.5379   -0.6354 C.ar      1 <0>        -0.0162
      6 C6          0.0028   -0.0054   -0.0207 C.ar      1 <0>        -0.1279
      7 Cl1         1.0341   -2.0913   -1.4053 Cl        1 <0>        -0.0644
      8 N1          3.5839    2.1254   -0.0212 N.am      1 <0>        -0.6865
      9 C7          4.7585    1.4703    0.0659 C.2       1 <0>         0.7034
     10 O1          4.7785    0.2546    0.0598 O.2       1 <0>        -0.5674
     11 N2          5.9110    2.1628    0.1597 N.am      1 <0>        -0.7365
     12 C8          7.1878    1.4507    0.2543 C.3       1 <0>         0.1625
     13 C9          7.4602    1.0839    1.7145 C.3       1 <0>        -0.1301
     14 C10         8.7936    0.3402    1.8133 C.3       1 <0>        -0.1178
     15 C11         9.9183    1.2386    1.2948 C.3       1 <0>        -0.1230
     16 C12         9.6459    1.6054   -0.1654 C.3       1 <0>        -0.1163
     17 C13         8.3125    2.3491   -0.2642 C.3       1 <0>        -0.1264
     18 H1         -0.8044    1.6422    1.0756 H         1 <0>         0.1372
     19 H2          1.3072    2.9065    1.0739 H         1 <0>         0.1315
     20 H3          3.1859   -0.2487   -1.1168 H         1 <0>         0.1520
     21 H4         -0.9255   -0.5574   -0.0206 H         1 <0>         0.1348
     22 H5          3.5719    3.0933   -0.0839 H         1 <0>         0.4093
     23 H6          5.8951    3.1326    0.1646 H         1 <0>         0.3972
     24 H7          7.1425    0.5421   -0.3462 H         1 <0>         0.0908
     25 H8          7.5055    1.9924    2.3150 H         1 <0>         0.0629
     26 H9          6.6590    0.4438    2.0839 H         1 <0>         0.0682
     27 H10         8.9877    0.0789    2.8536 H         1 <0>         0.0658
     28 H11         8.7483   -0.5684    1.2129 H         1 <0>         0.0654
     29 H12         9.9637    2.1472    1.8953 H         1 <0>         0.0627
     30 H13        10.8683    0.7088    1.3652 H         1 <0>         0.0651
     31 H14        10.4471    2.2454   -0.5348 H         1 <0>         0.0686
     32 H15         9.6006    0.6968   -0.7659 H         1 <0>         0.0663
     33 H16         8.1184    2.6104   -1.3045 H         1 <0>         0.0693
     34 H17         8.3578    3.2576    0.3362 H         1 <0>         0.0683
@<TRIPOS>BOND
     1    1    6 ar
     2    1    2 ar
     3    1   18 1
     4    2    3 ar
     5    2   19 1
     6    3    4 ar
     7    3    8 1
     8    4    5 ar
     9    4   20 1
    10    5    6 ar
    11    5    7 1
    12    6   21 1
    13    8    9 am
    14    8   22 1
    15    9   10 2
    16    9   11 am
    17   11   12 1
    18   11   23 1
    19   12   17 1
    20   12   13 1
    21   12   24 1
    22   13   14 1
    23   13   25 1
    24   13   26 1
    25   14   15 1
    26   14   27 1
    27   14   28 1
    28   15   16 1
    29   15   29 1
    30   15   30 1
    31   16   17 1
    32   16   31 1
    33   16   32 1
    34   17   33 1
    35   17   34 1
@<TRIPOS>MOLECULE
ZINC00142289
   39    40     0     0     0
SMALL
USER_CHARGES
N-cyclohexyl-2-(4-methoxyphenyl)-acetamide
@<TRIPOS>ATOM
      1 C1         -4.4103   -0.9393   -9.2956 C.3       1 <0>         0.0268
      2 O1         -3.7008    0.2872   -9.1098 O.3       1 <0>        -0.3182
      3 C2         -2.8180    0.3390   -8.0778 C.ar      1 <0>         0.1280
      4 C3         -2.0950    1.4988   -7.8396 C.ar      1 <0>        -0.1499
      5 C4         -1.1986    1.5491   -6.7897 C.ar      1 <0>        -0.0649
      6 C5         -1.0217    0.4449   -5.9766 C.ar      1 <0>        -0.1064
      7 C6         -1.7370   -0.7140   -6.2154 C.ar      1 <0>        -0.0646
      8 C7         -2.6387   -0.7676   -7.2606 C.ar      1 <0>        -0.2063
      9 C8         -0.0432    0.5026   -4.8320 C.3       1 <0>        -0.0974
     10 C9         -0.7486    0.9886   -3.5921 C.2       1 <0>         0.5127
     11 O2         -1.9296    1.2613   -3.6338 O.2       1 <0>        -0.5271
     12 N1         -0.0670    1.1202   -2.4368 N.am      1 <0>        -0.7317
     13 C10        -0.7527    1.5927   -1.2315 C.3       1 <0>         0.1450
     14 C11        -0.0127    1.0858    0.0080 C.3       1 <0>        -0.1261
     15 C12        -0.7288    1.5792    1.2668 C.3       1 <0>        -0.1168
     16 C13        -0.7496    3.1091    1.2752 C.3       1 <0>        -0.1225
     17 C14        -1.4896    3.6159    0.0357 C.3       1 <0>        -0.1181
     18 C15        -0.7734    3.1225   -1.2231 C.3       1 <0>        -0.1287
     19 H1         -4.9921   -1.1616   -8.4010 H         1 <0>         0.0559
     20 H2         -5.0799   -0.8457  -10.1505 H         1 <0>         0.1008
     21 H3         -3.7001   -1.7460   -9.4769 H         1 <0>         0.0557
     22 H4         -2.2326    2.3615   -8.4746 H         1 <0>         0.1311
     23 H5         -0.6358    2.4519   -6.6036 H         1 <0>         0.1268
     24 H6         -1.5936   -1.5768   -5.5818 H         1 <0>         0.1222
     25 H7         -3.2005   -1.6716   -7.4440 H         1 <0>         0.1281
     26 H8          0.7673    1.1876   -5.0810 H         1 <0>         0.1025
     27 H9          0.3643   -0.4922   -4.6518 H         1 <0>         0.1017
     28 H10         0.8776    0.9021   -2.4035 H         1 <0>         0.3994
     29 H11        -1.7753    1.2154   -1.2238 H         1 <0>         0.0871
     30 H12         0.0021   -0.0041    0.0020 H         1 <0>         0.0682
     31 H13         1.0099    1.4631    0.0003 H         1 <0>         0.0679
     32 H14        -1.7514    1.2020    1.2746 H         1 <0>         0.0651
     33 H15        -0.2017    1.2182    2.1499 H         1 <0>         0.0676
     34 H16         0.2730    3.4864    1.2675 H         1 <0>         0.0627
     35 H17        -1.2598    3.4606    2.1720 H         1 <0>         0.0644
     36 H18        -1.5044    4.7058    0.0417 H         1 <0>         0.0652
     37 H19        -2.5122    3.2386    0.0434 H         1 <0>         0.0643
     38 H20         0.2491    3.4998   -1.2308 H         1 <0>         0.0630
     39 H21        -1.3006    3.4836   -2.1062 H         1 <0>         0.0668
@<TRIPOS>BOND
     1    1    2 1
     2    1   19 1
     3    1   20 1
     4    1   21 1
     5    2    3 1
     6    3    8 ar
     7    3    4 ar
     8    4    5 ar
     9    4   22 1
    10    5    6 ar
    11    5   23 1
    12    6    7 ar
    13    6    9 1
    14    7    8 ar
    15    7   24 1
    16    8   25 1
    17    9   10 1
    18    9   26 1
    19    9   27 1
    20   10   11 2
    21   10   12 am
    22   12   13 1
    23   12   28 1
    24   13   18 1
    25   13   14 1
    26   13   29 1
    27   14   15 1
    28   14   30 1
    29   14   31 1
    30   15   16 1
    31   15   32 1
    32   15   33 1
    33   16   17 1
    34   16   34 1
    35   16   35 1
    36   17   18 1
    37   17   36 1
    38   17   37 1
    39   18   38 1
    40   18   39 1
@<TRIPOS>MOLECULE
ZINC00451523
   39    40     0     0     0
SMALL
USER_CHARGES
2-cyclohexyl-N-(4-methoxyphenyl)acetamide
@<TRIPOS>ATOM
      1 C1         -4.9151    2.3438   -9.1713 C.3       1 <0>         0.0233
      2 O1         -3.5047    2.2430   -9.3772 O.3       1 <0>        -0.3179
      3 C2         -2.7389    1.9773   -8.2856 C.ar      1 <0>         0.1110
      4 C3         -1.3621    1.8663   -8.4148 C.ar      1 <0>        -0.1325
      5 C4         -0.5838    1.5965   -7.3066 C.ar      1 <0>        -0.1071
      6 C5         -1.1794    1.4367   -6.0626 C.ar      1 <0>         0.1138
      7 C6         -2.5579    1.5427   -5.9348 C.ar      1 <0>        -0.0824
      8 C7         -3.3346    1.8178   -7.0430 C.ar      1 <0>        -0.1879
      9 N1         -0.3903    1.1630   -4.9376 N.am      1 <0>        -0.6874
     10 C8         -0.7515    1.6382   -3.7293 C.2       1 <0>         0.5133
     11 O2         -1.7051    2.3812   -3.6301 O.2       1 <0>        -0.5200
     12 C9          0.0294    1.2465   -2.5014 C.3       1 <0>        -0.1376
     13 C10        -0.5843    1.9177   -1.2710 C.3       1 <0>        -0.0710
     14 C11         0.1292    1.4232   -0.0111 C.3       1 <0>        -0.1155
     15 C12        -0.4846    2.0944    1.2192 C.3       1 <0>        -0.1200
     16 C13        -0.3251    3.6118    1.1052 C.3       1 <0>        -0.1218
     17 C14        -1.0386    4.1063   -0.1547 C.3       1 <0>        -0.1186
     18 C15        -0.4249    3.4351   -1.3851 C.3       1 <0>        -0.1210
     19 H1         -5.4109    2.5598  -10.1291 H         1 <0>         0.1024
     20 H2         -5.1245    3.1552   -8.4587 H         1 <0>         0.0566
     21 H3         -5.2955    1.3939   -8.7675 H         1 <0>         0.0563
     22 H4         -0.8990    1.9906   -9.3825 H         1 <0>         0.1346
     23 H5          0.4880    1.5101   -7.4073 H         1 <0>         0.1325
     24 H6         -3.0222    1.4142   -4.9682 H         1 <0>         0.1356
     25 H7         -4.4064    1.9047   -6.9429 H         1 <0>         0.1306
     26 H8          0.5241    0.5602   -5.0406 H         1 <0>         0.4331
     27 H9         -0.0046    0.1539   -2.3783 H         1 <0>         0.0973
     28 H10         1.0747    1.5705   -2.6128 H         1 <0>         0.0962
     29 H11        -1.6531    1.6648   -1.2102 H         1 <0>         0.0784
     30 H12         0.0146    0.3323    0.0709 H         1 <0>         0.0621
     31 H13         1.1980    1.6761   -0.0718 H         1 <0>         0.0630
     32 H14        -1.5534    1.8416    1.2798 H         1 <0>         0.0619
     33 H15         0.0282    1.7388    2.1251 H         1 <0>         0.0619
     34 H16        -0.7663    4.0943    1.9898 H         1 <0>         0.0600
     35 H17         0.7437    3.8646    1.0445 H         1 <0>         0.0604
     36 H18        -2.1074    3.8534   -0.0939 H         1 <0>         0.0615
     37 H19        -0.9240    5.1972   -0.2367 H         1 <0>         0.0597
     38 H20         0.6439    3.6879   -1.4459 H         1 <0>         0.0545
     39 H21        -0.9379    3.7906   -2.2909 H         1 <0>         0.0807
@<TRIPOS>BOND
     1    1    2 1
     2    1   19 1
     3    1   20 1
     4    1   21 1
     5    2    3 1
     6    3    8 ar
     7    3    4 ar
     8    4    5 ar
     9    4   22 1
    10    5    6 ar
    11    5   23 1
    12    6    7 ar
    13    6    9 1
    14    7    8 ar
    15    7   24 1
    16    8   25 1
    17    9   10 am
    18    9   26 1
    19   10   11 2
    20   10   12 1
    21   12   13 1
    22   12   27 1
    23   12   28 1
    24   13   18 1
    25   13   14 1
    26   13   29 1
    27   14   15 1
    28   14   30 1
    29   14   31 1
    30   15   16 1
    31   15   32 1
    32   15   33 1
    33   16   17 1
    34   16   34 1
    35   16   35 1
    36   17   18 1
    37   17   36 1
    38   17   37 1
    39   18   38 1
    40   18   39 1
@<TRIPOS>MOLECULE
ZINC00365623
   41    42     0     0     0
SMALL
USER_CHARGES
N-cyclohexyl-4-phenyl-butanamide
@<TRIPOS>ATOM
      1 C1         -2.0785    2.5007   -3.4529 C.ar      1 <0>        -0.1254
      2 C2         -1.0663    3.2585   -2.8942 C.ar      1 <0>        -0.1183
      3 C3         -0.3980    2.8008   -1.7740 C.ar      1 <0>        -0.1178
      4 C4         -0.7416    1.5850   -1.2129 C.ar      1 <0>        -0.0813
      5 C5         -1.7499    0.8246   -1.7750 C.ar      1 <0>        -0.1178
      6 C6         -2.4217    1.2848   -2.8921 C.ar      1 <0>        -0.1183
      7 C7         -0.0127    1.0858    0.0080 C.3       1 <0>        -0.0825
      8 C8         -0.7288    1.5792    1.2668 C.3       1 <0>        -0.0987
      9 C9          0.0111    1.0724    2.5063 C.3       1 <0>        -0.1418
     10 C10        -0.6942    1.5584    3.7462 C.2       1 <0>         0.5124
     11 O1         -1.6907    2.2428    3.6481 O.2       1 <0>        -0.5425
     12 N1         -0.2177    1.2325    4.9641 N.am      1 <0>        -0.7431
     13 C11        -0.9034    1.7050    6.1694 C.3       1 <0>         0.1468
     14 C12        -0.4138    3.1125    6.5162 C.3       1 <0>        -0.1278
     15 C13        -1.1300    3.6059    7.7750 C.3       1 <0>        -0.1190
     16 C14        -0.8268    2.6594    8.9383 C.3       1 <0>        -0.1227
     17 C15        -1.3164    1.2520    8.5915 C.3       1 <0>        -0.1179
     18 C16        -0.6003    0.7586    7.3327 C.3       1 <0>        -0.1244
     19 H1         -2.6009    2.8585   -4.3278 H         1 <0>         0.1208
     20 H2         -0.7979    4.2083   -3.3326 H         1 <0>         0.1214
     21 H3          0.3927    3.3928   -1.3375 H         1 <0>         0.1206
     22 H4         -2.0153   -0.1273   -1.3392 H         1 <0>         0.1206
     23 H5         -3.2122    0.6925   -3.3288 H         1 <0>         0.1214
     24 H6          0.0022   -0.0141    0.0019 H         1 <0>         0.0735
     25 H7          1.0193    1.4665    0.0002 H         1 <0>         0.0734
     26 H8         -0.7437    2.6791    1.2728 H         1 <0>         0.0714
     27 H9         -1.7608    1.1985    1.2746 H         1 <0>         0.0715
     28 H10         0.0260   -0.0275    2.5003 H         1 <0>         0.0938
     29 H11         1.0431    1.4531    2.4985 H         1 <0>         0.0938
     30 H12         0.6860    0.6117    5.0531 H         1 <0>         0.4178
     31 H13        -1.9807    1.7133    5.9473 H         1 <0>         0.0854
     32 H14         0.6710    3.0892    6.6969 H         1 <0>         0.0631
     33 H15        -0.6317    3.7930    5.6798 H         1 <0>         0.0657
     34 H16        -0.7780    4.6178    8.0243 H         1 <0>         0.0650
     35 H17        -2.2148    3.6292    7.5944 H         1 <0>         0.0643
     36 H18         0.2580    2.6361    9.1189 H         1 <0>         0.0627
     37 H19        -1.3416    3.0141    9.8434 H         1 <0>         0.0645
     38 H20        -1.0985    0.5715    9.4278 H         1 <0>         0.0676
     39 H21        -2.4012    1.2753    8.4109 H         1 <0>         0.0651
     40 H22        -0.9523   -0.2533    7.0834 H         1 <0>         0.0680
     41 H23         0.4845    0.7353    7.5133 H         1 <0>         0.0685
@<TRIPOS>BOND
     1    1    6 ar
     2    1    2 ar
     3    1   19 1
     4    2    3 ar
     5    2   20 1
     6    3    4 ar
     7    3   21 1
     8    4    5 ar
     9    4    7 1
    10    5    6 ar
    11    5   22 1
    12    6   23 1
    13    7    8 1
    14    7   24 1
    15    7   25 1
    16    8    9 1
    17    8   26 1
    18    8   27 1
    19    9   10 1
    20    9   28 1
    21    9   29 1
    22   10   11 2
    23   10   12 am
    24   12   13 1
    25   12   30 1
    26   13   18 1
    27   13   14 1
    28   13   31 1
    29   14   15 1
    30   14   32 1
    31   14   33 1
    32   15   16 1
    33   15   34 1
    34   15   35 1
    35   16   17 1
    36   16   36 1
    37   16   37 1
    38   17   18 1
    39   17   38 1
    40   17   39 1
    41   18   40 1
    42   18   41 1
@<TRIPOS>MOLECULE
ZINC00858629
   41    42     0     0     0
SMALL
USER_CHARGES
2-cyclohexyl-N-phenethyl-acetamide
@<TRIPOS>ATOM
      1 C1         -2.1865    2.5890    8.4253 C.ar      1 <0>        -0.1210
      2 C2         -2.5408    1.3793    7.8579 C.ar      1 <0>        -0.1180
      3 C3         -1.8940    0.9337    6.7203 C.ar      1 <0>        -0.1144
      4 C4         -0.8927    1.6976    6.1505 C.ar      1 <0>        -0.0846
      5 C5         -0.5345    2.9046    6.7212 C.ar      1 <0>        -0.1144
      6 C6         -1.1848    3.3527    7.8558 C.ar      1 <0>        -0.1180
      7 C7         -0.1873    1.2116    4.9106 C.3       1 <0>        -0.0909
      8 C8         -0.9273    1.7184    3.6711 C.3       1 <0>         0.1267
      9 N1         -0.2416    1.2460    2.4658 N.am      1 <0>        -0.7462
     10 C9         -0.7181    1.5718    1.2479 C.2       1 <0>         0.5122
     11 O1         -1.7145    2.2562    1.1498 O.2       1 <0>        -0.5374
     12 C10        -0.0127    1.0858    0.0080 C.3       1 <0>        -0.1384
     13 C11        -0.7527    1.5927   -1.2315 C.3       1 <0>        -0.0710
     14 C12        -2.1465    0.9639   -1.2860 C.3       1 <0>        -0.1203
     15 C13        -2.8865    1.4708   -2.5256 C.3       1 <0>        -0.1188
     16 C14        -2.1028    1.0835   -3.7813 C.3       1 <0>        -0.1216
     17 C15        -0.7090    1.7122   -3.7268 C.3       1 <0>        -0.1201
     18 C16         0.0310    1.2054   -2.4872 C.3       1 <0>        -0.1155
     19 H1         -2.6920    2.9373    9.3139 H         1 <0>         0.1224
     20 H2         -3.3231    0.7825    8.3031 H         1 <0>         0.1230
     21 H3         -2.1708   -0.0114    6.2770 H         1 <0>         0.1217
     22 H4          0.2508    3.4993    6.2785 H         1 <0>         0.1217
     23 H5         -0.9078    4.2976    8.2993 H         1 <0>         0.1230
     24 H6          0.8447    1.5924    4.9028 H         1 <0>         0.0801
     25 H7         -0.1723    0.1117    4.9046 H         1 <0>         0.0801
     26 H8         -1.9593    1.3376    3.6789 H         1 <0>         0.0667
     27 H9         -0.9423    2.8183    3.6771 H         1 <0>         0.0667
     28 H10         0.6622    0.6254    2.5548 H         1 <0>         0.4204
     29 H11         1.0193    1.4665    0.0002 H         1 <0>         0.0932
     30 H12         0.0022   -0.0141    0.0019 H         1 <0>         0.0930
     31 H13        -0.8461    2.6875   -1.1807 H         1 <0>         0.0776
     32 H14        -2.0531   -0.1309   -1.3368 H         1 <0>         0.0536
     33 H15        -2.7099    1.2423   -0.3832 H         1 <0>         0.0808
     34 H16        -3.8886    1.0188   -2.5648 H         1 <0>         0.0593
     35 H17        -2.9799    2.5657   -2.4748 H         1 <0>         0.0615
     36 H18        -2.0094   -0.0114   -3.8321 H         1 <0>         0.0601
     37 H19        -2.6348    1.4479   -4.6725 H         1 <0>         0.0597
     38 H20        -0.1456    1.4337   -4.6296 H         1 <0>         0.0614
     39 H21        -0.8023    2.8071   -3.6761 H         1 <0>         0.0619
     40 H22         1.0331    1.6575   -2.4480 H         1 <0>         0.0614
     41 H23         0.1244    0.1106   -2.5380 H         1 <0>         0.0623
@<TRIPOS>BOND
     1    1    6 ar
     2    1    2 ar
     3    1   19 1
     4    2    3 ar
     5    2   20 1
     6    3    4 ar
     7    3   21 1
     8    4    5 ar
     9    4    7 1
    10    5    6 ar
    11    5   22 1
    12    6   23 1
    13    7    8 1
    14    7   24 1
    15    7   25 1
    16    8    9 1
    17    8   26 1
    18    8   27 1
    19    9   10 am
    20    9   28 1
    21   10   11 2
    22   10   12 1
    23   12   13 1
    24   12   29 1
    25   12   30 1
    26   13   18 1
    27   13   14 1
    28   13   31 1
    29   14   15 1
    30   14   32 1
    31   14   33 1
    32   15   16 1
    33   15   34 1
    34   15   35 1
    35   16   17 1
    36   16   36 1
    37   16   37 1
    38   17   18 1
    39   17   38 1
    40   17   39 1
    41   18   40 1
    42   18   41 1
@<TRIPOS>MOLECULE
ZINC00182146
   40    41     0     0     0
SMALL
USER_CHARGES

@<TRIPOS>ATOM
      1 C1         -0.0167    1.3781    0.0096 C.ar      1 <0>        -0.1206
      2 C2          1.1709    2.0855    0.0021 C.ar      1 <0>        -0.1182
      3 C3          2.3773    1.4107   -0.0130 C.ar      1 <0>        -0.1136
      4 C4          2.3960    0.0285   -0.0201 C.ar      1 <0>        -0.0843
      5 C5          1.2084   -0.6789   -0.0117 C.ar      1 <0>        -0.1136
      6 C6          0.0021   -0.0041    0.0020 C.ar      1 <0>        -0.1181
      7 C7          3.7112   -0.7071   -0.0376 C.3       1 <0>        -0.0909
      8 C8          4.1714   -0.9633    1.3989 C.3       1 <0>         0.1441
      9 N1          5.4498   -1.6784    1.3820 N.am      1 <0>        -0.7489
     10 C9          6.0502   -2.0132    2.5413 C.2       1 <0>         0.7033
     11 O1          5.5307   -1.7217    3.6012 O.2       1 <0>        -0.5876
     12 N2          7.2263   -2.6711    2.5257 N.am      1 <0>        -0.7436
     13 C10         7.8789   -3.0350    3.7858 C.3       1 <0>         0.1634
     14 C11         8.7132   -1.8547    4.2875 C.3       1 <0>        -0.1297
     15 C12         9.3947   -2.2348    5.6036 C.3       1 <0>        -0.1179
     16 C13        10.3054   -3.4430    5.3760 C.3       1 <0>        -0.1226
     17 C14         9.4711   -4.6232    4.8743 C.3       1 <0>        -0.1163
     18 C15         8.7896   -4.2432    3.5582 C.3       1 <0>        -0.1262
     19 H1         -0.9591    1.9053    0.0259 H         1 <0>         0.1223
     20 H2          1.1563    3.1654    0.0076 H         1 <0>         0.1230
     21 H3          3.3051    1.9634   -0.0196 H         1 <0>         0.1221
     22 H4          1.2231   -1.7588   -0.0176 H         1 <0>         0.1222
     23 H5         -0.9258   -0.5567    0.0082 H         1 <0>         0.1230
     24 H6          3.5884   -1.6586   -0.5549 H         1 <0>         0.0795
     25 H7          4.4573   -0.1052   -0.5563 H         1 <0>         0.0795
     26 H8          4.2941   -0.0118    1.9163 H         1 <0>         0.0681
     27 H9          3.4252   -1.5652    1.9176 H         1 <0>         0.0682
     28 H10         5.8643   -1.9110    0.5363 H         1 <0>         0.3958
     29 H11         7.6408   -2.9037    1.6800 H         1 <0>         0.3946
     30 H12         7.1211   -3.2859    4.5281 H         1 <0>         0.0881
     31 H13         9.4709   -1.6038    3.5452 H         1 <0>         0.0618
     32 H14         8.0643   -0.9940    4.4497 H         1 <0>         0.0675
     33 H15         9.9891   -1.3939    5.9610 H         1 <0>         0.0649
     34 H16         8.6370   -2.4857    6.3459 H         1 <0>         0.0649
     35 H17        11.0631   -3.1920    4.6337 H         1 <0>         0.0624
     36 H18        10.7909   -3.7137    6.3136 H         1 <0>         0.0644
     37 H19        10.1199   -5.4840    4.7121 H         1 <0>         0.0676
     38 H20         8.7134   -4.8741    5.6166 H         1 <0>         0.0658
     39 H21         8.1952   -5.0841    3.2008 H         1 <0>         0.0683
     40 H22         9.5473   -3.9923    2.8159 H         1 <0>         0.0673
@<TRIPOS>BOND
     1    1    6 ar
     2    1    2 ar
     3    1   19 1
     4    2    3 ar
     5    2   20 1
     6    3    4 ar
     7    3   21 1
     8    4    5 ar
     9    4    7 1
    10    5    6 ar
    11    5   22 1
    12    6   23 1
    13    7    8 1
    14    7   24 1
    15    7   25 1
    16    8    9 1
    17    8   26 1
    18    8   27 1
    19    9   10 am
    20    9   28 1
    21   10   11 2
    22   10   12 am
    23   12   13 1
    24   12   29 1
    25   13   18 1
    26   13   14 1
    27   13   30 1
    28   14   15 1
    29   14   31 1
    30   14   32 1
    31   15   16 1
    32   15   33 1
    33   15   34 1
    34   16   17 1
    35   16   35 1
    36   16   36 1
    37   17   18 1
    38   17   37 1
    39   17   38 1
    40   18   39 1
    41   18   40 1
@<TRIPOS>MOLECULE
ZINC27645646
   67    69     0     0     0
SMALL
USER_CHARGES

@<TRIPOS>ATOM
      1 C1         -0.0187    1.5258    0.0104 C.3       1 <0>        -0.1111
      2 C2          1.4167    2.0553   -0.0004 C.3       1 <0>        -0.0828
      3 C3          2.1567    1.5485    1.2391 C.3       1 <0>        -0.1089
      4 C4          2.1775    0.0187    1.2307 C.3       1 <0>        -0.0828
      5 C5          0.7421   -0.5109    1.2415 C.3       1 <0>        -0.1111
      6 C6          0.0021   -0.0041    0.0020 C.3       1 <0>        -0.0800
      7 C7          0.7182   -0.4975   -1.2568 C.3       1 <0>        -0.1146
      8 C8          2.1536    0.0321   -1.2676 C.3       1 <0>         0.2031
      9 C9          2.1328    1.5619   -1.2592 C.3       1 <0>        -0.1225
     10 C10         2.8936   -0.4747   -0.0281 C.3       1 <0>        -0.1225
     11 N1          2.8393   -0.4404   -2.4730 N.am      1 <0>        -0.7432
     12 C11         4.1230   -0.0961   -2.6967 C.2       1 <0>         0.7046
     13 O1          4.7120    0.6066   -1.8981 O.2       1 <0>        -0.5840
     14 N2          4.7539   -0.5307   -3.8055 N.am      1 <0>        -0.7488
     15 C12         6.1492   -0.1565   -4.0487 C.3       1 <0>         0.1378
     16 C13         6.6214   -0.7762   -5.3655 C.3       1 <0>        -0.1312
     17 C14         8.0787   -0.3853   -5.6195 C.3       1 <0>        -0.1166
     18 C15         8.5508   -1.0050   -6.9363 C.3       1 <0>        -0.1189
     19 C16        10.0081   -0.6141   -7.1903 C.3       1 <0>        -0.1205
     20 C17        10.4802   -1.2338   -8.5071 C.3       1 <0>        -0.1203
     21 C18        11.9375   -0.8429   -8.7610 C.3       1 <0>        -0.1195
     22 C19        12.4097   -1.4626  -10.0779 C.3       1 <0>        -0.1192
     23 C20        13.8670   -1.0718  -10.3318 C.3       1 <0>        -0.1207
     24 C21        14.3391   -1.6914  -11.6486 C.3       1 <0>        -0.0935
     25 C22        15.7964   -1.3006  -11.9026 C.3       1 <0>        -0.1840
     26 C23        16.2614   -1.9109  -13.1996 C.2       1 <0>         0.4872
     27 O2         15.4981   -2.5950  -13.8597 O.co2     1 <0>        -0.7001
     28 O3         17.4011   -1.7205  -13.5889 O.co2     1 <0>        -0.7101
     29 H1         -0.5289    1.8773    0.9072 H         1 <0>         0.0639
     30 H2         -0.5459    1.8868   -0.8726 H         1 <0>         0.0618
     31 H3          1.4019    3.1452    0.0056 H         1 <0>         0.0712
     32 H4          3.1793    1.9258    1.2314 H         1 <0>         0.0653
     33 H5          1.6465    1.9000    2.1359 H         1 <0>         0.0614
     34 H6          2.7046   -0.3424    2.1137 H         1 <0>         0.0712
     35 H7          0.7568   -1.6008    1.2355 H         1 <0>         0.0618
     36 H8          0.2319   -0.1594    2.1383 H         1 <0>         0.0639
     37 H9         -1.0205   -0.3814    0.0098 H         1 <0>         0.0740
     38 H10         0.7330   -1.5874   -1.2628 H         1 <0>         0.0675
     39 H11         0.1910   -0.1364   -2.1398 H         1 <0>         0.0675
     40 H12         1.6057    1.9230   -2.1423 H         1 <0>         0.0572
     41 H13         3.1554    1.9392   -1.2670 H         1 <0>         0.0878
     42 H14         3.9162   -0.0975   -0.0359 H         1 <0>         0.0878
     43 H15         2.9084   -1.5646   -0.0341 H         1 <0>         0.0572
     44 H16         2.3694   -1.0010   -3.1100 H         1 <0>         0.3933
     45 H17         4.2840   -1.0913   -4.4426 H         1 <0>         0.3946
     46 H18         6.2292    0.9289   -4.1086 H         1 <0>         0.0654
     47 H19         6.7711   -0.5221   -3.2316 H         1 <0>         0.0654
     48 H20         6.5414   -1.8616   -5.3056 H         1 <0>         0.0681
     49 H21         5.9995   -0.4106   -6.1827 H         1 <0>         0.0681
     50 H22         8.1586    0.7001   -5.6794 H         1 <0>         0.0653
     51 H23         8.7006   -0.7509   -4.8023 H         1 <0>         0.0653
     52 H24         8.4709   -2.0904   -6.8764 H         1 <0>         0.0613
     53 H25         7.9289   -0.6394   -7.7534 H         1 <0>         0.0613
     54 H26        10.0880    0.4713   -7.2502 H         1 <0>         0.0607
     55 H27        10.6300   -0.9797   -6.3731 H         1 <0>         0.0606
     56 H28        10.4003   -2.3192   -8.4472 H         1 <0>         0.0600
     57 H29         9.8583   -0.8682   -9.3242 H         1 <0>         0.0600
     58 H30        12.0175    0.2425   -8.8210 H         1 <0>         0.0586
     59 H31        12.5594   -1.2085   -7.9439 H         1 <0>         0.0586
     60 H32        12.3297   -2.5480  -10.0179 H         1 <0>         0.0592
     61 H33        11.7878   -1.0970  -10.8950 H         1 <0>         0.0592
     62 H34        13.9469    0.0137  -10.3917 H         1 <0>         0.0537
     63 H35        14.4888   -1.4373   -9.5147 H         1 <0>         0.0537
     64 H36        14.2592   -2.7768  -11.5887 H         1 <0>         0.0570
     65 H37        13.7172   -1.3258  -12.4658 H         1 <0>         0.0570
     66 H38        15.8763   -0.2152  -11.9625 H         1 <0>         0.0540
     67 H39        16.4183   -1.6661  -11.0854 H         1 <0>         0.0540
@<TRIPOS>BOND
     1    1    6 1
     2    1    2 1
     3    1   29 1
     4    1   30 1
     5    2    9 1
     6    2    3 1
     7    2   31 1
     8    3    4 1
     9    3   32 1
    10    3   33 1
    11    4   10 1
    12    4    5 1
    13    4   34 1
    14    5    6 1
    15    5   35 1
    16    5   36 1
    17    6    7 1
    18    6   37 1
    19    7    8 1
    20    7   38 1
    21    7   39 1
    22    8    9 1
    23    8   10 1
    24    8   11 1
    25    9   40 1
    26    9   41 1
    27   10   42 1
    28   10   43 1
    29   11   12 am
    30   11   44 1
    31   12   13 2
    32   12   14 am
    33   14   15 1
    34   14   45 1
    35   15   16 1
    36   15   46 1
    37   15   47 1
    38   16   17 1
    39   16   48 1
    40   16   49 1
    41   17   18 1
    42   17   50 1
    43   17   51 1
    44   18   19 1
    45   18   52 1
    46   18   53 1
    47   19   20 1
    48   19   54 1
    49   19   55 1
    50   20   21 1
    51   20   56 1
    52   20   57 1
    53   21   22 1
    54   21   58 1
    55   21   59 1
    56   22   23 1
    57   22   60 1
    58   22   61 1
    59   23   24 1
    60   23   62 1
    61   23   63 1
    62   24   25 1
    63   24   64 1
    64   24   65 1
    65   25   26 1
    66   25   66 1
    67   25   67 1
    68   26   27 2
    69   26   28 1
@<TRIPOS>MOLECULE
ZINC08754389
   35    35     0     0     0
SMALL
USER_CHARGES
4-(cyclohexylcarbamoylamino)butanoic acid
@<TRIPOS>ATOM
      1 C1         -2.9472    4.3393   -0.7878 C.3       1 <0>        -0.1215
      2 C2         -2.4339    4.1923    0.6460 C.3       1 <0>        -0.1165
      3 C3         -1.0987    3.4453    0.6356 C.3       1 <0>        -0.1245
      4 C4         -1.2947    2.0587    0.0194 C.3       1 <0>         0.1677
      5 C5         -1.8080    2.2058   -1.4144 C.3       1 <0>        -0.1298
      6 C6         -3.1433    2.9527   -1.4040 C.3       1 <0>        -0.1180
      7 N1         -0.0162    1.3436    0.0094 N.am      1 <0>        -0.7601
      8 C7          0.0021   -0.0041    0.0020 C.2       1 <0>         0.7035
      9 O1         -1.0425   -0.6263    0.0086 O.2       1 <0>        -0.6020
     10 N2          1.1783   -0.6620   -0.0127 N.am      1 <0>        -0.7530
     11 C8          1.1981   -2.1268   -0.0208 C.3       1 <0>         0.1391
     12 C9          2.6473   -2.6171   -0.0373 C.3       1 <0>        -0.1077
     13 C10         2.6681   -4.1470   -0.0457 C.3       1 <0>        -0.1557
     14 C11         4.0955   -4.6299   -0.0619 C.2       1 <0>         0.4597
     15 O2          5.0031   -3.8323   -0.0663 O.co2     1 <0>        -0.6429
     16 O3          4.3586   -5.9461   -0.0715 O.co2     1 <0>        -0.7757
     17 H1         -2.2153    4.9049   -1.3831 H         1 <0>         0.0617
     18 H2         -3.9072    4.8764   -0.7803 H         1 <0>         0.0615
     19 H3         -2.2929    5.1892    1.0890 H         1 <0>         0.0651
     20 H4         -3.1658    3.6268    1.2413 H         1 <0>         0.0647
     21 H5         -0.3668    4.0109    0.0403 H         1 <0>         0.0672
     22 H6         -0.7296    3.3396    1.6664 H         1 <0>         0.0678
     23 H7         -1.9951    1.4622    0.6224 H         1 <0>         0.0845
     24 H8         -1.0761    2.7715   -2.0096 H         1 <0>         0.0613
     25 H9         -1.9489    1.2089   -1.8575 H         1 <0>         0.0675
     26 H10        -3.8752    2.3871   -0.8087 H         1 <0>         0.0638
     27 H11        -3.5124    3.0584   -2.4348 H         1 <0>         0.0625
     28 H12         0.9288    1.9065    0.0079 H         1 <0>         0.4098
     29 H13         2.1234   -0.0991   -0.0186 H         1 <0>         0.4141
     30 H14         0.6932   -2.5053    0.8802 H         1 <0>         0.0594
     31 H15         0.6760   -2.4956   -0.9160 H         1 <0>         0.0594
     32 H16         3.1522   -2.2386   -0.9383 H         1 <0>         0.0668
     33 H17         3.1694   -2.2482    0.8579 H         1 <0>         0.0669
     34 H18         2.1632   -4.5255    0.8553 H         1 <0>         0.0665
     35 H19         2.1460   -4.5159   -0.9409 H         1 <0>         0.0664
@<TRIPOS>BOND
     1    1    6 1
     2    1    2 1
     3    1   17 1
     4    1   18 1
     5    2    3 1
     6    2   19 1
     7    2   20 1
     8    3    4 1
     9    3   21 1
    10    3   22 1
    11    4    5 1
    12    4    7 1
    13    4   23 1
    14    5    6 1
    15    5   24 1
    16    5   25 1
    17    6   26 1
    18    6   27 1
    19    7    8 am
    20    7   28 1
    21    8    9 2
    22    8   10 am
    23   10   11 1
    24   10   29 1
    25   11   12 1
    26   11   30 1
    27   11   31 1
    28   12   13 1
    29   12   32 1
    30   12   33 1
    31   13   14 1
    32   13   34 1
    33   13   35 1
    34   14   15 2
    35   14   16 1
@<TRIPOS>MOLECULE
ZINC36303007
   45    45     0     0     0
SMALL
USER_CHARGES

@<TRIPOS>ATOM
      1 C1         -0.0173    1.4248    0.0099 C.3       1 <0>         0.0326
      2 O1          0.0021   -0.0041    0.0020 O.3       1 <0>        -0.3563
      3 C2          0.5984   -0.5997   -1.0427 C.2       1 <0>         0.4573
      4 O2          1.0877    0.0699   -1.9214 O.2       1 <0>        -0.5066
      5 C3          0.6575   -2.1036   -1.1196 C.3       1 <0>        -0.1145
      6 C4          1.3848   -2.5205   -2.3995 C.3       1 <0>        -0.1093
      7 C5          1.4449   -4.0473   -2.4777 C.3       1 <0>        -0.1165
      8 C6          2.1722   -4.4643   -3.7576 C.3       1 <0>        -0.1313
      9 C7          2.2322   -5.9911   -3.8357 C.3       1 <0>         0.1374
     10 N1          2.9286   -6.3903   -5.0612 N.am      1 <0>        -0.7488
     11 C8          3.1014   -7.6970   -5.3430 C.2       1 <0>         0.7029
     12 O3          2.6793   -8.5444   -4.5800 O.2       1 <0>        -0.5890
     13 N2          3.7420   -8.0642   -6.4704 N.am      1 <0>        -0.7439
     14 C9          3.9298   -9.4845   -6.7766 C.3       1 <0>         0.1635
     15 C10         5.1867   -9.9967   -6.0703 C.3       1 <0>        -0.1296
     16 C11         5.3828  -11.4800   -6.3901 C.3       1 <0>        -0.1179
     17 C12         5.5382  -11.6596   -7.9016 C.3       1 <0>        -0.1226
     18 C13         4.2814  -11.1474   -8.6079 C.3       1 <0>        -0.1163
     19 C14         4.0852   -9.6641   -8.2881 C.3       1 <0>        -0.1264
     20 H1          1.0053    1.8021    0.0021 H         1 <0>         0.0608
     21 H2         -0.5445    1.7859   -0.8732 H         1 <0>         0.0608
     22 H3         -0.5275    1.7763    0.9067 H         1 <0>         0.1028
     23 H4          1.1948   -2.4908   -0.2539 H         1 <0>         0.1079
     24 H5         -0.3550   -2.5070   -1.1292 H         1 <0>         0.1079
     25 H6          0.8476   -2.1333   -3.2653 H         1 <0>         0.0733
     26 H7          2.3973   -2.1171   -2.3900 H         1 <0>         0.0733
     27 H8          1.9821   -4.4346   -1.6119 H         1 <0>         0.0705
     28 H9          0.4324   -4.4508   -2.4872 H         1 <0>         0.0705
     29 H10         1.6349   -4.0770   -4.6233 H         1 <0>         0.0708
     30 H11         3.1847   -4.0608   -3.7480 H         1 <0>         0.0708
     31 H12         2.7695   -6.3783   -2.9700 H         1 <0>         0.0665
     32 H13         1.2197   -6.3946   -3.8453 H         1 <0>         0.0665
     33 H14         3.2653   -5.7143   -5.6699 H         1 <0>         0.3958
     34 H15         4.0787   -7.3882   -7.0791 H         1 <0>         0.3946
     35 H16         3.0635  -10.0484   -6.4309 H         1 <0>         0.0881
     36 H17         6.0531   -9.4328   -6.4161 H         1 <0>         0.0617
     37 H18         5.0760   -9.8687   -4.9935 H         1 <0>         0.0674
     38 H19         6.2782  -11.8448   -5.8869 H         1 <0>         0.0648
     39 H20         4.5165  -12.0438   -6.0444 H         1 <0>         0.0649
     40 H21         6.4046  -11.0957   -8.2473 H         1 <0>         0.0624
     41 H22         5.6780  -12.7163   -8.1294 H         1 <0>         0.0644
     42 H23         4.3921  -11.2754   -9.6847 H         1 <0>         0.0676
     43 H24         3.4150  -11.7113   -8.2622 H         1 <0>         0.0658
     44 H25         3.1898   -9.2993   -8.7913 H         1 <0>         0.0683
     45 H26         4.9516   -9.1002   -8.6338 H         1 <0>         0.0673
@<TRIPOS>BOND
     1    1    2 1
     2    1   20 1
     3    1   21 1
     4    1   22 1
     5    2    3 1
     6    3    4 2
     7    3    5 1
     8    5    6 1
     9    5   23 1
    10    5   24 1
    11    6    7 1
    12    6   25 1
    13    6   26 1
    14    7    8 1
    15    7   27 1
    16    7   28 1
    17    8    9 1
    18    8   29 1
    19    8   30 1
    20    9   10 1
    21    9   31 1
    22    9   32 1
    23   10   11 am
    24   10   33 1
    25   11   12 2
    26   11   13 am
    27   13   14 1
    28   13   34 1
    29   14   19 1
    30   14   15 1
    31   14   35 1
    32   15   16 1
    33   15   36 1
    34   15   37 1
    35   16   17 1
    36   16   38 1
    37   16   39 1
    38   17   18 1
    39   17   40 1
    40   17   41 1
    41   18   19 1
    42   18   42 1
    43   18   43 1
    44   19   44 1
    45   19   45 1
@<TRIPOS>MOLECULE
ZINC13493756
   36    36     0     0     0
SMALL
USER_CHARGES

@<TRIPOS>ATOM
      1 C1         -0.0173    1.4248    0.0099 C.3       1 <0>         0.0328
      2 O1          0.0021   -0.0041    0.0020 O.3       1 <0>        -0.3542
      3 C2         -1.1855   -0.6297    0.0100 C.2       1 <0>         0.4642
      4 O2         -2.2076    0.0145    0.0232 O.2       1 <0>        -0.4980
      5 C3         -1.2439   -2.1355    0.0025 C.3       1 <0>        -0.1262
      6 C4         -2.7051   -2.5893    0.0140 C.3       1 <0>         0.1489
      7 N1         -2.7619   -4.0531    0.0067 N.am      1 <0>        -0.7491
      8 C5         -3.9543   -4.6813    0.0147 C.2       1 <0>         0.7050
      9 O3         -4.9828   -4.0330    0.0280 O.2       1 <0>        -0.5834
     10 N2         -4.0066   -6.0280    0.0079 N.am      1 <0>        -0.7424
     11 C6         -5.3027   -6.7108    0.0166 C.3       1 <0>         0.1631
     12 C7         -5.7988   -6.8450    1.4578 C.3       1 <0>        -0.1300
     13 C8         -7.1524   -7.5581    1.4669 C.3       1 <0>        -0.1181
     14 C9         -7.0002   -8.9492    0.8483 C.3       1 <0>        -0.1227
     15 C10        -6.5041   -8.8150   -0.5928 C.3       1 <0>        -0.1165
     16 C11        -5.1505   -8.1019   -0.6019 C.3       1 <0>        -0.1260
     17 H1          1.0053    1.8021    0.0021 H         1 <0>         0.1043
     18 H2         -0.5445    1.7859   -0.8732 H         1 <0>         0.0626
     19 H3         -0.5275    1.7763    0.9067 H         1 <0>         0.0626
     20 H4         -0.7531   -2.5137   -0.8943 H         1 <0>         0.1146
     21 H5         -0.7361   -2.5233    0.8856 H         1 <0>         0.1146
     22 H6         -3.1959   -2.2111    0.9107 H         1 <0>         0.0783
     23 H7         -3.2129   -2.2015   -0.8691 H         1 <0>         0.0784
     24 H8         -1.9413   -4.5703   -0.0039 H         1 <0>         0.3968
     25 H9         -3.1860   -6.5452   -0.0027 H         1 <0>         0.3951
     26 H10        -6.0221   -6.1322   -0.5629 H         1 <0>         0.0888
     27 H11        -5.0794   -7.4236    2.0373 H         1 <0>         0.0620
     28 H12        -5.9072   -5.8540    1.8985 H         1 <0>         0.0678
     29 H13        -7.5058   -7.6537    2.4935 H         1 <0>         0.0650
     30 H14        -7.8718   -6.9795    0.8874 H         1 <0>         0.0651
     31 H15        -6.2808   -9.5278    1.4278 H         1 <0>         0.0624
     32 H16        -7.9646   -9.4572    0.8547 H         1 <0>         0.0644
     33 H17        -6.3957   -9.8060   -1.0335 H         1 <0>         0.0677
     34 H18        -7.2235   -8.2364   -1.1723 H         1 <0>         0.0660
     35 H19        -4.7971   -8.0063   -1.6286 H         1 <0>         0.0685
     36 H20        -4.4311   -8.6805   -0.0224 H         1 <0>         0.0675
@<TRIPOS>BOND
     1    1    2 1
     2    1   17 1
     3    1   18 1
     4    1   19 1
     5    2    3 1
     6    3    4 2
     7    3    5 1
     8    5    6 1
     9    5   20 1
    10    5   21 1
    11    6    7 1
    12    6   22 1
    13    6   23 1
    14    7    8 am
    15    7   24 1
    16    8    9 2
    17    8   10 am
    18   10   11 1
    19   10   25 1
    20   11   16 1
    21   11   12 1
    22   11   26 1
    23   12   13 1
    24   12   27 1
    25   12   28 1
    26   13   14 1
    27   13   29 1
    28   13   30 1
    29   14   15 1
    30   14   31 1
    31   14   32 1
    32   15   16 1
    33   15   33 1
    34   15   34 1
    35   16   35 1
    36   16   36 1
@<TRIPOS>MOLECULE
ZINC00065313
   34    35     0     0     0
SMALL
USER_CHARGES

@<TRIPOS>ATOM
      1 C1         -0.0153    1.3805    0.0311 C.ar      1 <0>        -0.1379
      2 C2          0.1397    0.2186    0.7646 C.ar      1 <0>        -0.1000
      3 C3          1.3441   -0.4572    0.7442 C.ar      1 <0>        -0.1212
      4 C4          2.3999    0.0314   -0.0139 C.ar      1 <0>         0.1646
      5 C5          2.2411    1.1985   -0.7495 C.ar      1 <0>        -0.1498
      6 C6          1.0342    1.8696   -0.7249 C.ar      1 <0>        -0.0999
      7 N1          3.6217   -0.6508   -0.0363 N.am      1 <0>        -0.6880
      8 C7          3.6448   -1.9950    0.0580 C.2       1 <0>         0.7034
      9 O1          2.6030   -2.6219    0.0652 O.2       1 <0>        -0.5695
     10 N2          4.8227   -2.6444    0.1444 N.am      1 <0>        -0.7382
     11 C8          4.8478   -4.1055    0.2469 C.3       1 <0>         0.1629
     12 C9          4.7810   -4.7164   -1.1542 C.3       1 <0>        -0.1305
     13 C10         4.8073   -6.2424   -1.0472 C.3       1 <0>        -0.1177
     14 C11         6.1011   -6.6832   -0.3597 C.3       1 <0>        -0.1230
     15 C12         6.1678   -6.0724    1.0415 C.3       1 <0>        -0.1162
     16 C13         6.1416   -4.5464    0.9344 C.3       1 <0>        -0.1264
     17 H1         -0.9595    1.9047    0.0451 H         1 <0>         0.1231
     18 H2         -0.6817   -0.1607    1.3543 H         1 <0>         0.1253
     19 H3          1.4646   -1.3645    1.3176 H         1 <0>         0.1349
     20 H4          3.0605    1.5812   -1.3398 H         1 <0>         0.1239
     21 H5          0.9101    2.7774   -1.2967 H         1 <0>         0.1260
     22 H6          4.4519   -0.1561   -0.1198 H         1 <0>         0.4063
     23 H7          5.6538   -2.1442    0.1387 H         1 <0>         0.3967
     24 H8          3.9923   -4.4435    0.8317 H         1 <0>         0.0901
     25 H9          3.8593   -4.4023   -1.6440 H         1 <0>         0.0680
     26 H10         5.6366   -4.3784   -1.7390 H         1 <0>         0.0627
     27 H11         3.9518   -6.5803   -0.4624 H         1 <0>         0.0652
     28 H12         4.7597   -6.6775   -2.0454 H         1 <0>         0.0656
     29 H13         6.1198   -7.7704   -0.2834 H         1 <0>         0.0650
     30 H14         6.9566   -6.3453   -0.9445 H         1 <0>         0.0627
     31 H15         5.3123   -6.4104    1.6263 H         1 <0>         0.0662
     32 H16         7.0896   -6.3865    1.5312 H         1 <0>         0.0684
     33 H17         6.9971   -4.2085    0.3496 H         1 <0>         0.0682
     34 H18         6.1892   -4.1112    1.9326 H         1 <0>         0.0692
@<TRIPOS>BOND
     1    1    6 ar
     2    1    2 ar
     3    1   17 1
     4    2    3 ar
     5    2   18 1
     6    3    4 ar
     7    3   19 1
     8    4    5 ar
     9    4    7 1
    10    5    6 ar
    11    5   20 1
    12    6   21 1
    13    7    8 am
    14    7   22 1
    15    8    9 2
    16    8   10 am
    17   10   11 1
    18   10   23 1
    19   11   16 1
    20   11   12 1
    21   11   24 1
    22   12   13 1
    23   12   25 1
    24   12   26 1
    25   13   14 1
    26   13   27 1
    27   13   28 1
    28   14   15 1
    29   14   29 1
    30   14   30 1
    31   15   16 1
    32   15   31 1
    33   15   32 1
    34   16   33 1
    35   16   34 1
@<TRIPOS>MOLECULE
ZINC36330562
   52    55     0     0     0
SMALL
USER_CHARGES

@<TRIPOS>ATOM
      1 C1         -0.0184    1.5028    0.0103 C.3       1 <0>        -0.1752
      2 C2          0.0021   -0.0041    0.0020 C.2       1 <0>         0.5124
      3 O1          1.0605   -0.5961   -0.0113 O.2       1 <0>        -0.5440
      4 N1         -1.1558   -0.6938    0.0094 N.am      1 <0>        -0.6173
      5 C3         -2.4459    0.0093    0.0193 C.3       1 <0>         0.1110
      6 C4         -3.2826   -0.5121    1.1918 C.3       1 <0>        -0.1438
      7 C5         -3.3975   -2.0350    1.0938 C.3       1 <0>         0.1657
      8 C6         -2.0032   -2.6601    1.1798 C.3       1 <0>        -0.1431
      9 C7         -1.1521   -2.1630    0.0014 C.3       1 <0>         0.1128
     10 N2         -4.2248   -2.5339    2.1952 N.am      1 <0>        -0.7454
     11 C8         -4.8813   -3.7041    2.0684 C.2       1 <0>         0.7066
     12 O2         -4.7870   -4.3458    1.0399 O.2       1 <0>        -0.5813
     13 N3         -5.6423   -4.1631    3.0816 N.am      1 <0>        -0.7418
     14 C9         -6.3560   -5.4351    2.9438 C.3       1 <0>         0.2030
     15 C10        -5.3491   -6.5607    2.6984 C.3       1 <0>        -0.1217
     16 C11        -6.0944   -7.8892    2.5545 C.3       1 <0>        -0.0829
     17 C12        -6.8777   -8.1761    3.8371 C.3       1 <0>        -0.1116
     18 C13        -7.8845   -7.0504    4.0824 C.3       1 <0>        -0.0801
     19 C14        -7.1393   -5.7220    4.2263 C.3       1 <0>        -0.1145
     20 C15        -8.8533   -6.9663    2.9012 C.3       1 <0>        -0.1115
     21 C16        -8.0700   -6.6794    1.6186 C.3       1 <0>        -0.0828
     22 C17        -7.0632   -7.8050    1.3733 C.3       1 <0>        -0.1090
     23 C18        -7.3247   -5.3510    1.7625 C.3       1 <0>        -0.1214
     24 H1          1.0042    1.8801    0.0026 H         1 <0>         0.0929
     25 H2         -0.5455    1.8639   -0.8728 H         1 <0>         0.0889
     26 H3         -0.5286    1.8543    0.9071 H         1 <0>         0.0882
     27 H4         -2.2778    1.0797    0.1379 H         1 <0>         0.0937
     28 H5         -2.9716   -0.1786   -0.9169 H         1 <0>         0.0757
     29 H6         -2.7996   -0.2434    2.1313 H         1 <0>         0.0739
     30 H7         -4.2778   -0.0690    1.1540 H         1 <0>         0.0847
     31 H8         -3.8581   -2.3040    0.1432 H         1 <0>         0.0918
     32 H9         -1.5323   -2.3712    2.1194 H         1 <0>         0.0671
     33 H10        -2.0878   -3.7458    1.1334 H         1 <0>         0.0822
     34 H11        -1.5745   -2.5244   -0.9361 H         1 <0>         0.0717
     35 H12        -0.1300   -2.5264    0.1083 H         1 <0>         0.0958
     36 H13        -4.3000   -2.0220    3.0157 H         1 <0>         0.3943
     37 H14        -5.7176   -3.6512    3.9021 H         1 <0>         0.3934
     38 H15        -4.7911   -6.3563    1.7847 H         1 <0>         0.0874
     39 H16        -4.6590   -6.6206    3.5400 H         1 <0>         0.0569
     40 H17        -5.3772   -8.6911    2.3797 H         1 <0>         0.0716
     41 H18        -7.4087   -9.1225    3.7345 H         1 <0>         0.0648
     42 H19        -6.1876   -8.2360    4.6786 H         1 <0>         0.0620
     43 H20        -8.4426   -7.2548    4.9961 H         1 <0>         0.0747
     44 H21        -6.4491   -5.7819    5.0679 H         1 <0>         0.0674
     45 H22        -7.8565   -4.9201    4.4011 H         1 <0>         0.0674
     46 H23        -9.3843   -7.9127    2.7986 H         1 <0>         0.0648
     47 H24        -9.5706   -6.1644    3.0759 H         1 <0>         0.0619
     48 H25        -8.7602   -6.6195    0.7771 H         1 <0>         0.0715
     49 H26        -6.5052   -7.6006    0.4595 H         1 <0>         0.0649
     50 H27        -7.5942   -8.7514    1.2707 H         1 <0>         0.0621
     51 H28        -8.0420   -4.5490    1.9373 H         1 <0>         0.0569
     52 H29        -6.7667   -5.1465    0.8488 H         1 <0>         0.0874
@<TRIPOS>BOND
     1    1    2 1
     2    1   24 1
     3    1   25 1
     4    1   26 1
     5    2    3 2
     6    2    4 am
     7    4    9 1
     8    4    5 1
     9    5    6 1
    10    5   27 1
    11    5   28 1
    12    6    7 1
    13    6   29 1
    14    6   30 1
    15    7    8 1
    16    7   10 1
    17    7   31 1
    18    8    9 1
    19    8   32 1
    20    8   33 1
    21    9   34 1
    22    9   35 1
    23   10   11 am
    24   10   36 1
    25   11   12 2
    26   11   13 am
    27   13   14 1
    28   13   37 1
    29   14   19 1
    30   14   23 1
    31   14   15 1
    32   15   16 1
    33   15   38 1
    34   15   39 1
    35   16   22 1
    36   16   17 1
    37   16   40 1
    38   17   18 1
    39   17   41 1
    40   17   42 1
    41   18   19 1
    42   18   20 1
    43   18   43 1
    44   19   44 1
    45   19   45 1
    46   20   21 1
    47   20   46 1
    48   20   47 1
    49   21   22 1
    50   21   23 1
    51   21   48 1
    52   22   49 1
    53   22   50 1
    54   23   51 1
    55   23   52 1
@<TRIPOS>MOLECULE
ZINC14880861
   54    54     0     0     0
SMALL
USER_CHARGES
3-cyclohexyl-1-decyl-urea
@<TRIPOS>ATOM
      1 C1          8.5272  -10.6977   -0.1368 C.3       1 <0>        -0.1543
      2 C2          7.0780  -10.2074   -0.1203 C.3       1 <0>        -0.1263
      3 C3          7.0572   -8.6776   -0.1119 C.3       1 <0>        -0.1212
      4 C4          5.6080   -8.1873   -0.0955 C.3       1 <0>        -0.1215
      5 C5          5.5873   -6.6574   -0.0870 C.3       1 <0>        -0.1205
      6 C6          4.1380   -6.1671   -0.0706 C.3       1 <0>        -0.1212
      7 C7          4.1173   -4.6373   -0.0622 C.3       1 <0>        -0.1190
      8 C8          2.6681   -4.1470   -0.0457 C.3       1 <0>        -0.1172
      9 C9          2.6473   -2.6171   -0.0373 C.3       1 <0>        -0.1311
     10 C10         1.1981   -2.1268   -0.0208 C.3       1 <0>         0.1370
     11 N1          1.1783   -0.6620   -0.0127 N.am      1 <0>        -0.7486
     12 C11         0.0021   -0.0041    0.0020 C.2       1 <0>         0.7026
     13 O1         -1.0425   -0.6263    0.0086 O.2       1 <0>        -0.5889
     14 N2         -0.0162    1.3436    0.0094 N.am      1 <0>        -0.7441
     15 C12        -1.2947    2.0587    0.0194 C.3       1 <0>         0.1634
     16 C13        -1.8080    2.2058   -1.4144 C.3       1 <0>        -0.1298
     17 C14        -3.1433    2.9527   -1.4040 C.3       1 <0>        -0.1179
     18 C15        -2.9472    4.3393   -0.7878 C.3       1 <0>        -0.1226
     19 C16        -2.4339    4.1923    0.6460 C.3       1 <0>        -0.1163
     20 C17        -1.0987    3.4453    0.6356 C.3       1 <0>        -0.1262
     21 H1          9.0445  -10.3322    0.7502 H         1 <0>         0.0533
     22 H2          8.5420  -11.7876   -0.1428 H         1 <0>         0.0535
     23 H3          9.0275  -10.3227   -1.0296 H         1 <0>         0.0533
     24 H4          6.5776  -10.5825    0.7725 H         1 <0>         0.0604
     25 H5          6.5606  -10.5729   -1.0074 H         1 <0>         0.0603
     26 H6          7.5576   -8.3025   -1.0047 H         1 <0>         0.0604
     27 H7          7.5746   -8.3121    0.7751 H         1 <0>         0.0604
     28 H8          5.1077   -8.5623    0.7973 H         1 <0>         0.0608
     29 H9          5.0907   -8.5528   -0.9825 H         1 <0>         0.0608
     30 H10         6.0876   -6.2824   -0.9798 H         1 <0>         0.0605
     31 H11         6.1046   -6.2919    0.8000 H         1 <0>         0.0605
     32 H12         3.6377   -6.5422    0.8222 H         1 <0>         0.0617
     33 H13         3.6207   -6.5326   -0.9576 H         1 <0>         0.0616
     34 H14         4.6176   -4.2622   -0.9550 H         1 <0>         0.0616
     35 H15         4.6346   -4.2718    0.8249 H         1 <0>         0.0616
     36 H16         2.1677   -4.5220    0.8471 H         1 <0>         0.0660
     37 H17         2.1508   -4.5125   -0.9327 H         1 <0>         0.0659
     38 H18         3.1477   -2.2421   -0.9301 H         1 <0>         0.0685
     39 H19         3.1647   -2.2516    0.8498 H         1 <0>         0.0686
     40 H20         0.6978   -2.5019    0.8720 H         1 <0>         0.0658
     41 H21         0.6808   -2.4923   -0.9079 H         1 <0>         0.0657
     42 H22         2.0116   -0.1656   -0.0180 H         1 <0>         0.3954
     43 H23         0.8172    1.8399    0.0041 H         1 <0>         0.3944
     44 H24        -2.0200    1.4982    0.6092 H         1 <0>         0.0882
     45 H25        -1.0827    2.7663   -2.0043 H         1 <0>         0.0617
     46 H26        -1.9477    1.2179   -1.8535 H         1 <0>         0.0673
     47 H27        -3.8685    2.3922   -0.8142 H         1 <0>         0.0649
     48 H28        -3.5089    3.0575   -2.4255 H         1 <0>         0.0648
     49 H29        -3.8985    4.8714   -0.7804 H         1 <0>         0.0644
     50 H30        -2.2220    4.8998   -1.3776 H         1 <0>         0.0624
     51 H31        -3.1592    3.6317    1.2359 H         1 <0>         0.0658
     52 H32        -2.2943    5.1801    1.0850 H         1 <0>         0.0676
     53 H33        -0.7330    3.3406    1.6571 H         1 <0>         0.0682
     54 H34        -0.3734    4.0058    0.0458 H         1 <0>         0.0672
@<TRIPOS>BOND
     1    1    2 1
     2    1   21 1
     3    1   22 1
     4    1   23 1
     5    2    3 1
     6    2   24 1
     7    2   25 1
     8    3    4 1
     9    3   26 1
    10    3   27 1
    11    4    5 1
    12    4   28 1
    13    4   29 1
    14    5    6 1
    15    5   30 1
    16    5   31 1
    17    6    7 1
    18    6   32 1
    19    6   33 1
    20    7    8 1
    21    7   34 1
    22    7   35 1
    23    8    9 1
    24    8   36 1
    25    8   37 1
    26    9   10 1
    27    9   38 1
    28    9   39 1
    29   10   11 1
    30   10   40 1
    31   10   41 1
    32   11   12 am
    33   11   42 1
    34   12   13 2
    35   12   14 am
    36   14   15 1
    37   14   43 1
    38   15   20 1
    39   15   16 1
    40   15   44 1
    41   16   17 1
    42   16   45 1
    43   16   46 1
    44   17   18 1
    45   17   47 1
    46   17   48 1
    47   18   19 1
    48   18   49 1
    49   18   50 1
    50   19   20 1
    51   19   51 1
    52   19   52 1
    53   20   53 1
    54   20   54 1
@<TRIPOS>MOLECULE
ZINC06169764
   37    37     0     0     0
SMALL
USER_CHARGES
3-cyclohexyl-1-(3-methoxypropyl)urea
@<TRIPOS>ATOM
      1 C1          4.1538   -6.0278   -0.0700 C.3       1 <0>         0.0312
      2 O1          4.0216   -4.6049   -0.0611 O.3       1 <0>        -0.3931
      3 C2          2.6681   -4.1470   -0.0457 C.3       1 <0>         0.0638
      4 C3          2.6473   -2.6171   -0.0373 C.3       1 <0>        -0.1313
      5 C4          1.1981   -2.1268   -0.0208 C.3       1 <0>         0.1414
      6 N1          1.1783   -0.6620   -0.0127 N.am      1 <0>        -0.7472
      7 C5          0.0021   -0.0041    0.0020 C.2       1 <0>         0.7041
      8 O2         -1.0425   -0.6263    0.0086 O.2       1 <0>        -0.5885
      9 N2         -0.0162    1.3436    0.0094 N.am      1 <0>        -0.7432
     10 C6         -1.2947    2.0587    0.0194 C.3       1 <0>         0.1634
     11 C7         -1.8080    2.2058   -1.4144 C.3       1 <0>        -0.1300
     12 C8         -3.1433    2.9527   -1.4040 C.3       1 <0>        -0.1178
     13 C9         -2.9472    4.3393   -0.7878 C.3       1 <0>        -0.1227
     14 C10        -2.4339    4.1923    0.6460 C.3       1 <0>        -0.1163
     15 C11        -1.0987    3.4453    0.6356 C.3       1 <0>        -0.1263
     16 H1          3.6673   -6.4323   -0.9575 H         1 <0>         0.0429
     17 H2          5.2106   -6.2945   -0.0815 H         1 <0>         0.0878
     18 H3          3.6843   -6.4419    0.8223 H         1 <0>         0.0429
     19 H4          2.1677   -4.5220    0.8471 H         1 <0>         0.0539
     20 H5          2.1508   -4.5125   -0.9327 H         1 <0>         0.0539
     21 H6          3.1477   -2.2421   -0.9301 H         1 <0>         0.0785
     22 H7          3.1647   -2.2516    0.8498 H         1 <0>         0.0786
     23 H8          0.6978   -2.5019    0.8720 H         1 <0>         0.0689
     24 H9          0.6808   -2.4923   -0.9079 H         1 <0>         0.0688
     25 H10         2.0116   -0.1656   -0.0180 H         1 <0>         0.3972
     26 H11         0.8172    1.8399    0.0041 H         1 <0>         0.3951
     27 H12        -2.0200    1.4982    0.6092 H         1 <0>         0.0885
     28 H13        -1.0827    2.7663   -2.0043 H         1 <0>         0.0620
     29 H14        -1.9477    1.2179   -1.8535 H         1 <0>         0.0674
     30 H15        -3.8685    2.3922   -0.8142 H         1 <0>         0.0649
     31 H16        -3.5089    3.0575   -2.4255 H         1 <0>         0.0649
     32 H17        -3.8985    4.8714   -0.7804 H         1 <0>         0.0644
     33 H18        -2.2220    4.8998   -1.3776 H         1 <0>         0.0625
     34 H19        -3.1592    3.6317    1.2359 H         1 <0>         0.0658
     35 H20        -2.2943    5.1801    1.0850 H         1 <0>         0.0677
     36 H21        -0.7330    3.3406    1.6571 H         1 <0>         0.0685
     37 H22        -0.3734    4.0058    0.0458 H         1 <0>         0.0674
@<TRIPOS>BOND
     1    1    2 1
     2    1   16 1
     3    1   17 1
     4    1   18 1
     5    2    3 1
     6    3    4 1
     7    3   19 1
     8    3   20 1
     9    4    5 1
    10    4   21 1
    11    4   22 1
    12    5    6 1
    13    5   23 1
    14    5   24 1
    15    6    7 am
    16    6   25 1
    17    7    8 2
    18    7    9 am
    19    9   10 1
    20    9   26 1
    21   10   15 1
    22   10   11 1
    23   10   27 1
    24   11   12 1
    25   11   28 1
    26   11   29 1
    27   12   13 1
    28   12   30 1
    29   12   31 1
    30   13   14 1
    31   13   32 1
    32   13   33 1
    33   14   15 1
    34   14   34 1
    35   14   35 1
    36   15   36 1
    37   15   37 1
