@<TRIPOS>MOLECULE
ZINC22309089
   27    27     0     0     0
SMALL
USER_CHARGES

@<TRIPOS>ATOM
      1 C1         -0.0898    1.4497    0.3642 C.3       1 <0>        -0.1543
      2 C2         -0.0271   -0.0302   -0.0192 C.3       1 <0>        -1.0571
      3 O1          0.8227   -0.7239    0.8965 O.3       1 <0>        -0.2467
      4 C3          2.0976   -0.2679    1.0222 C.ar      1 <0>         0.1070
      5 C4          2.4836    0.8984    0.3784 C.ar      1 <0>        -0.0521
      6 C5          3.7786    1.3617    0.5061 C.ar      1 <0>        -0.1532
      7 C6          4.6929    0.6608    1.2785 C.ar      1 <0>         0.0307
      8 C7          4.3067   -0.5051    1.9230 C.ar      1 <0>        -0.1608
      9 C8          3.0105   -0.9660    1.7988 C.ar      1 <0>        -0.1646
     10 O2          5.9680    1.1163    1.4034 O.3       1 <0>        -0.5045
     11 P1          0.6388   -0.1925   -1.7085 P.3       1 <0>         2.1741
     12 O3         -0.2533    0.6264   -2.7024 O.2       1 <0>        -1.1568
     13 O4          2.1048    0.3586   -1.7471 O.3       1 <0>        -1.1259
     14 O5          0.6371   -1.7021   -2.1276 O.3       1 <0>        -1.1407
     15 P2         -1.7024   -0.7460    0.0450 P.3       1 <0>         2.3133
     16 O6         -1.6218   -2.2686   -0.2049 O.2       1 <0>        -1.0921
     17 O7         -2.3213   -0.4845    1.4363 O.3       1 <0>        -1.1285
     18 O8         -2.6212   -0.0642   -1.0878 O.3       1 <0>        -0.8798
     19 H1          0.8077    1.7191    0.9211 H         1 <0>         0.0622
     20 H2         -0.1529    2.0567   -0.5389 H         1 <0>         0.0614
     21 H3         -0.9688    1.6276    0.9837 H         1 <0>         0.0377
     22 H4          1.7717    1.4442   -0.2230 H         1 <0>         0.1653
     23 H5          4.0794    2.2695    0.0042 H         1 <0>         0.1049
     24 H6          5.0187   -1.0510    2.5241 H         1 <0>         0.1046
     25 H7          2.7087   -1.8718    2.3037 H         1 <0>         0.1127
     26 H8          6.0992    1.7189    2.1482 H         1 <0>         0.3546
     27 H9         -3.5285   -0.3978   -1.1118 H         1 <0>         0.3886
@<TRIPOS>BOND
     1    1    2 1
     2    1   19 1
     3    1   20 1
     4    1   21 1
     5    2    3 1
     6    2   11 1
     7    2   15 1
     8    3    4 1
     9    4    9 ar
    10    4    5 ar
    11    5    6 ar
    12    5   22 1
    13    6    7 ar
    14    6   23 1
    15    7    8 ar
    16    7   10 1
    17    8    9 ar
    18    8   24 1
    19    9   25 1
    20   10   26 1
    21   11   12 2
    22   11   13 1
    23   11   14 1
    24   15   16 2
    25   15   17 1
    26   15   18 1
    27   18   27 1
@<TRIPOS>MOLECULE
ZINC22309089
   28    28     0     0     0
SMALL
USER_CHARGES

@<TRIPOS>ATOM
      1 C1         -0.2328    1.5189    0.0677 C.3       1 <0>        -0.1543
      2 C2         -0.0061    0.0066    0.0162 C.3       1 <0>        -1.0437
      3 O1          0.8332   -0.3865    1.1039 O.3       1 <0>        -0.2673
      4 C3          2.0302    0.2481    1.2206 C.ar      1 <0>         0.0854
      5 C4          2.3492    1.2901    0.3626 C.ar      1 <0>        -0.0925
      6 C5          3.5651    1.9348    0.4812 C.ar      1 <0>        -0.1257
      7 C6          4.4668    1.5404    1.4585 C.ar      1 <0>         0.0461
      8 C7          4.1474    0.4990    2.3171 C.ar      1 <0>        -0.1440
      9 C8          2.9297   -0.1428    2.2013 C.ar      1 <0>        -0.1489
     10 O2          5.6641    2.1745    1.5746 O.3       1 <0>        -0.5019
     11 P1         -1.6088   -0.8527    0.1441 P.3       1 <0>         2.2547
     12 O3         -1.3720   -2.3785    0.2002 O.2       1 <0>        -1.0802
     13 O4         -2.3671   -0.3778    1.4826 O.3       1 <0>        -0.8998
     14 O5         -2.4761   -0.5111   -1.0880 O.3       1 <0>        -1.0600
     15 P2          0.7957   -0.4344   -1.5604 P.3       1 <0>         2.2523
     16 O6         -0.1205   -0.0270   -2.7358 O.2       1 <0>        -1.0652
     17 O7          2.1450    0.3090   -1.6776 O.3       1 <0>        -1.0766
     18 O8          1.0526   -2.0231   -1.6059 O.3       1 <0>        -0.8762
     19 H1          0.5895    1.9914    0.6050 H         1 <0>         0.0769
     20 H2         -0.2785    1.9141   -0.9471 H         1 <0>         0.0785
     21 H3         -1.1708    1.7284    0.5818 H         1 <0>         0.0468
     22 H4          1.6472    1.5972   -0.3984 H         1 <0>         0.1712
     23 H5          3.8138    2.7457   -0.1874 H         1 <0>         0.1183
     24 H6          4.8496    0.1917    3.0779 H         1 <0>         0.1171
     25 H7          2.6794   -0.9512    2.8723 H         1 <0>         0.1203
     26 H8          5.6505    2.9342    2.1728 H         1 <0>         0.3681
     27 H9          1.4777   -2.3297   -2.4185 H         1 <0>         0.3988
     28 H10        -3.2290   -0.7955    1.6156 H         1 <0>         0.4018
@<TRIPOS>BOND
     1    1    2 1
     2    1   19 1
     3    1   20 1
     4    1   21 1
     5    2    3 1
     6    2   11 1
     7    2   15 1
     8    3    4 1
     9    4    9 ar
    10    4    5 ar
    11    5    6 ar
    12    5   22 1
    13    6    7 ar
    14    6   23 1
    15    7    8 ar
    16    7   10 1
    17    8    9 ar
    18    8   24 1
    19    9   25 1
    20   10   26 1
    21   11   12 2
    22   11   13 1
    23   11   14 1
    24   13   28 1
    25   15   16 2
    26   15   17 1
    27   15   18 1
    28   18   27 1
