@<TRIPOS>MOLECULE
ZINC58660958
   57    60     0     0     0
SMALL
USER_CHARGES

@<TRIPOS>ATOM
      1 C1          0.3721    1.3777   -0.3055 C.3       1 <0>        -0.1988
      2 C2          0.1634   -0.1084   -0.0071 C.3       1 <0>        -0.0200
      3 N1          0.9255   -0.4786    1.1929 N.4       1 <0>        -0.3758
      4 C3          0.1113   -0.2220    2.3885 C.3       1 <0>         0.0685
      5 C4         -0.1137    1.2609    2.5342 C.2       1 <0>         0.0656
      6 C5         -1.2571    1.8625    2.0543 C.2       1 <0>        -0.2833
      7 C6         -1.3356    3.2123    2.2516 C.2       1 <0>         0.0494
      8 S1          0.0999    3.5603    3.0483 S.3       1 <0>         0.4981
      9 N2          0.7669    2.0280    3.1266 N.2       1 <0>        -0.5011
     10 N3         -2.3559    4.0847    1.8824 N.pl3     1 <0>        -0.5737
     11 C7         -2.2517    5.4363    2.1737 C.2       1 <0>         0.4571
     12 C8         -3.2900    6.3273    1.8053 C.2       1 <0>         0.1343
     13 N4         -4.4479    6.1600    1.1891 N.2       1 <0>        -0.4484
     14 C9         -5.0665    7.3337    1.0833 C.2       1 <0>         0.0363
     15 C10        -4.2758    8.2924    1.6534 C.2       1 <0>         0.0797
     16 N5         -3.1536    7.6597    2.1100 N.pl3     1 <0>        -0.3300
     17 C11        -2.0229    8.0863    2.7582 C.2       1 <0>        -0.0245
     18 C12        -1.0629    7.1998    3.0878 C.2       1 <0>         0.1199
     19 N6         -1.1882    5.8999    2.8001 N.2       1 <0>        -0.5252
     20 C13         0.1747    7.6823    3.7995 C.3       1 <0>        -0.0983
     21 C14        -4.5771    9.7385    1.7559 C.2       1 <0>        -0.1867
     22 C15        -5.7040   10.3628    1.3017 C.2       1 <0>         0.1025
     23 N7         -5.5866   11.6761    1.5904 N.pl3     1 <0>        -0.4612
     24 H1         -6.2389   12.3640    1.3850 H         1 <0>         0.4502
     25 N8         -4.3612   11.8742    2.2379 N.2       1 <0>        -0.2752
     26 C16        -3.7561   10.7211    2.3456 C.2       1 <0>         0.0592
     27 C17         1.2712   -1.9051    1.1328 C.3       1 <0>         0.0542
     28 C18         2.0649   -2.2906    2.3827 C.3       1 <0>        -0.1727
     29 C19        -0.0105   -2.7380    1.0654 C.3       1 <0>        -0.1711
     30 C20         2.1191   -2.1723   -0.1124 C.3       1 <0>         0.0671
     31 O1          2.4554   -3.5599   -0.1709 O.3       1 <0>        -0.5516
     32 H2          1.4092    1.5481   -0.5946 H         1 <0>         0.0782
     33 H3         -0.2865    1.6808   -1.1195 H         1 <0>         0.1048
     34 H4          0.1423    1.9628    0.5849 H         1 <0>         0.0876
     35 H5         -0.8962   -0.2997    0.1620 H         1 <0>         0.1316
     36 H6          0.5090   -0.7011   -0.8542 H         1 <0>         0.1322
     37 H7         -0.8494   -0.7273    2.2891 H         1 <0>         0.1474
     38 H8          0.6307   -0.5990    3.2695 H         1 <0>         0.1497
     39 H9         -2.0370    1.3055    1.5563 H         1 <0>         0.1608
     40 H10        -3.1397    3.7469    1.4214 H         1 <0>         0.4425
     41 H11        -6.0298    7.5005    0.6244 H         1 <0>         0.1933
     42 H12        -1.9019    9.1310    3.0039 H         1 <0>         0.1754
     43 H13         0.0146    7.6388    4.8768 H         1 <0>         0.0884
     44 H14         1.0189    7.0469    3.5317 H         1 <0>         0.0868
     45 H15         0.3858    8.7103    3.5047 H         1 <0>         0.0852
     46 H16        -6.5373    9.8913    0.8020 H         1 <0>         0.1909
     47 H17        -2.7932   10.5508    2.8043 H         1 <0>         0.1818
     48 H18         1.4608   -2.1003    3.2698 H         1 <0>         0.0831
     49 H19         2.3214   -3.3491    2.3381 H         1 <0>         0.1139
     50 H20         2.9779   -1.6972    2.4307 H         1 <0>         0.0806
     51 H21        -0.5759   -2.4633    0.1749 H         1 <0>         0.0798
     52 H22         0.2460   -3.7964    1.0208 H         1 <0>         0.1124
     53 H23        -0.6146   -2.5476    1.9525 H         1 <0>         0.0819
     54 H24         1.5537   -1.8976   -1.0029 H         1 <0>         0.0698
     55 H25         3.0322   -1.5789   -0.0644 H         1 <0>         0.0683
     56 H26         2.9938   -3.8022   -0.9368 H         1 <0>         0.4046
     57 H27         1.7707    0.0707    1.2374 H         1 <0>         0.4245
@<TRIPOS>BOND
     1    1    2 1
     2    1   32 1
     3    1   33 1
     4    1   34 1
     5    2    3 1
     6    2   35 1
     7    2   36 1
     8    3    4 1
     9    3   27 1
    10    3   57 1
    11    4    5 1
    12    4   37 1
    13    4   38 1
    14    5    9 2
    15    5    6 1
    16    6    7 2
    17    6   39 1
    18    7    8 1
    19    7   10 1
    20    8    9 1
    21   10   11 1
    22   10   40 1
    23   11   19 2
    24   11   12 1
    25   12   16 1
    26   12   13 2
    27   13   14 1
    28   14   15 2
    29   14   41 1
    30   15   16 1
    31   15   21 1
    32   16   17 1
    33   17   18 2
    34   17   42 1
    35   18   19 1
    36   18   20 1
    37   20   43 1
    38   20   44 1
    39   20   45 1
    40   21   26 1
    41   21   22 2
    42   22   23 1
    43   22   46 1
    44   23   24 1
    45   23   25 1
    46   25   26 2
    47   26   47 1
    48   27   28 1
    49   27   29 1
    50   27   30 1
    51   28   48 1
    52   28   49 1
    53   28   50 1
    54   29   51 1
    55   29   52 1
    56   29   53 1
    57   30   31 1
    58   30   54 1
    59   30   55 1
    60   31   56 1
@<TRIPOS>MOLECULE
ZINC03814434
   62    69     0     0     0
SMALL
USER_CHARGES

@<TRIPOS>ATOM
      1 C1         -0.1295    1.5952   -0.2973 C.3       1 <0>        -0.1687
      2 C2         -0.0862    0.0696   -0.1900 C.3       1 <0>         0.3342
      3 C3          0.5692   -0.4501   -1.4637 C.3       1 <0>         0.0405
      4 H1          1.4796    0.1159   -1.6612 H         1 <0>         0.1372
      5 C4          0.9167   -1.9328   -1.2889 C.3       1 <0>        -0.0061
      6 H2          1.3963   -2.3075   -2.1932 H         1 <0>         0.1555
      7 C5          1.8785   -2.0596   -0.1021 C.3       1 <0>        -0.1827
      8 C6          1.2061   -1.5198    1.1541 C.3       1 <0>         0.2999
      9 H3          1.9797   -1.4243    1.9161 H         1 <0>         0.1550
     10 O1          0.6555   -0.2442    0.9666 O.3       1 <0>        -0.3234
     11 N1          0.2189   -2.4746    1.6600 N.pl3     1 <0>        -0.5366
     12 C7          0.4705   -3.5508    2.4739 C.ar      1 <0>         0.1469
     13 C8          1.6649   -4.0152    3.0240 C.ar      1 <0>        -0.1522
     14 C9          1.5948   -5.1456    3.8201 C.ar      1 <0>        -0.0582
     15 C10         0.4006   -5.7997    4.0696 C.ar      1 <0>        -0.1457
     16 C11        -0.7984   -5.3597    3.5358 C.ar      1 <0>        -0.0280
     17 C12        -0.7487   -4.2198    2.7307 C.ar      1 <0>        -0.1131
     18 C13        -1.7893   -3.4830    2.0197 C.ar      1 <0>         0.0276
     19 C14        -1.1442   -2.4197    1.3841 C.ar      1 <0>         0.0376
     20 C15        -1.8806   -1.5095    0.6175 C.ar      1 <0>         0.0894
     21 N2         -1.4718   -0.3951   -0.1095 N.pl3     1 <0>        -0.5183
     22 C16        -2.5611    0.1913   -0.7090 C.ar      1 <0>         0.1618
     23 C17        -2.6521    1.3277   -1.5118 C.ar      1 <0>        -0.1305
     24 C18        -3.9109    1.6745   -1.9733 C.ar      1 <0>        -0.0737
     25 C19        -5.0393    0.9368   -1.6616 C.ar      1 <0>        -0.1358
     26 C20        -4.9745   -0.1955   -0.8662 C.ar      1 <0>        -0.0503
     27 C21        -3.7147   -0.5596   -0.3919 C.ar      1 <0>        -0.1042
     28 C22        -3.2693   -1.6660    0.4845 C.ar      1 <0>        -0.0360
     29 C23        -3.9084   -2.7313    1.1102 C.ar      1 <0>        -0.0288
     30 C24        -3.1873   -3.6421    1.8754 C.ar      1 <0>        -0.1255
     31 C25        -4.1221   -4.6480    2.4030 C.2       1 <0>         0.5632
     32 O2         -3.8062   -5.5851    3.1110 O.2       1 <0>        -0.5106
     33 N3         -5.3744   -4.3851    1.9926 N.am      1 <0>        -0.7162
     34 C26        -5.3495   -3.1771    1.1601 C.3       1 <0>         0.1358
     35 N4         -0.3067   -2.7008   -1.0216 N.4       1 <0>        -0.5252
     36 C27         0.0145   -4.1336   -0.9773 C.3       1 <0>        -0.0497
     37 O3         -0.3340   -0.2979   -2.5607 O.3       1 <0>        -0.3614
     38 C28         0.3101   -0.0933   -3.8198 C.3       1 <0>         0.0162
     39 H4          0.8261    2.0094    0.0240 H         1 <0>         0.0984
     40 H5         -0.3202    1.8814   -1.3317 H         1 <0>         0.1036
     41 H6         -0.9255    1.9818    0.3392 H         1 <0>         0.0921
     42 H7          2.1370   -3.1081    0.0458 H         1 <0>         0.1233
     43 H8          2.7835   -1.4869   -0.3048 H         1 <0>         0.1455
     44 H9          2.6036   -3.5149    2.8368 H         1 <0>         0.1365
     45 H10         2.5026   -5.5304    4.2610 H         1 <0>         0.1359
     46 H11         0.4045   -6.6780    4.6980 H         1 <0>         0.1352
     47 H12        -1.7278   -5.8736    3.7323 H         1 <0>         0.1600
     48 H13        -1.7792    1.9122   -1.7624 H         1 <0>         0.1440
     49 H14        -4.0153    2.5500   -2.5970 H         1 <0>         0.1336
     50 H15        -5.9967    1.2527   -2.0488 H         1 <0>         0.1332
     51 H16        -5.8575   -0.7687   -0.6249 H         1 <0>         0.1415
     52 H17        -6.1628   -4.9065    2.2103 H         1 <0>         0.4348
     53 H18        -5.9671   -2.3994    1.6094 H         1 <0>         0.1115
     54 H19        -5.7060   -3.4063    0.1559 H         1 <0>         0.1103
     55 H20        -0.6958   -2.4158   -0.1353 H         1 <0>         0.4186
     56 H21         0.4349   -4.4415   -1.9347 H         1 <0>         0.1256
     57 H22         0.7403   -4.3189   -0.1854 H         1 <0>         0.1191
     58 H23        -0.8932   -4.7035   -0.7789 H         1 <0>         0.1256
     59 H24         0.9168    0.8112   -3.7748 H         1 <0>         0.0633
     60 H25         0.9482   -0.9479   -4.0446 H         1 <0>         0.0514
     61 H26        -0.4433    0.0130   -4.6003 H         1 <0>         0.1100
     62 H27        -0.9785   -2.5293   -1.7546 H         1 <0>         0.4274
@<TRIPOS>BOND
     1    1    2 1
     2    1   39 1
     3    1   40 1
     4    1   41 1
     5    2   10 1
     6    2   21 1
     7    2    3 1
     8    3    4 1
     9    3    5 1
    10    3   37 1
    11    5    6 1
    12    5    7 1
    13    5   35 1
    14    7    8 1
    15    7   42 1
    16    7   43 1
    17    8    9 1
    18    8   10 1
    19    8   11 1
    20   11   19 1
    21   11   12 1
    22   12   17 ar
    23   12   13 ar
    24   13   14 ar
    25   13   44 1
    26   14   15 ar
    27   14   45 1
    28   15   16 ar
    29   15   46 1
    30   16   17 ar
    31   16   47 1
    32   17   18 1
    33   18   30 ar
    34   18   19 ar
    35   19   20 ar
    36   20   28 ar
    37   20   21 1
    38   21   22 1
    39   22   27 ar
    40   22   23 ar
    41   23   24 ar
    42   23   48 1
    43   24   25 ar
    44   24   49 1
    45   25   26 ar
    46   25   50 1
    47   26   27 ar
    48   26   51 1
    49   27   28 1
    50   28   29 ar
    51   29   34 1
    52   29   30 ar
    53   30   31 1
    54   31   32 2
    55   31   33 am
    56   33   34 1
    57   33   52 1
    58   34   53 1
    59   34   54 1
    60   35   36 1
    61   35   55 1
    62   35   62 1
    63   36   56 1
    64   36   57 1
    65   36   58 1
    66   37   38 1
    67   38   59 1
    68   38   60 1
    69   38   61 1
@<TRIPOS>MOLECULE
ZINC05033955
   31    33     0     0     0
SMALL
USER_CHARGES

@<TRIPOS>ATOM
      1 C1         -0.0184    1.3751   -0.0180 C.ar      1 <0>        -0.1018
      2 C2          1.1675    2.0901   -0.0147 C.ar      1 <0>        -0.1000
      3 C3          2.3792    1.4288   -0.0204 C.ar      1 <0>        -0.0978
      4 C4          2.4096    0.0412   -0.0289 C.ar      1 <0>         0.0778
      5 C5          1.2137   -0.6797   -0.0318 C.ar      1 <0>         0.0814
      6 C6          0.0008   -0.0052   -0.0265 C.ar      1 <0>        -0.0966
      7 N1          1.5486   -2.0299   -0.0405 N.pl3     1 <0>        -0.5870
      8 H1          0.9226   -2.7708   -0.0445 H         1 <0>         0.4470
      9 C7          2.9049   -2.1327   -0.0429 C.2       1 <0>         0.6571
     10 N2          3.4473   -0.8853   -0.0360 N.pl3     1 <0>        -0.6066
     11 N3          3.5905   -3.2699   -0.0508 N.2       1 <0>        -0.6646
     12 C8          4.9229   -3.2467   -0.1648 C.2       1 <0>         0.5498
     13 O1          5.5159   -2.1822   -0.1652 O.2       1 <0>        -0.5752
     14 C9          5.6776   -4.5150   -0.2908 C.ar      1 <0>        -0.1089
     15 C10         5.0010   -5.7349   -0.2964 C.ar      1 <0>        -0.0097
     16 C11         5.7095   -6.9128   -0.4140 C.ar      1 <0>        -0.1307
     17 C12         7.0884   -6.8858   -0.5261 C.ar      1 <0>        -0.0326
     18 C13         7.7650   -5.6793   -0.5206 C.ar      1 <0>        -0.0617
     19 C14         7.0669   -4.4940   -0.4099 C.ar      1 <0>        -0.0053
     20 N4          9.2402   -5.6592   -0.6405 N.pl3     1 <0>         0.0338
     21 O2          9.8525   -6.6966   -0.7430 O.2       1 <0>        -0.1545
     22 O3          9.8328   -4.6054   -0.6359 O.3       1 <0>        -0.1547
     23 H2         -0.9625    1.8996   -0.0094 H         1 <0>         0.1404
     24 H3          1.1443    3.1698   -0.0081 H         1 <0>         0.1399
     25 H4          3.3019    1.9901   -0.0185 H         1 <0>         0.1365
     26 H5         -0.9264   -0.5591   -0.0290 H         1 <0>         0.1376
     27 H6          4.3947   -0.6775   -0.0360 H         1 <0>         0.4517
     28 H7          3.9248   -5.7572   -0.2086 H         1 <0>         0.1596
     29 H8          5.1869   -7.8579   -0.4181 H         1 <0>         0.1547
     30 H9          7.6387   -7.8106   -0.6178 H         1 <0>         0.1578
     31 H10         7.5959   -3.5524   -0.4106 H         1 <0>         0.1628
@<TRIPOS>BOND
     1    1    6 ar
     2    1    2 ar
     3    1   23 1
     4    2    3 ar
     5    2   24 1
     6    3    4 ar
     7    3   25 1
     8    4   10 1
     9    4    5 ar
    10    5    6 ar
    11    5    7 1
    12    6   26 1
    13    7    9 1
    14    7    8 1
    15    9   11 2
    16    9   10 1
    17   10   27 1
    18   11   12 1
    19   12   14 1
    20   12   13 2
    21   14   19 ar
    22   14   15 ar
    23   15   16 ar
    24   15   28 1
    25   16   17 ar
    26   16   29 1
    27   17   18 ar
    28   17   30 1
    29   18   19 ar
    30   18   20 1
    31   19   31 1
    32   20   21 2
    33   20   22 1
@<TRIPOS>MOLECULE
ZINC10237337
   37    39     0     0     0
SMALL
USER_CHARGES

@<TRIPOS>ATOM
      1 C1         -0.0321    1.5051    0.0201 C.3       1 <0>        -0.1724
      2 C2         -0.0010   -0.0245    0.0092 C.3       1 <0>         0.1232
      3 N1          0.6853   -0.4904   -1.1983 N.pl3     1 <0>        -0.4834
      4 C3          0.0853   -0.7604   -2.4241 C.ar      1 <0>         0.0834
      5 C4         -1.2262   -0.6887   -2.8725 C.ar      1 <0>        -0.0971
      6 C5         -1.5268   -1.0291   -4.1761 C.ar      1 <0>        -0.1022
      7 C6         -0.5254   -1.4419   -5.0388 C.ar      1 <0>        -0.1019
      8 C7          0.7822   -1.5167   -4.6028 C.ar      1 <0>        -0.0976
      9 C8          1.0951   -1.1767   -3.2941 C.ar      1 <0>         0.0769
     10 N2          2.2885   -1.1513   -2.5796 N.pl3     1 <0>        -0.6081
     11 C9          2.0195   -0.7276   -1.3154 C.2       1 <0>         0.6529
     12 N3          2.9163   -0.5736   -0.3482 N.2       1 <0>        -0.6630
     13 C10         4.1860   -0.9429   -0.5485 C.2       1 <0>         0.5481
     14 O1          4.5415   -1.3309   -1.6476 O.2       1 <0>        -0.5777
     15 C11         5.1601   -0.8801    0.5655 C.ar      1 <0>        -0.1074
     16 C12         4.7549   -0.4417    1.8263 C.ar      1 <0>        -0.0101
     17 C13         5.6668   -0.3854    2.8599 C.ar      1 <0>        -0.1307
     18 C14         6.9813   -0.7622    2.6479 C.ar      1 <0>        -0.0333
     19 C15         7.3893   -1.1974    1.3999 C.ar      1 <0>        -0.0615
     20 C16         6.4848   -1.2644    0.3597 C.ar      1 <0>        -0.0060
     21 N4          8.7973   -1.5982    1.1814 N.pl3     1 <0>         0.0338
     22 O2          9.5894   -1.5451    2.0932 O.2       1 <0>        -0.1548
     23 O3          9.1552   -1.9787    0.0911 O.3       1 <0>        -0.1549
     24 H1          0.9878    1.8894    0.0108 H         1 <0>         0.0678
     25 H2         -0.5637    1.8640   -0.8612 H         1 <0>         0.0607
     26 H3         -0.5428    1.8517    0.9186 H         1 <0>         0.0814
     27 H4          0.5306   -0.3834    0.8906 H         1 <0>         0.1063
     28 H5         -1.0210   -0.4088    0.0186 H         1 <0>         0.0950
     29 H6         -2.0102   -0.3676   -2.2027 H         1 <0>         0.1348
     30 H7         -2.5475   -0.9736   -4.5245 H         1 <0>         0.1393
     31 H8         -0.7685   -1.7069   -6.0572 H         1 <0>         0.1391
     32 H9          1.5603   -1.8394   -5.2787 H         1 <0>         0.1357
     33 H10         3.7294   -0.1466    1.9928 H         1 <0>         0.1589
     34 H11         5.3543   -0.0461    3.8365 H         1 <0>         0.1544
     35 H12         7.6916   -0.7161    3.4601 H         1 <0>         0.1575
     36 H13         6.8034   -1.6089   -0.6131 H         1 <0>         0.1624
     37 H14         3.1629   -1.3906   -2.9248 H         1 <0>         0.4507
@<TRIPOS>BOND
     1    1    2 1
     2    1   24 1
     3    1   25 1
     4    1   26 1
     5    2    3 1
     6    2   27 1
     7    2   28 1
     8    3   11 1
     9    3    4 1
    10    4    9 ar
    11    4    5 ar
    12    5    6 ar
    13    5   29 1
    14    6    7 ar
    15    6   30 1
    16    7    8 ar
    17    7   31 1
    18    8    9 ar
    19    8   32 1
    20    9   10 1
    21   10   11 1
    22   10   37 1
    23   11   12 2
    24   12   13 1
    25   13   14 2
    26   13   15 1
    27   15   20 ar
    28   15   16 ar
    29   16   17 ar
    30   16   33 1
    31   17   18 ar
    32   17   34 1
    33   18   19 ar
    34   18   35 1
    35   19   20 ar
    36   19   21 1
    37   20   36 1
    38   21   22 2
    39   21   23 1
@<TRIPOS>MOLECULE
ZINC22448983
   66    69     0     0     0
SMALL
USER_CHARGES
4-[(2,4-dichloro-5-methoxy-phenyl)amino]-6-methoxy-7-[3-(4-methylpiperazin-1-yl)propoxy]quinoline-3-carbonitrile
@<TRIPOS>ATOM
      1 C1        -10.0137   -6.5102   -1.8158 C.3       1 <0>        -0.0453
      2 N1         -8.6540   -6.0169   -1.5593 N.4       1 <0>        -0.4030
      3 C2         -7.7903   -6.2205   -2.7307 C.3       1 <0>        -0.0001
      4 C3         -6.3670   -5.7678   -2.3965 C.3       1 <0>         0.0245
      5 N2         -6.3862   -4.3530   -1.9994 N.3       1 <0>        -0.5385
      6 C4         -7.2499   -4.1494   -0.8281 C.3       1 <0>         0.0179
      7 C5         -8.6733   -4.6021   -1.1623 C.3       1 <0>         0.0000
      8 C6         -5.0265   -3.8597   -1.7430 C.3       1 <0>         0.0567
      9 C7         -5.0583   -2.3389   -1.5783 C.3       1 <0>        -0.1184
     10 C8         -3.6421   -1.8251   -1.3112 C.3       1 <0>         0.0518
     11 O1         -3.6719   -0.4047   -1.1574 O.3       1 <0>        -0.2957
     12 C9         -2.4875    0.2141   -0.9129 C.ar      1 <0>         0.1552
     13 C10        -1.3345   -0.5326   -0.8253 C.ar      1 <0>        -0.1775
     14 C11        -0.1099    0.1042   -0.5728 C.ar      1 <0>         0.1880
     15 C12        -0.0839    1.5107   -0.4123 C.ar      1 <0>        -0.1309
     16 C13        -1.2740    2.2476   -0.5007 C.ar      1 <0>        -0.1492
     17 C14        -2.4527    1.6062   -0.7522 C.ar      1 <0>         0.1113
     18 O2         -3.6043    2.3237   -0.8425 O.3       1 <0>        -0.3022
     19 C15        -3.5023    3.7385   -0.6693 C.3       1 <0>         0.0181
     20 C16         1.1518    2.1498   -0.1579 C.ar      1 <0>         0.3245
     21 C17         2.2996    1.3468   -0.0768 C.ar      1 <0>        -0.1668
     22 C18         2.1804   -0.0418   -0.2488 C.ar      1 <0>         0.2178
     23 N3          1.0238   -0.6069   -0.4836 N.ar      1 <0>        -0.5049
     24 C19         3.5791    1.9370    0.1785 C.1       1 <0>         0.2512
     25 N4          4.5940    2.4052    0.3811 N.1       1 <0>        -0.4037
     26 N5          1.2264    3.5186    0.0048 N.pl3     1 <0>        -0.6798
     27 C20         2.4372    4.1835   -0.2122 C.ar      1 <0>         0.1811
     28 C21         3.1043    4.7773    0.8508 C.ar      1 <0>        -0.1911
     29 C22         4.3041    5.4350    0.6325 C.ar      1 <0>         0.1715
     30 C23         4.8372    5.4992   -0.6482 C.ar      1 <0>        -0.0467
     31 C24         4.1721    4.9075   -1.7063 C.ar      1 <0>        -0.0516
     32 C25         2.9774    4.2459   -1.4914 C.ar      1 <0>        -0.0699
     33 Cl1         2.1481    3.4984   -2.8208 Cl        1 <0>        -0.0422
     34 Cl2         6.3403    6.3238   -0.9213 Cl        1 <0>        -0.0317
     35 O3          4.9590    6.0176    1.6716 O.3       1 <0>        -0.2942
     36 C26         4.4145    5.8149    2.9772 C.3       1 <0>         0.0202
     37 H1         -9.9701   -7.5691   -2.1104 H         1 <0>         0.1247
     38 H2        -10.4701   -5.9227   -2.6260 H         1 <0>         0.1201
     39 H3        -10.6190   -6.4082   -0.9030 H         1 <0>         0.1247
     40 H4         -7.7832   -7.2870   -3.0001 H         1 <0>         0.1368
     41 H5         -8.1745   -5.6313   -3.5764 H         1 <0>         0.1352
     42 H6         -5.9734   -6.3765   -1.5691 H         1 <0>         0.0623
     43 H7         -5.7253   -5.8927   -3.2811 H         1 <0>         0.1248
     44 H8         -6.8657   -4.7386    0.0176 H         1 <0>         0.0625
     45 H9         -7.2570   -3.0829   -0.5587 H         1 <0>         0.1270
     46 H10        -9.0676   -3.9944   -1.9901 H         1 <0>         0.1353
     47 H11        -9.3157   -4.4781   -0.2780 H         1 <0>         0.1365
     48 H12        -4.6368   -4.3201   -0.8231 H         1 <0>         0.0524
     49 H13        -4.3751   -4.1233   -2.5893 H         1 <0>         0.0947
     50 H14        -5.4480   -1.8786   -2.4982 H         1 <0>         0.0902
     51 H15        -5.7097   -2.0753   -0.7320 H         1 <0>         0.0766
     52 H16        -3.2525   -2.2855   -0.3913 H         1 <0>         0.0692
     53 H17        -2.9907   -2.0887   -2.1575 H         1 <0>         0.0725
     54 H18        -1.3723   -1.6047   -0.9499 H         1 <0>         0.1520
     55 H19        -1.2569    3.3205   -0.3782 H         1 <0>         0.1400
     56 H20        -4.4995    4.1926   -0.7662 H         1 <0>         0.1079
     57 H21        -2.8337    4.1546   -1.4373 H         1 <0>         0.0600
     58 H22        -3.0952    3.9573    0.3289 H         1 <0>         0.0585
     59 H23         3.0649   -0.6582   -0.1860 H         1 <0>         0.1683
     60 H24         0.3333    4.0863    0.3052 H         1 <0>         0.4433
     61 H25         2.6888    4.7264    1.8464 H         1 <0>         0.1497
     62 H26         4.5888    4.9585   -2.7013 H         1 <0>         0.1559
     63 H27         5.0369    6.3367    3.7191 H         1 <0>         0.1117
     64 H28         4.3977    4.7388    3.2044 H         1 <0>         0.0607
     65 H29         3.3898    6.2132    3.0130 H         1 <0>         0.0594
     66 H30        -8.2365   -6.5985   -0.7241 H         1 <0>         0.4406
@<TRIPOS>BOND
     1    1    2 1
     2    1   37 1
     3    1   38 1
     4    1   39 1
     5    2    7 1
     6    2    3 1
     7    2   66 1
     8    3    4 1
     9    3   40 1
    10    3   41 1
    11    4    5 1
    12    4   42 1
    13    4   43 1
    14    5    6 1
    15    5    8 1
    16    6    7 1
    17    6   44 1
    18    6   45 1
    19    7   46 1
    20    7   47 1
    21    8    9 1
    22    8   48 1
    23    8   49 1
    24    9   10 1
    25    9   50 1
    26    9   51 1
    27   10   11 1
    28   10   52 1
    29   10   53 1
    30   11   12 1
    31   12   17 ar
    32   12   13 ar
    33   13   14 ar
    34   13   54 1
    35   14   23 ar
    36   14   15 ar
    37   15   16 ar
    38   15   20 ar
    39   16   17 ar
    40   16   55 1
    41   17   18 1
    42   18   19 1
    43   19   56 1
    44   19   57 1
    45   19   58 1
    46   20   21 ar
    47   20   26 1
    48   21   22 ar
    49   21   24 1
    50   22   23 ar
    51   22   59 1
    52   24   25 3
    53   26   27 1
    54   26   60 1
    55   27   32 ar
    56   27   28 ar
    57   28   29 ar
    58   28   61 1
    59   29   30 ar
    60   29   35 1
    61   30   31 ar
    62   30   34 1
    63   31   32 ar
    64   31   62 1
    65   32   33 1
    66   35   36 1
    67   36   63 1
    68   36   64 1
    69   36   65 1
@<TRIPOS>MOLECULE
ZINC22448983
   66    69     0     0     0
SMALL
USER_CHARGES
4-[(2,4-dichloro-5-methoxy-phenyl)amino]-6-methoxy-7-[3-(4-methylpiperazin-1-yl)propoxy]quinoline-3-carbonitrile
@<TRIPOS>ATOM
      1 C1        -10.0137   -6.5102   -1.8158 C.3       1 <0>         0.0169
      2 N1         -8.6540   -6.0169   -1.5593 N.3       1 <0>        -0.5441
      3 C2         -7.7903   -6.2205   -2.7307 C.3       1 <0>         0.0228
      4 C3         -6.3670   -5.7678   -2.3965 C.3       1 <0>         0.0009
      5 N2         -6.3862   -4.3530   -1.9994 N.4       1 <0>        -0.3998
      6 C4         -7.2499   -4.1494   -0.8281 C.3       1 <0>        -0.0049
      7 C5         -8.6733   -4.6021   -1.1623 C.3       1 <0>         0.0237
      8 C6         -5.0265   -3.8597   -1.7430 C.3       1 <0>        -0.0032
      9 C7         -5.0583   -2.3389   -1.5783 C.3       1 <0>        -0.1498
     10 C8         -3.6421   -1.8251   -1.3112 C.3       1 <0>         0.0546
     11 O1         -3.6719   -0.4047   -1.1574 O.3       1 <0>        -0.2954
     12 C9         -2.4875    0.2141   -0.9129 C.ar      1 <0>         0.1508
     13 C10        -1.3345   -0.5326   -0.8253 C.ar      1 <0>        -0.1739
     14 C11        -0.1099    0.1042   -0.5728 C.ar      1 <0>         0.1865
     15 C12        -0.0839    1.5107   -0.4123 C.ar      1 <0>        -0.1289
     16 C13        -1.2740    2.2476   -0.5007 C.ar      1 <0>        -0.1461
     17 C14        -2.4527    1.6062   -0.7522 C.ar      1 <0>         0.1109
     18 O2         -3.6043    2.3237   -0.8425 O.3       1 <0>        -0.3036
     19 C15        -3.5023    3.7385   -0.6693 C.3       1 <0>         0.0176
     20 C16         1.1518    2.1498   -0.1579 C.ar      1 <0>         0.3244
     21 C17         2.2996    1.3468   -0.0768 C.ar      1 <0>        -0.1637
     22 C18         2.1804   -0.0418   -0.2488 C.ar      1 <0>         0.2201
     23 N3          1.0238   -0.6069   -0.4836 N.ar      1 <0>        -0.5059
     24 C19         3.5791    1.9370    0.1785 C.1       1 <0>         0.2491
     25 N4          4.5940    2.4052    0.3811 N.1       1 <0>        -0.4000
     26 N5          1.2264    3.5186    0.0048 N.pl3     1 <0>        -0.6785
     27 C20         2.4372    4.1835   -0.2122 C.ar      1 <0>         0.1791
     28 C21         3.1043    4.7773    0.8508 C.ar      1 <0>        -0.1908
     29 C22         4.3041    5.4350    0.6325 C.ar      1 <0>         0.1720
     30 C23         4.8372    5.4992   -0.6482 C.ar      1 <0>        -0.0462
     31 C24         4.1721    4.9075   -1.7063 C.ar      1 <0>        -0.0515
     32 C25         2.9774    4.2459   -1.4914 C.ar      1 <0>        -0.0696
     33 Cl1         2.1481    3.4984   -2.8208 Cl        1 <0>        -0.0433
     34 Cl2         6.3403    6.3238   -0.9213 Cl        1 <0>        -0.0302
     35 O3          4.9590    6.0176    1.6716 O.3       1 <0>        -0.2936
     36 C26         4.4145    5.8149    2.9772 C.3       1 <0>         0.0200
     37 H1         -9.9701   -7.5691   -2.1104 H         1 <0>         0.0846
     38 H2        -10.4701   -5.9227   -2.6260 H         1 <0>         0.0401
     39 H3        -10.6190   -6.4082   -0.9030 H         1 <0>         0.0850
     40 H4         -7.7832   -7.2870   -3.0001 H         1 <0>         0.1245
     41 H5         -8.1745   -5.6313   -3.5764 H         1 <0>         0.0612
     42 H6         -5.9734   -6.3765   -1.5691 H         1 <0>         0.1366
     43 H7         -5.7253   -5.8927   -3.2811 H         1 <0>         0.1378
     44 H8         -6.8657   -4.7386    0.0176 H         1 <0>         0.1367
     45 H9         -7.2570   -3.0829   -0.5587 H         1 <0>         0.1381
     46 H10        -9.0676   -3.9944   -1.9901 H         1 <0>         0.0613
     47 H11        -9.3157   -4.4781   -0.2780 H         1 <0>         0.1241
     48 H12        -4.6368   -4.3201   -0.8231 H         1 <0>         0.1339
     49 H13        -4.3751   -4.1233   -2.5893 H         1 <0>         0.1372
     50 H14        -5.4480   -1.8786   -2.4982 H         1 <0>         0.1006
     51 H15        -5.7097   -2.0753   -0.7320 H         1 <0>         0.0999
     52 H16        -3.2525   -2.2855   -0.3913 H         1 <0>         0.0789
     53 H17        -2.9907   -2.0887   -2.1575 H         1 <0>         0.0790
     54 H18        -1.3723   -1.6047   -0.9499 H         1 <0>         0.1517
     55 H19        -1.2569    3.3205   -0.3782 H         1 <0>         0.1413
     56 H20        -4.4995    4.1926   -0.7662 H         1 <0>         0.1090
     57 H21        -2.8337    4.1546   -1.4373 H         1 <0>         0.0608
     58 H22        -3.0952    3.9573    0.3289 H         1 <0>         0.0597
     59 H23         3.0649   -0.6582   -0.1860 H         1 <0>         0.1696
     60 H24         0.3333    4.0863    0.3052 H         1 <0>         0.4436
     61 H25         2.6888    4.7264    1.8464 H         1 <0>         0.1501
     62 H26         4.5888    4.9585   -2.7013 H         1 <0>         0.1563
     63 H27         5.0369    6.3367    3.7191 H         1 <0>         0.1123
     64 H28         4.3977    4.7388    3.2044 H         1 <0>         0.0608
     65 H29         3.3898    6.2132    3.0130 H         1 <0>         0.0596
     66 H30        -6.8037   -3.7713   -2.8345 H         1 <0>         0.4393
@<TRIPOS>BOND
     1    1    2 1
     2    1   37 1
     3    1   38 1
     4    1   39 1
     5    2    7 1
     6    2    3 1
     7    3    4 1
     8    3   40 1
     9    3   41 1
    10    4    5 1
    11    4   42 1
    12    4   43 1
    13    5    6 1
    14    5    8 1
    15    5   66 1
    16    6    7 1
    17    6   44 1
    18    6   45 1
    19    7   46 1
    20    7   47 1
    21    8    9 1
    22    8   48 1
    23    8   49 1
    24    9   10 1
    25    9   50 1
    26    9   51 1
    27   10   11 1
    28   10   52 1
    29   10   53 1
    30   11   12 1
    31   12   17 ar
    32   12   13 ar
    33   13   14 ar
    34   13   54 1
    35   14   23 ar
    36   14   15 ar
    37   15   16 ar
    38   15   20 ar
    39   16   17 ar
    40   16   55 1
    41   17   18 1
    42   18   19 1
    43   19   56 1
    44   19   57 1
    45   19   58 1
    46   20   21 ar
    47   20   26 1
    48   21   22 ar
    49   21   24 1
    50   22   23 ar
    51   22   59 1
    52   24   25 3
    53   26   27 1
    54   26   60 1
    55   27   32 ar
    56   27   28 ar
    57   28   29 ar
    58   28   61 1
    59   29   30 ar
    60   29   35 1
    61   30   31 ar
    62   30   34 1
    63   31   32 ar
    64   31   62 1
    65   32   33 1
    66   35   36 1
    67   36   63 1
    68   36   64 1
    69   36   65 1
@<TRIPOS>MOLECULE
ZINC49765554
   52    54     0     0     0
SMALL
USER_CHARGES

@<TRIPOS>ATOM
      1 C1          0.5015    1.7050   -2.4872 C.3       1 <0>        -0.1884
      2 C2          0.0552    0.2436   -2.4080 C.3       1 <0>        -0.0187
      3 N1          0.6716   -0.3938   -1.2369 N.4       1 <0>        -0.3814
      4 C3          0.1611    0.2353   -0.0115 C.3       1 <0>        -0.0147
      5 C4          0.8899   -0.3456    1.2018 C.3       1 <0>        -0.1905
      6 C5          0.3401   -1.8249   -1.2272 C.3       1 <0>        -0.0383
      7 C6          0.9588   -2.5000   -2.4529 C.3       1 <0>         0.1132
      8 N2          0.7348   -3.9459   -2.3792 N.pl3     1 <0>        -0.4909
      9 C7          1.5794   -4.8719   -1.7754 C.ar      1 <0>         0.0687
     10 C8          2.7914   -4.7546   -1.1094 C.ar      1 <0>        -0.1014
     11 C9          3.4109   -5.8806   -0.6053 C.ar      1 <0>        -0.0954
     12 C10         2.8282   -7.1272   -0.7611 C.ar      1 <0>        -0.0902
     13 C11         1.6230   -7.2547   -1.4219 C.ar      1 <0>        -0.0916
     14 C12         0.9919   -6.1289   -1.9325 C.ar      1 <0>         0.0871
     15 N3         -0.1979   -5.9416   -2.6286 N.pl3     1 <0>        -0.6033
     16 C13        -0.3376   -4.6130   -2.8841 C.2       1 <0>         0.6561
     17 N4         -1.3571   -4.0561   -3.5275 N.2       1 <0>        -0.6677
     18 C14        -2.4157   -4.7973   -3.8717 C.2       1 <0>         0.5517
     19 O1         -2.4863   -5.9608   -3.5166 O.2       1 <0>        -0.5611
     20 C15        -3.5024   -4.2039   -4.6848 C.ar      1 <0>        -0.1146
     21 C16        -3.4218   -2.8739   -5.0977 C.ar      1 <0>        -0.0154
     22 C17        -4.4371   -2.3269   -5.8548 C.ar      1 <0>        -0.1311
     23 C18        -5.5341   -3.0945   -6.2041 C.ar      1 <0>        -0.0281
     24 C19        -5.6200   -4.4138   -5.7973 C.ar      1 <0>        -0.0561
     25 C20        -4.6076   -4.9743   -5.0454 C.ar      1 <0>        -0.0036
     26 N5         -6.7971   -5.2280   -6.1749 N.pl3     1 <0>         0.0290
     27 O2         -7.6821   -4.7398   -6.8382 O.2       1 <0>        -0.1464
     28 O3         -6.8735   -6.3812   -5.8200 O.3       1 <0>        -0.1486
     29 H1          0.1915    2.2290   -1.5831 H         1 <0>         0.0815
     30 H2          1.5867    1.7490   -2.5787 H         1 <0>         0.0814
     31 H3          0.0441    2.1780   -3.3562 H         1 <0>         0.1087
     32 H4         -1.0301    0.1996   -2.3165 H         1 <0>         0.1341
     33 H5          0.3651   -0.2804   -3.3121 H         1 <0>         0.1323
     34 H6          0.3317    1.3109   -0.0571 H         1 <0>         0.1375
     35 H7         -0.9075    0.0405    0.0789 H         1 <0>         0.1307
     36 H8          0.7799   -1.4301    1.2068 H         1 <0>         0.0782
     37 H9          1.9476   -0.0879    1.1480 H         1 <0>         0.0827
     38 H10         0.4613    0.0672    2.1151 H         1 <0>         0.1085
     39 H11         0.7362   -2.2835   -0.3211 H         1 <0>         0.1389
     40 H12        -0.7427   -1.9473   -1.2529 H         1 <0>         0.1421
     41 H13         0.4952   -2.1062   -3.3574 H         1 <0>         0.1268
     42 H14         2.0299   -2.2990   -2.4765 H         1 <0>         0.1143
     43 H15         3.2493   -3.7843   -0.9861 H         1 <0>         0.1318
     44 H16         4.3542   -5.7890   -0.0875 H         1 <0>         0.1443
     45 H17         3.3192   -8.0035   -0.3643 H         1 <0>         0.1457
     46 H18         1.1721   -8.2287   -1.5417 H         1 <0>         0.1421
     47 H19        -2.5664   -2.2735   -4.8251 H         1 <0>         0.1525
     48 H20        -4.3758   -1.2973   -6.1751 H         1 <0>         0.1545
     49 H21        -6.3266   -2.6617   -6.7966 H         1 <0>         0.1607
     50 H22        -4.6736   -6.0058   -4.7323 H         1 <0>         0.1642
     51 H23        -0.8226   -6.6383   -2.8842 H         1 <0>         0.4551
     52 H24         1.6733   -0.2809   -1.2808 H         1 <0>         0.4230
@<TRIPOS>BOND
     1    1    2 1
     2    1   29 1
     3    1   30 1
     4    1   31 1
     5    2    3 1
     6    2   32 1
     7    2   33 1
     8    3    4 1
     9    3    6 1
    10    3   52 1
    11    4    5 1
    12    4   34 1
    13    4   35 1
    14    5   36 1
    15    5   37 1
    16    5   38 1
    17    6    7 1
    18    6   39 1
    19    6   40 1
    20    7    8 1
    21    7   41 1
    22    7   42 1
    23    8   16 1
    24    8    9 1
    25    9   14 ar
    26    9   10 ar
    27   10   11 ar
    28   10   43 1
    29   11   12 ar
    30   11   44 1
    31   12   13 ar
    32   12   45 1
    33   13   14 ar
    34   13   46 1
    35   14   15 1
    36   15   16 1
    37   15   51 1
    38   16   17 2
    39   17   18 1
    40   18   19 2
    41   18   20 1
    42   20   25 ar
    43   20   21 ar
    44   21   22 ar
    45   21   47 1
    46   22   23 ar
    47   22   48 1
    48   23   24 ar
    49   23   49 1
    50   24   25 ar
    51   24   26 1
    52   25   50 1
    53   26   27 2
    54   26   28 1
@<TRIPOS>MOLECULE
ZINC16052821
   50    53     0     0     0
SMALL
USER_CHARGES

@<TRIPOS>ATOM
      1 C1         -0.0148    1.3773    0.0271 C.ar      1 <0>        -0.1006
      2 C2          1.1716    2.0914    0.0302 C.ar      1 <0>        -0.1016
      3 C3          2.3828    1.4293    0.0152 C.ar      1 <0>        -0.0956
      4 C4          2.4121    0.0419   -0.0025 C.ar      1 <0>         0.0831
      5 C5          1.2157   -0.6782   -0.0051 C.ar      1 <0>         0.0779
      6 C6          0.0033   -0.0028    0.0095 C.ar      1 <0>        -0.0977
      7 N1          1.5496   -2.0286   -0.0233 N.pl3     1 <0>        -0.6071
      8 C7          2.9058   -2.1322   -0.0315 C.2       1 <0>         0.6537
      9 N2          3.4491   -0.8854   -0.0191 N.pl3     1 <0>        -0.4829
     10 C8          4.8803   -0.5726   -0.0226 C.3       1 <0>         0.1315
     11 C9          5.3859   -0.4812    1.4185 C.3       1 <0>         0.0390
     12 N3          6.8210   -0.1676    1.4150 N.3       1 <0>        -0.5323
     13 C10         7.6013   -1.2767    0.8472 C.3       1 <0>         0.0116
     14 C11         9.0808   -0.8849    0.8076 C.3       1 <0>         0.0628
     15 O1          9.5125   -0.5386    2.1263 O.3       1 <0>        -0.3839
     16 C12         8.7744    0.5386    2.7095 C.3       1 <0>         0.0637
     17 C13         7.2918    0.1613    2.7684 C.3       1 <0>         0.0189
     18 N4          3.5905   -3.2699   -0.0492 N.2       1 <0>        -0.6639
     19 C14         2.9482   -4.4386    0.0513 C.2       1 <0>         0.5488
     20 O2          1.7300   -4.4653    0.0626 O.2       1 <0>        -0.5763
     21 C15         3.7176   -5.7006    0.1488 C.ar      1 <0>        -0.1075
     22 C16         5.1123   -5.6728    0.1419 C.ar      1 <0>        -0.0106
     23 C17         5.8234   -6.8515    0.2330 C.ar      1 <0>        -0.1304
     24 C18         5.1559   -8.0596    0.3311 C.ar      1 <0>        -0.0328
     25 C19         3.7731   -8.0937    0.3380 C.ar      1 <0>        -0.0609
     26 C20         3.0507   -6.9209    0.2537 C.ar      1 <0>        -0.0058
     27 N5          3.0668   -9.3903    0.4428 N.pl3     1 <0>         0.0335
     28 O3          3.6984  -10.4181    0.5222 O.2       1 <0>        -0.1541
     29 O4          1.8582   -9.4215    0.4490 O.3       1 <0>        -0.1545
     30 H1         -0.9585    1.9025    0.0430 H         1 <0>         0.1394
     31 H2          1.1492    3.1711    0.0439 H         1 <0>         0.1397
     32 H3          3.3059    1.9900    0.0170 H         1 <0>         0.1362
     33 H4         -0.9242   -0.5561    0.0069 H         1 <0>         0.1359
     34 H5          5.4226   -1.3581   -0.5488 H         1 <0>         0.1067
     35 H6          5.0426    0.3806   -0.5257 H         1 <0>         0.1049
     36 H7          4.8436    0.3043    1.9448 H         1 <0>         0.0822
     37 H8          5.2236   -1.4345    1.9217 H         1 <0>         0.0490
     38 H9          7.4764   -2.1644    1.4672 H         1 <0>         0.0488
     39 H10         7.2531   -1.4864   -0.1642 H         1 <0>         0.0900
     40 H11         9.6701   -1.7252    0.4406 H         1 <0>         0.1005
     41 H12         9.2132   -0.0297    0.1450 H         1 <0>         0.0613
     42 H13         9.1421    0.7279    3.7180 H         1 <0>         0.1004
     43 H14         8.8979    1.4353    2.1021 H         1 <0>         0.0619
     44 H15         6.7176    1.0013    3.1593 H         1 <0>         0.0882
     45 H16         7.1619   -0.7035    3.4191 H         1 <0>         0.0461
     46 H17         5.6344   -4.7305    0.0650 H         1 <0>         0.1570
     47 H18         6.9032   -6.8313    0.2274 H         1 <0>         0.1544
     48 H19         5.7169   -8.9797    0.4022 H         1 <0>         0.1579
     49 H20         1.9711   -6.9484    0.2641 H         1 <0>         0.1626
     50 H21         0.9230   -2.7690   -0.0286 H         1 <0>         0.4510
@<TRIPOS>BOND
     1    1    6 ar
     2    1    2 ar
     3    1   30 1
     4    2    3 ar
     5    2   31 1
     6    3    4 ar
     7    3   32 1
     8    4    9 1
     9    4    5 ar
    10    5    6 ar
    11    5    7 1
    12    6   33 1
    13    7    8 1
    14    7   50 1
    15    8    9 1
    16    8   18 2
    17    9   10 1
    18   10   11 1
    19   10   34 1
    20   10   35 1
    21   11   12 1
    22   11   36 1
    23   11   37 1
    24   12   17 1
    25   12   13 1
    26   13   14 1
    27   13   38 1
    28   13   39 1
    29   14   15 1
    30   14   40 1
    31   14   41 1
    32   15   16 1
    33   16   17 1
    34   16   42 1
    35   16   43 1
    36   17   44 1
    37   17   45 1
    38   18   19 1
    39   19   20 2
    40   19   21 1
    41   21   26 ar
    42   21   22 ar
    43   22   23 ar
    44   22   46 1
    45   23   24 ar
    46   23   47 1
    47   24   25 ar
    48   24   48 1
    49   25   26 ar
    50   25   27 1
    51   26   49 1
    52   27   28 2
    53   27   29 1
@<TRIPOS>MOLECULE
ZINC16052821
   51    54     0     0     0
SMALL
USER_CHARGES

@<TRIPOS>ATOM
      1 C1          1.0221    1.4333    1.3244 C.ar      1 <0>        -0.0902
      2 C2          2.3583    1.7574    1.1596 C.ar      1 <0>        -0.0952
      3 C3          3.2495    0.8163    0.6846 C.ar      1 <0>        -0.1033
      4 C4          2.8050   -0.4604    0.3706 C.ar      1 <0>         0.0728
      5 C5          1.4575   -0.7872    0.5368 C.ar      1 <0>         0.1001
      6 C6          0.5697    0.1664    1.0151 C.ar      1 <0>        -0.0918
      7 N1          1.3064   -2.1146    0.1488 N.pl3     1 <0>        -0.5961
      8 H1          0.4771   -2.6178    0.1556 H         1 <0>         0.4521
      9 C7          2.5211   -2.5853   -0.2422 C.2       1 <0>         0.6625
     10 N2          2.7656   -3.8155   -0.6783 N.2       1 <0>        -0.6562
     11 C8          4.0239   -4.2053   -0.9093 C.2       1 <0>         0.5805
     12 O1          4.5078   -4.0756   -2.0201 O.2       1 <0>        -0.5133
     13 C9          4.8293   -4.7948    0.1852 C.ar      1 <0>        -0.1778
     14 C10         4.2762   -4.9499    1.4565 C.ar      1 <0>        -0.0176
     15 C11         5.0313   -5.5000    2.4717 C.ar      1 <0>        -0.1162
     16 C12         6.3346   -5.8975    2.2309 C.ar      1 <0>        -0.0200
     17 C13         6.8888   -5.7459    0.9727 C.ar      1 <0>        -0.0559
     18 C14         6.1418   -5.2022   -0.0525 C.ar      1 <0>        -0.0155
     19 N3          8.2839   -6.1732    0.7237 N.pl3     1 <0>         0.0286
     20 O2          8.9378   -6.6543    1.6196 O.2       1 <0>        -0.1353
     21 O3          8.7695   -6.0413   -0.3756 O.3       1 <0>        -0.1547
     22 N4          3.4455   -1.5958   -0.1151 N.pl3     1 <0>        -0.5372
     23 C15         4.8709   -1.7065   -0.4348 C.3       1 <0>         0.0901
     24 C16         5.0926   -1.3521   -1.9066 C.3       1 <0>        -0.0384
     25 N5          6.5241   -1.4462   -2.2227 N.4       1 <0>        -0.3800
     26 C17         7.2566   -0.4017   -1.4936 C.3       1 <0>        -0.0539
     27 C18         8.7477   -0.5021   -1.8245 C.3       1 <0>         0.0369
     28 O4          8.9263   -0.3795   -3.2383 O.3       1 <0>        -0.3531
     29 C19         8.2121   -1.3615   -3.9942 C.3       1 <0>         0.0358
     30 C20         6.7199   -1.2627   -3.6674 C.3       1 <0>        -0.0413
     31 H2          0.3318    2.1737    1.7008 H         1 <0>         0.1460
     32 H3          2.7046    2.7509    1.4034 H         1 <0>         0.1435
     33 H4          4.2908    1.0732    0.5571 H         1 <0>         0.1292
     34 H5         -0.4731   -0.0825    1.1454 H         1 <0>         0.1437
     35 H6          3.2592   -4.6397    1.6456 H         1 <0>         0.1502
     36 H7          4.6043   -5.6203    3.4564 H         1 <0>         0.1617
     37 H8          6.9217   -6.3277    3.0289 H         1 <0>         0.1665
     38 H9          6.5740   -5.0885   -1.0356 H         1 <0>         0.1607
     39 H10         5.4386   -1.0203    0.1936 H         1 <0>         0.1218
     40 H11         5.2059   -2.7277   -0.2525 H         1 <0>         0.1100
     41 H12         4.5352   -2.0464   -2.5354 H         1 <0>         0.1555
     42 H13         4.7457   -0.3355   -2.0917 H         1 <0>         0.1413
     43 H14         6.8834    0.5785   -1.7903 H         1 <0>         0.1446
     44 H15         7.1120   -0.5370   -0.4218 H         1 <0>         0.1369
     45 H16         9.2875    0.2985   -1.3187 H         1 <0>         0.1446
     46 H17         9.1303   -1.4669   -1.4916 H         1 <0>         0.0831
     47 H18         8.3641   -1.1829   -5.0587 H         1 <0>         0.1460
     48 H19         8.5763   -2.3557   -3.7356 H         1 <0>         0.0856
     49 H20         6.1770   -2.0372   -4.2092 H         1 <0>         0.1474
     50 H21         6.3470   -0.2822   -3.9632 H         1 <0>         0.1409
     51 H22         6.8702   -2.3536   -1.9488 H         1 <0>         0.4241
@<TRIPOS>BOND
     1    1    6 ar
     2    1    2 ar
     3    1   31 1
     4    2    3 ar
     5    2   32 1
     6    3    4 ar
     7    3   33 1
     8    4   22 1
     9    4    5 ar
    10    5    6 ar
    11    5    7 1
    12    6   34 1
    13    7    8 1
    14    7    9 1
    15    9   10 2
    16    9   22 1
    17   10   11 1
    18   11   12 2
    19   11   13 1
    20   13   18 ar
    21   13   14 ar
    22   14   15 ar
    23   14   35 1
    24   15   16 ar
    25   15   36 1
    26   16   17 ar
    27   16   37 1
    28   17   18 ar
    29   17   19 1
    30   18   38 1
    31   19   20 2
    32   19   21 1
    33   22   23 1
    34   23   24 1
    35   23   39 1
    36   23   40 1
    37   24   25 1
    38   24   41 1
    39   24   42 1
    40   25   30 1
    41   25   26 1
    42   25   51 1
    43   26   27 1
    44   26   43 1
    45   26   44 1
    46   27   28 1
    47   27   45 1
    48   27   46 1
    49   28   29 1
    50   29   30 1
    51   29   47 1
    52   29   48 1
    53   30   49 1
    54   30   50 1
@<TRIPOS>MOLECULE
ZINC29046873
   48    51     0     0     0
SMALL
USER_CHARGES
N-(2-methoxy-4-morpholino-phenyl)-2-(3-pyridyl)thiazole-4-carboxamide
@<TRIPOS>ATOM
      1 C1         -0.6628   10.5512    0.3409 C.3       1 <0>         0.0250
      2 O1          0.4759    9.6949    0.2302 O.3       1 <0>        -0.3137
      3 C2          1.6979   10.2911    0.2204 C.ar      1 <0>         0.1316
      4 C3          1.7982   11.6687    0.3201 C.ar      1 <0>        -0.2107
      5 C4          3.0468   12.2757    0.3046 C.ar      1 <0>         0.1346
      6 C5          4.1947   11.5016    0.1941 C.ar      1 <0>        -0.1856
      7 C6          4.0966   10.1268    0.0999 C.ar      1 <0>        -0.0591
      8 C7          2.8510    9.5165    0.1150 C.ar      1 <0>         0.0967
      9 N1          2.7522    8.1204    0.0184 N.am      1 <0>        -0.6562
     10 C8          3.6929    7.3376    0.5831 C.2       1 <0>         0.5927
     11 O2          4.6694    7.8408    1.1058 O.2       1 <0>        -0.5252
     12 C9          3.5386    5.8728    0.5673 C.2       1 <0>         0.0005
     13 C10         4.4914    5.0669    1.1399 C.2       1 <0>        -0.1535
     14 S1          3.8287    3.4876    0.8524 S.3       1 <0>         0.1153
     15 C11         2.3512    4.0017   -0.0087 C.2       1 <0>         0.1362
     16 N2          2.4792    5.3158    0.0001 N.2       1 <0>        -0.4674
     17 C12         1.2657    3.1731   -0.5771 C.ar      1 <0>        -0.0699
     18 C13         1.3127    1.7775   -0.4840 C.ar      1 <0>        -0.0491
     19 C14         0.2725    1.0481   -1.0322 C.ar      1 <0>        -0.1674
     20 C15        -0.7679    1.7149   -1.6540 C.ar      1 <0>         0.1184
     21 N3         -0.7882    3.0321   -1.7221 N.ar      1 <0>        -0.4797
     22 C16         0.1782    3.7696   -1.2151 C.ar      1 <0>         0.1518
     23 N4          3.1487   13.6676    0.3998 N.pl3     1 <0>        -0.4870
     24 C17         2.3754   14.3264   -0.6629 C.3       1 <0>         0.0194
     25 C18         2.4656   15.8444   -0.4860 C.3       1 <0>         0.0598
     26 O3          3.8402   16.2392   -0.4925 O.3       1 <0>        -0.3821
     27 C19         4.6227   15.6170    0.5301 C.3       1 <0>         0.0600
     28 C20         4.5544   14.0966    0.3635 C.3       1 <0>         0.0109
     29 H1         -1.5800    9.9439    0.3368 H         1 <0>         0.1040
     30 H2         -0.6810   11.2488   -0.5094 H         1 <0>         0.0567
     31 H3         -0.6038   11.1200    1.2806 H         1 <0>         0.0577
     32 H4          0.9056   12.2707    0.4057 H         1 <0>         0.1354
     33 H5          5.1653   11.9751    0.1814 H         1 <0>         0.1324
     34 H6          4.9904    9.5267    0.0141 H         1 <0>         0.1475
     35 H7          1.9070    7.6647   -0.5182 H         1 <0>         0.4472
     36 H8          5.4080    5.3423    1.6405 H         1 <0>         0.2134
     37 H9          2.1396    1.2825    0.0036 H         1 <0>         0.1401
     38 H10         0.2750   -0.0306   -0.9792 H         1 <0>         0.1467
     39 H11        -1.5790    1.1481   -2.0867 H         1 <0>         0.1645
     40 H12         0.1283    4.8455   -1.2945 H         1 <0>         0.1688
     41 H13         2.7861   14.0445   -1.6437 H         1 <0>         0.0555
     42 H14         1.3237   14.0099   -0.6011 H         1 <0>         0.0919
     43 H15         1.9353   16.3419   -1.3114 H         1 <0>         0.1048
     44 H16         2.0046   16.1301    0.4710 H         1 <0>         0.0630
     45 H17         5.6676   15.9504    0.4462 H         1 <0>         0.1055
     46 H18         4.2264   15.8978    1.5170 H         1 <0>         0.0629
     47 H19         5.1072   13.6110    1.1812 H         1 <0>         0.0970
     48 H20         5.0002   13.8110   -0.6007 H         1 <0>         0.0588
@<TRIPOS>BOND
     1    1    2 1
     2    1   29 1
     3    1   30 1
     4    1   31 1
     5    2    3 1
     6    3    8 ar
     7    3    4 ar
     8    4    5 ar
     9    4   32 1
    10    5    6 ar
    11    5   23 1
    12    6    7 ar
    13    6   33 1
    14    7    8 ar
    15    7   34 1
    16    8    9 1
    17    9   10 am
    18    9   35 1
    19   10   11 2
    20   10   12 1
    21   12   16 1
    22   12   13 2
    23   13   14 1
    24   13   36 1
    25   14   15 1
    26   15   16 2
    27   15   17 1
    28   17   22 ar
    29   17   18 ar
    30   18   19 ar
    31   18   37 1
    32   19   20 ar
    33   19   38 1
    34   20   21 ar
    35   20   39 1
    36   21   22 ar
    37   22   40 1
    38   23   28 1
    39   23   24 1
    40   24   25 1
    41   24   41 1
    42   24   42 1
    43   25   26 1
    44   25   43 1
    45   25   44 1
    46   26   27 1
    47   27   28 1
    48   27   45 1
    49   27   46 1
    50   28   47 1
    51   28   48 1
