@<TRIPOS>MOLECULE
ZINC16161085
   30    32     0     0     0
SMALL
USER_CHARGES

@<TRIPOS>ATOM
      1 C1         -0.0184    1.5028    0.0103 C.3       1 <0>        -0.0912
      2 C2          0.0021   -0.0041    0.0020 C.2       1 <0>         0.1458
      3 N1          0.0081   -0.7624   -1.0485 N.2       1 <0>        -0.2703
      4 O1          0.0281   -2.1260   -0.6891 O.3       1 <0>        -0.1628
      5 C3          0.0351   -2.2447    0.6519 C.2       1 <0>         0.4750
      6 O2          0.0518   -3.2790    1.2948 O.2       1 <0>        -0.4225
      7 C4          0.0251   -0.8764    1.1831 C.2       1 <0>        -0.2987
      8 C5          0.0330   -0.4883    2.5213 C.2       1 <0>         0.1303
      9 C6          0.0557   -1.4587    3.5321 C.2       1 <0>        -0.0737
     10 C7          0.0601   -1.2118    4.8995 C.2       1 <0>        -0.1037
     11 C8          0.0845   -2.4524    5.5320 C.2       1 <0>        -0.2179
     12 C9          0.0942   -3.4123    4.5405 C.2       1 <0>         0.0962
     13 O3          0.0712   -2.7965    3.3463 O.3       1 <0>        -0.1019
     14 C10         0.1204   -4.8716    4.7558 C.ar      1 <0>        -0.0448
     15 C11         0.1320   -5.3897    6.0535 C.ar      1 <0>        -0.0862
     16 C12         0.1565   -6.7549    6.2471 C.ar      1 <0>        -0.1226
     17 C13         0.1696   -7.6112    5.1599 C.ar      1 <0>        -0.0996
     18 C14         0.1587   -7.1053    3.8718 C.ar      1 <0>        -0.1215
     19 C15         0.1279   -5.7424    3.6629 C.ar      1 <0>        -0.0837
     20 H1          1.0042    1.8801    0.0026 H         1 <0>         0.0994
     21 H2         -0.5455    1.8639   -0.8728 H         1 <0>         0.0934
     22 H3         -0.5286    1.8543    0.9071 H         1 <0>         0.0916
     23 H4          0.0215    0.5603    2.7795 H         1 <0>         0.1782
     24 H5          0.0474   -0.2443    5.3793 H         1 <0>         0.1675
     25 H6          0.0943   -2.6297    6.5973 H         1 <0>         0.1623
     26 H7          0.1221   -4.7226    6.9028 H         1 <0>         0.1306
     27 H8          0.1658   -7.1568    7.2495 H         1 <0>         0.1319
     28 H9          0.1888   -8.6795    5.3175 H         1 <0>         0.1287
     29 H10         0.1694   -7.7795    3.0282 H         1 <0>         0.1305
     30 H11         0.1145   -5.3491    2.6572 H         1 <0>         0.1400
@<TRIPOS>BOND
     1    1    2 1
     2    1   20 1
     3    1   21 1
     4    1   22 1
     5    2    7 1
     6    2    3 2
     7    3    4 1
     8    4    5 1
     9    5    6 2
    10    5    7 1
    11    7    8 2
    12    8    9 1
    13    8   23 1
    14    9   13 1
    15    9   10 2
    16   10   11 1
    17   10   24 1
    18   11   12 2
    19   11   25 1
    20   12   13 1
    21   12   14 1
    22   14   19 ar
    23   14   15 ar
    24   15   16 ar
    25   15   26 1
    26   16   17 ar
    27   16   27 1
    28   17   18 ar
    29   17   28 1
    30   18   19 ar
    31   18   29 1
    32   19   30 1
@<TRIPOS>MOLECULE
ZINC01094957
   38    40     0     0     0
SMALL
USER_CHARGES

@<TRIPOS>ATOM
      1 C1         -0.0167    1.3781    0.0096 C.ar      1 <0>        -0.1057
      2 C2          1.1709    2.0855    0.0021 C.ar      1 <0>        -0.1188
      3 C3          2.3773    1.4107   -0.0130 C.ar      1 <0>        -0.0966
      4 C4          2.3960    0.0285   -0.0201 C.ar      1 <0>        -0.0869
      5 C5          1.2084   -0.6789   -0.0117 C.ar      1 <0>        -0.0971
      6 C6          0.0021   -0.0041    0.0020 C.ar      1 <0>        -0.1185
      7 C7          3.7112   -0.7071   -0.0376 C.3       1 <0>        -0.0870
      8 S1          4.2568   -1.0108    1.6656 S.3       1 <0>         0.0249
      9 C8          5.7857   -1.8662    1.4773 C.2       1 <0>        -0.0409
     10 C9          6.5178   -2.2815    2.5961 C.2       1 <0>        -0.1125
     11 C10         7.7487   -2.9496    2.4763 C.2       1 <0>         0.5792
     12 O1          8.1655   -3.5237    3.4663 O.2       1 <0>        -0.5189
     13 N1          8.4995   -3.0123    1.3801 N.am      1 <0>        -0.7141
     14 C11         8.2265   -2.2465    0.1644 C.3       1 <0>         0.2113
     15 H1          8.5899   -1.2261    0.2866 H         1 <0>         0.1204
     16 S2          6.4296   -2.2278   -0.1295 S.3       1 <0>        -0.0192
     17 C12         8.9223   -2.8928   -1.0057 C.ar      1 <0>        -0.1336
     18 C13         9.4041   -4.1832   -0.8969 C.ar      1 <0>        -0.0815
     19 C14        10.0430   -4.7765   -1.9698 C.ar      1 <0>        -0.1207
     20 C15        10.2010   -4.0808   -3.1544 C.ar      1 <0>        -0.0832
     21 C16         9.7207   -2.7908   -3.2684 C.ar      1 <0>        -0.1406
     22 C17         9.0745   -2.1949   -2.1948 C.ar      1 <0>         0.1364
     23 O2          8.5961   -0.9278   -2.3063 O.3       1 <0>        -0.4901
     24 C18         5.9966   -2.0170    3.9033 C.1       1 <0>         0.2687
     25 N2          5.5831   -1.8071    4.9404 N.1       1 <0>        -0.3892
     26 H2         -0.9591    1.9053    0.0259 H         1 <0>         0.1266
     27 H3          1.1563    3.1654    0.0076 H         1 <0>         0.1280
     28 H4          3.3051    1.9634   -0.0196 H         1 <0>         0.1275
     29 H5          1.2231   -1.7588   -0.0176 H         1 <0>         0.1269
     30 H6         -0.9258   -0.5567    0.0082 H         1 <0>         0.1279
     31 H7          3.5884   -1.6586   -0.5549 H         1 <0>         0.1089
     32 H8          4.4573   -0.1052   -0.5563 H         1 <0>         0.1159
     33 H9          9.2717   -3.5993    1.3874 H         1 <0>         0.4152
     34 H10         9.2820   -4.7286    0.0272 H         1 <0>         0.1337
     35 H11        10.4195   -5.7849   -1.8825 H         1 <0>         0.1351
     36 H12        10.7007   -4.5464   -3.9910 H         1 <0>         0.1348
     37 H13         9.8444   -2.2478   -4.1938 H         1 <0>         0.1381
     38 H14         9.2312   -0.2439   -2.0534 H         1 <0>         0.3957
@<TRIPOS>BOND
     1    1    6 ar
     2    1    2 ar
     3    1   26 1
     4    2    3 ar
     5    2   27 1
     6    3    4 ar
     7    3   28 1
     8    4    5 ar
     9    4    7 1
    10    5    6 ar
    11    5   29 1
    12    6   30 1
    13    7    8 1
    14    7   31 1
    15    7   32 1
    16    8    9 1
    17    9   16 1
    18    9   10 2
    19   10   11 1
    20   10   24 1
    21   11   12 2
    22   11   13 am
    23   13   14 1
    24   13   33 1
    25   14   15 1
    26   14   16 1
    27   14   17 1
    28   17   22 ar
    29   17   18 ar
    30   18   19 ar
    31   18   34 1
    32   19   20 ar
    33   19   35 1
    34   20   21 ar
    35   20   36 1
    36   21   22 ar
    37   21   37 1
    38   22   23 1
    39   23   38 1
    40   24   25 3
@<TRIPOS>MOLECULE
ZINC01094957
   37    39     0     0     0
SMALL
USER_CHARGES

@<TRIPOS>ATOM
      1 C1         -0.0167    1.3781    0.0096 C.ar      1 <0>        -0.1170
      2 C2          1.1709    2.0855    0.0021 C.ar      1 <0>        -0.1209
      3 C3          2.3773    1.4107   -0.0130 C.ar      1 <0>        -0.0999
      4 C4          2.3960    0.0285   -0.0201 C.ar      1 <0>        -0.0703
      5 C5          1.2084   -0.6789   -0.0117 C.ar      1 <0>        -0.1002
      6 C6          0.0021   -0.0041    0.0020 C.ar      1 <0>        -0.1207
      7 C7          3.7112   -0.7071   -0.0376 C.3       1 <0>        -0.0732
      8 S1          4.2568   -1.0108    1.6656 S.3       1 <0>        -0.0573
      9 C8          5.7857   -1.8662    1.4773 C.2       1 <0>        -0.0752
     10 C9          6.5216   -2.2836    2.5928 C.2       1 <0>        -0.0526
     11 C10         7.7826   -2.9971    2.4336 C.2       1 <0>         0.4630
     12 O1          8.2085   -3.7425    3.4798 O.3       1 <0>        -0.6951
     13 N1          8.5263   -2.9788    1.3813 N.2       1 <0>        -0.6570
     14 C11         8.2316   -2.2253    0.1671 C.3       1 <0>         0.2075
     15 H1          8.5815   -1.1995    0.2824 H         1 <0>         0.0719
     16 S2          6.4348   -2.2307   -0.1263 S.3       1 <0>        -0.1708
     17 C12         8.9315   -2.8660   -1.0037 C.ar      1 <0>        -0.0746
     18 C13         9.0689   -4.2397   -1.0598 C.ar      1 <0>        -0.0488
     19 C14         9.7112   -4.8280   -2.1334 C.ar      1 <0>        -0.1385
     20 C15        10.2174   -4.0437   -3.1537 C.ar      1 <0>        -0.1059
     21 C16        10.0822   -2.6700   -3.1025 C.ar      1 <0>        -0.1562
     22 C17         9.4333   -2.0775   -2.0287 C.ar      1 <0>         0.1142
     23 O2          9.2941   -0.7266   -1.9787 O.3       1 <0>        -0.4957
     24 C18         6.0289   -2.0052    3.9083 C.1       1 <0>         0.2908
     25 N2          5.6380   -1.7844    4.9518 N.1       1 <0>        -0.4379
     26 H2         -0.9591    1.9053    0.0259 H         1 <0>         0.1214
     27 H3          1.1563    3.1654    0.0076 H         1 <0>         0.1235
     28 H4          3.3051    1.9634   -0.0196 H         1 <0>         0.1262
     29 H5          1.2231   -1.7588   -0.0176 H         1 <0>         0.1258
     30 H6         -0.9258   -0.5567    0.0082 H         1 <0>         0.1235
     31 H7          3.5884   -1.6586   -0.5549 H         1 <0>         0.1013
     32 H8          4.4573   -0.1052   -0.5563 H         1 <0>         0.1066
     33 H9          8.6744   -4.8543   -0.2642 H         1 <0>         0.1376
     34 H10         9.8182   -5.9018   -2.1751 H         1 <0>         0.1226
     35 H11        10.7191   -4.5056   -3.9911 H         1 <0>         0.1212
     36 H12        10.4777   -2.0580   -3.8996 H         1 <0>         0.1240
     37 H13        10.0248   -0.2719   -1.5378 H         1 <0>         0.3869
@<TRIPOS>BOND
     1    1    6 ar
     2    1    2 ar
     3    1   26 1
     4    2    3 ar
     5    2   27 1
     6    3    4 ar
     7    3   28 1
     8    4    5 ar
     9    4    7 1
    10    5    6 ar
    11    5   29 1
    12    6   30 1
    13    7    8 1
    14    7   31 1
    15    7   32 1
    16    8    9 1
    17    9   16 1
    18    9   10 2
    19   10   11 1
    20   10   24 1
    21   11   12 1
    22   11   13 2
    23   13   14 1
    24   14   15 1
    25   14   16 1
    26   14   17 1
    27   17   22 ar
    28   17   18 ar
    29   18   19 ar
    30   18   33 1
    31   19   20 ar
    32   19   34 1
    33   20   21 ar
    34   20   35 1
    35   21   22 ar
    36   21   36 1
    37   22   23 1
    38   23   37 1
    39   24   25 3
@<TRIPOS>MOLECULE
ZINC01094958
   38    40     0     0     0
SMALL
USER_CHARGES

@<TRIPOS>ATOM
      1 C1         -0.0167    1.3781    0.0096 C.ar      1 <0>        -0.1045
      2 C2          1.1709    2.0855    0.0021 C.ar      1 <0>        -0.1185
      3 C3          2.3773    1.4107   -0.0130 C.ar      1 <0>        -0.0968
      4 C4          2.3960    0.0285   -0.0201 C.ar      1 <0>        -0.0884
      5 C5          1.2084   -0.6789   -0.0117 C.ar      1 <0>        -0.0960
      6 C6          0.0021   -0.0041    0.0020 C.ar      1 <0>        -0.1180
      7 C7          3.7112   -0.7071   -0.0376 C.3       1 <0>        -0.0861
      8 S1          4.2568   -1.0108    1.6656 S.3       1 <0>         0.0247
      9 C8          5.7857   -1.8662    1.4773 C.2       1 <0>        -0.0461
     10 C9          6.5178   -2.2815    2.5961 C.2       1 <0>        -0.1005
     11 C10         7.7487   -2.9496    2.4763 C.2       1 <0>         0.5789
     12 O1          8.1655   -3.5237    3.4663 O.2       1 <0>        -0.5172
     13 N1          8.4999   -3.0116    1.3804 N.am      1 <0>        -0.7091
     14 C11         8.2269   -2.2456    0.1647 C.3       1 <0>         0.2115
     15 H1          8.7293   -2.7136   -0.6819 H         1 <0>         0.1581
     16 S2          6.4296   -2.2278   -0.1295 S.3       1 <0>        -0.0256
     17 C12         8.7307   -0.8354    0.3333 C.ar      1 <0>        -0.1543
     18 C13         9.6071   -0.5321    1.3575 C.ar      1 <0>        -0.0761
     19 C14        10.0692    0.7615    1.5130 C.ar      1 <0>        -0.1242
     20 C15         9.6561    1.7550    0.6442 C.ar      1 <0>        -0.0872
     21 C16         8.7804    1.4568   -0.3815 C.ar      1 <0>        -0.1423
     22 C17         8.3193    0.1581   -0.5429 C.ar      1 <0>         0.1298
     23 O2          7.4620   -0.1389   -1.5547 O.3       1 <0>        -0.4883
     24 C18         5.9966   -2.0170    3.9033 C.1       1 <0>         0.2663
     25 N2          5.5831   -1.8071    4.9404 N.1       1 <0>        -0.3858
     26 H2         -0.9591    1.9053    0.0259 H         1 <0>         0.1270
     27 H3          1.1563    3.1654    0.0076 H         1 <0>         0.1282
     28 H4          3.3051    1.9634   -0.0196 H         1 <0>         0.1268
     29 H5          1.2231   -1.7588   -0.0176 H         1 <0>         0.1274
     30 H6         -0.9258   -0.5567    0.0082 H         1 <0>         0.1284
     31 H7          3.5884   -1.6586   -0.5549 H         1 <0>         0.1115
     32 H8          4.4573   -0.1052   -0.5563 H         1 <0>         0.1082
     33 H9          9.2724   -3.5982    1.3877 H         1 <0>         0.4196
     34 H10         9.9312   -1.3062    2.0373 H         1 <0>         0.1315
     35 H11        10.7537    0.9967    2.3146 H         1 <0>         0.1314
     36 H12        10.0183    2.7649    0.7680 H         1 <0>         0.1324
     37 H13         8.4581    2.2330   -1.0597 H         1 <0>         0.1357
     38 H14         6.5287   -0.0435   -1.3202 H         1 <0>         0.3878
@<TRIPOS>BOND
     1    1    6 ar
     2    1    2 ar
     3    1   26 1
     4    2    3 ar
     5    2   27 1
     6    3    4 ar
     7    3   28 1
     8    4    5 ar
     9    4    7 1
    10    5    6 ar
    11    5   29 1
    12    6   30 1
    13    7    8 1
    14    7   31 1
    15    7   32 1
    16    8    9 1
    17    9   16 1
    18    9   10 2
    19   10   11 1
    20   10   24 1
    21   11   12 2
    22   11   13 am
    23   13   14 1
    24   13   33 1
    25   14   15 1
    26   14   16 1
    27   14   17 1
    28   17   22 ar
    29   17   18 ar
    30   18   19 ar
    31   18   34 1
    32   19   20 ar
    33   19   35 1
    34   20   21 ar
    35   20   36 1
    36   21   22 ar
    37   21   37 1
    38   22   23 1
    39   23   38 1
    40   24   25 3
@<TRIPOS>MOLECULE
ZINC01094958
   37    39     0     0     0
SMALL
USER_CHARGES

@<TRIPOS>ATOM
      1 C1         -0.0167    1.3781    0.0096 C.ar      1 <0>        -0.1167
      2 C2          1.1709    2.0855    0.0021 C.ar      1 <0>        -0.1206
      3 C3          2.3773    1.4107   -0.0130 C.ar      1 <0>        -0.1002
      4 C4          2.3960    0.0285   -0.0201 C.ar      1 <0>        -0.0711
      5 C5          1.2084   -0.6789   -0.0117 C.ar      1 <0>        -0.1000
      6 C6          0.0021   -0.0041    0.0020 C.ar      1 <0>        -0.1208
      7 C7          3.7112   -0.7071   -0.0376 C.3       1 <0>        -0.0727
      8 S1          4.2568   -1.0108    1.6656 S.3       1 <0>        -0.0566
      9 C8          5.7857   -1.8662    1.4773 C.2       1 <0>        -0.0745
     10 C9          6.5216   -2.2836    2.5928 C.2       1 <0>        -0.0476
     11 C10         7.7895   -2.9847    2.4337 C.2       1 <0>         0.4612
     12 O1          8.6430   -2.9667    3.4838 O.3       1 <0>        -0.6945
     13 N1          8.1667   -3.6208    1.3782 N.2       1 <0>        -0.6528
     14 C11         7.3752   -3.7546    0.1599 C.3       1 <0>         0.2030
     15 H1          6.6829   -4.5897    0.2664 H         1 <0>         0.0789
     16 S2          6.4348   -2.2307   -0.1263 S.3       1 <0>        -0.1841
     17 C12         8.2919   -4.0082   -1.0091 C.ar      1 <0>        -0.0741
     18 C13         9.5396   -3.4161   -1.0505 C.ar      1 <0>        -0.0487
     19 C14        10.3807   -3.6479   -2.1228 C.ar      1 <0>        -0.1383
     20 C15         9.9761   -4.4729   -3.1563 C.ar      1 <0>        -0.1058
     21 C16         8.7299   -5.0675   -3.1194 C.ar      1 <0>        -0.1562
     22 C17         7.8859   -4.8406   -2.0417 C.ar      1 <0>         0.1142
     23 O2          6.6615   -5.4290   -2.0003 O.3       1 <0>        -0.4949
     24 C18         6.0220   -2.0175    3.9082 C.1       1 <0>         0.2899
     25 N2          5.6257   -1.8064    4.9517 N.1       1 <0>        -0.4359
     26 H2         -0.9591    1.9053    0.0259 H         1 <0>         0.1216
     27 H3          1.1563    3.1654    0.0076 H         1 <0>         0.1236
     28 H4          3.3051    1.9634   -0.0196 H         1 <0>         0.1258
     29 H5          1.2231   -1.7588   -0.0176 H         1 <0>         0.1261
     30 H6         -0.9258   -0.5567    0.0082 H         1 <0>         0.1236
     31 H7          3.5884   -1.6586   -0.5549 H         1 <0>         0.1053
     32 H8          4.4573   -0.1052   -0.5563 H         1 <0>         0.1012
     33 H9          9.8579   -2.7714   -0.2446 H         1 <0>         0.1378
     34 H10        11.3553   -3.1837   -2.1537 H         1 <0>         0.1227
     35 H11        10.6349   -4.6522   -3.9931 H         1 <0>         0.1213
     36 H12         8.4144   -5.7117   -3.9267 H         1 <0>         0.1242
     37 H13         5.9597   -4.9056   -2.4109 H         1 <0>         0.3854
@<TRIPOS>BOND
     1    1    6 ar
     2    1    2 ar
     3    1   26 1
     4    2    3 ar
     5    2   27 1
     6    3    4 ar
     7    3   28 1
     8    4    5 ar
     9    4    7 1
    10    5    6 ar
    11    5   29 1
    12    6   30 1
    13    7    8 1
    14    7   31 1
    15    7   32 1
    16    8    9 1
    17    9   16 1
    18    9   10 2
    19   10   11 1
    20   10   24 1
    21   11   12 1
    22   11   13 2
    23   13   14 1
    24   14   15 1
    25   14   16 1
    26   14   17 1
    27   17   22 ar
    28   17   18 ar
    29   18   19 ar
    30   18   33 1
    31   19   20 ar
    32   19   34 1
    33   20   21 ar
    34   20   35 1
    35   21   22 ar
    36   21   36 1
    37   22   23 1
    38   23   37 1
    39   24   25 3
