@<TRIPOS>MOLECULE
ZINC43199890
   53    56     0     0     0
SMALL
USER_CHARGES

@<TRIPOS>ATOM
      1 C1         -0.0326    1.3225    0.6276 C.ar      1 <0>        -0.0780
      2 C2          1.1450    2.0037    0.8430 C.ar      1 <0>        -0.0616
      3 C3          2.3654    1.3293    0.7657 C.ar      1 <0>        -0.1203
      4 C4          2.3907   -0.0352    0.4700 C.ar      1 <0>        -0.0899
      5 C5          1.2121   -0.7148    0.2549 C.ar      1 <0>        -0.0962
      6 C6         -0.0063   -0.0404    0.3323 C.ar      1 <0>        -0.0301
      7 C7         -1.2748   -0.7731    0.1006 C.ar      1 <0>         0.2537
      8 C8         -1.2618   -2.1398   -0.1902 C.ar      1 <0>        -0.2738
      9 C9         -2.4705   -2.7811   -0.3985 C.ar      1 <0>         0.1944
     10 N1         -3.5941   -2.0868   -0.3167 N.ar      1 <0>        -0.5548
     11 C10        -3.5766   -0.7910   -0.0393 C.ar      1 <0>         0.5676
     12 N2         -2.4434   -0.1401    0.1718 N.ar      1 <0>        -0.5590
     13 N3         -4.7751   -0.1011    0.0371 N.pl3     1 <0>        -0.6352
     14 C11        -5.9892   -0.7933   -0.0604 C.ar      1 <0>         0.1031
     15 C12        -6.1244   -2.0441    0.5274 C.ar      1 <0>        -0.0562
     16 C13        -7.3209   -2.7264    0.4313 C.ar      1 <0>        -0.1797
     17 C14        -8.3894   -2.1615   -0.2527 C.ar      1 <0>         0.2086
     18 C15        -8.2542   -0.9104   -0.8401 C.ar      1 <0>        -0.1791
     19 C16        -7.0592   -0.2261   -0.7399 C.ar      1 <0>        -0.0911
     20 N4         -9.6021   -2.8532   -0.3505 N.pl3     1 <0>        -0.6343
     21 C17       -10.7058   -2.3344   -1.1739 C.3       1 <0>         0.0873
     22 C18       -11.1916   -3.4590   -2.0953 C.3       1 <0>         0.0453
     23 O1        -11.4759   -4.6202   -1.3113 O.3       1 <0>        -0.3794
     24 C19       -10.3403   -5.1587   -0.6299 C.3       1 <0>         0.0452
     25 C20        -9.8089   -4.1239    0.3621 C.3       1 <0>         0.0866
     26 C21         3.6299    2.0597    0.9963 C.2       1 <0>         0.5671
     27 O2          3.6075    3.2476    1.2532 O.2       1 <0>        -0.5214
     28 N5          4.8075    1.4085    0.9216 N.am      1 <0>        -0.7282
     29 C22         6.0606    2.1323    1.1501 C.3       1 <0>         0.2199
     30 C23         7.1951    1.2046    1.0128 C.1       1 <0>         0.1890
     31 N6          8.0707    0.4886    0.9069 N.1       1 <0>        -0.3977
     32 H1         -0.9768    1.8428    0.6917 H         1 <0>         0.1451
     33 H2          1.1245    3.0591    1.0712 H         1 <0>         0.1444
     34 H3          3.3341   -0.5575    0.4097 H         1 <0>         0.1320
     35 H4          1.2315   -1.7700    0.0259 H         1 <0>         0.1383
     36 H5         -0.3303   -2.6830   -0.2514 H         1 <0>         0.1484
     37 H6         -2.4964   -3.8367   -0.6256 H         1 <0>         0.1723
     38 H7         -4.7739    0.8613    0.1581 H         1 <0>         0.4216
     39 H8         -5.2935   -2.4834    1.0593 H         1 <0>         0.1276
     40 H9         -7.4258   -3.6996    0.8879 H         1 <0>         0.1247
     41 H10        -9.0850   -0.4712   -1.3724 H         1 <0>         0.1259
     42 H11        -6.9552    0.7485   -1.1935 H         1 <0>         0.1246
     43 H12       -11.5227   -2.0088   -0.5298 H         1 <0>         0.0705
     44 H13       -10.3534   -1.4950   -1.7734 H         1 <0>         0.0922
     45 H14       -12.0955   -3.1398   -2.6141 H         1 <0>         0.1050
     46 H15       -10.4159   -3.6930   -2.8245 H         1 <0>         0.0558
     47 H16       -10.6318   -6.0622   -0.0943 H         1 <0>         0.1052
     48 H17        -9.5615   -5.3988   -1.3537 H         1 <0>         0.0556
     49 H18        -8.8629   -4.4691    0.7793 H         1 <0>         0.0929
     50 H19       -10.5339   -3.9816    1.1635 H         1 <0>         0.0704
     51 H20         4.8254    0.4606    0.7165 H         1 <0>         0.4072
     52 H21         6.1560    2.9338    0.4176 H         1 <0>         0.1192
     53 H22         6.0573    2.5563    2.1542 H         1 <0>         0.1192
@<TRIPOS>BOND
     1    1    6 ar
     2    1    2 ar
     3    1   32 1
     4    2    3 ar
     5    2   33 1
     6    3    4 ar
     7    3   26 1
     8    4    5 ar
     9    4   34 1
    10    5    6 ar
    11    5   35 1
    12    6    7 1
    13    7   12 ar
    14    7    8 ar
    15    8    9 ar
    16    8   36 1
    17    9   10 ar
    18    9   37 1
    19   10   11 ar
    20   11   12 ar
    21   11   13 1
    22   13   14 1
    23   13   38 1
    24   14   19 ar
    25   14   15 ar
    26   15   16 ar
    27   15   39 1
    28   16   17 ar
    29   16   40 1
    30   17   18 ar
    31   17   20 1
    32   18   19 ar
    33   18   41 1
    34   19   42 1
    35   20   25 1
    36   20   21 1
    37   21   22 1
    38   21   43 1
    39   21   44 1
    40   22   23 1
    41   22   45 1
    42   22   46 1
    43   23   24 1
    44   24   25 1
    45   24   47 1
    46   24   48 1
    47   25   49 1
    48   25   50 1
    49   26   27 2
    50   26   28 am
    51   28   29 1
    52   28   51 1
    53   29   30 1
    54   29   52 1
    55   29   53 1
    56   30   31 3
@<TRIPOS>MOLECULE
ZINC49090010
   45    50     0     0     0
SMALL
USER_CHARGES

@<TRIPOS>ATOM
      1 C1         -0.0167    1.3784    0.0096 C.ar      1 <0>        -0.1207
      2 C2          1.1700    2.0851    0.0021 C.ar      1 <0>        -0.0785
      3 C3          2.3830    1.4164   -0.0149 C.ar      1 <0>        -0.1570
      4 C4          2.4068    0.0335   -0.0260 C.ar      1 <0>         0.1273
      5 C5          1.2087   -0.6771   -0.0151 C.ar      1 <0>         0.0740
      6 C6          0.0021   -0.0041    0.0020 C.ar      1 <0>        -0.1086
      7 F1          1.2266   -2.0280   -0.0218 F         1 <0>        -0.1272
      8 O1          3.5736   -0.6627   -0.0539 O.3       1 <0>        -0.3021
      9 C7          4.7718    0.0278    0.3030 C.3       1 <0>         0.0690
     10 C8          4.8222    1.3461   -0.4799 C.3       1 <0>        -0.1791
     11 C9          3.6563    2.2240   -0.0184 C.3       1 <0>         0.2103
     12 H1          3.8553    2.5916    0.9883 H         1 <0>         0.1278
     13 N1          3.5104    3.3603   -0.9314 N.am      1 <0>        -0.5101
     14 C10         3.6156    4.6938   -0.5826 C.ar      1 <0>         0.3850
     15 C11         3.4093    5.4358   -1.7536 C.ar      1 <0>        -0.0245
     16 C12         3.4614    6.8171   -1.6835 C.ar      1 <0>         0.2082
     17 N2          3.7043    7.3884   -0.5121 N.ar      1 <0>        -0.5132
     18 C13         3.8949    6.6596    0.5764 C.ar      1 <0>         0.5627
     19 N3          3.8537    5.3364    0.5517 N.ar      1 <0>        -0.5241
     20 N4          4.1477    7.3050    1.7857 N.pl3     1 <0>        -0.4257
     21 C14         4.3709    6.7066    2.9918 C.2       1 <0>         0.2974
     22 N5          4.5717    7.6086    3.9066 N.2       1 <0>        -0.4682
     23 C15         4.4921    8.8478    3.3545 C.ar      1 <0>         0.0400
     24 C16         4.2252    8.6719    1.9863 C.ar      1 <0>         0.0853
     25 C17         4.0956    9.7766    1.1577 C.ar      1 <0>        -0.1276
     26 C18         4.2329   11.0473    1.6810 C.ar      1 <0>         0.1183
     27 C19         4.5005   11.2256    3.0326 C.ar      1 <0>        -0.1496
     28 C20         4.6234   10.1398    3.8695 C.ar      1 <0>        -0.0330
     29 F2          4.1066   12.1232    0.8738 F         1 <0>        -0.1302
     30 N6          3.1851    4.5187   -2.7767 N.am      1 <0>        -0.6246
     31 H2          3.0109    4.7339   -3.7063 H         1 <0>         0.4447
     32 C21         3.2572    3.2798   -2.2516 C.2       1 <0>         0.6923
     33 O2          3.1125    2.2451   -2.8753 O.2       1 <0>        -0.5110
     34 H3         -0.9591    1.9056    0.0260 H         1 <0>         0.1380
     35 H4          1.1520    3.1649    0.0091 H         1 <0>         0.1212
     36 H5         -0.9254   -0.5573    0.0098 H         1 <0>         0.1469
     37 H6          4.7706    0.2361    1.3729 H         1 <0>         0.0749
     38 H7          5.6375   -0.5836    0.0485 H         1 <0>         0.1228
     39 H8          5.7658    1.8548   -0.2824 H         1 <0>         0.0972
     40 H9          4.7297    1.1435   -1.5469 H         1 <0>         0.1009
     41 H10         3.3073    7.4187   -2.5671 H         1 <0>         0.1933
     42 H11         4.3794    5.6401    3.1615 H         1 <0>         0.2272
     43 H12         3.8882    9.6435    0.1062 H         1 <0>         0.1549
     44 H13         4.6063   12.2239    3.4308 H         1 <0>         0.1481
     45 H14         4.8327   10.2858    4.9189 H         1 <0>         0.1473
@<TRIPOS>BOND
     1    1    6 ar
     2    1    2 ar
     3    1   34 1
     4    2    3 ar
     5    2   35 1
     6    3   11 1
     7    3    4 ar
     8    4    5 ar
     9    4    8 1
    10    5    6 ar
    11    5    7 1
    12    6   36 1
    13    8    9 1
    14    9   10 1
    15    9   37 1
    16    9   38 1
    17   10   11 1
    18   10   39 1
    19   10   40 1
    20   11   12 1
    21   11   13 1
    22   13   32 am
    23   13   14 1
    24   14   19 ar
    25   14   15 ar
    26   15   16 ar
    27   15   30 1
    28   16   17 ar
    29   16   41 1
    30   17   18 ar
    31   18   19 ar
    32   18   20 1
    33   20   24 1
    34   20   21 1
    35   21   22 2
    36   21   42 1
    37   22   23 1
    38   23   28 ar
    39   23   24 ar
    40   24   25 ar
    41   25   26 ar
    42   25   43 1
    43   26   27 ar
    44   26   29 1
    45   27   28 ar
    46   27   44 1
    47   28   45 1
    48   30   31 1
    49   30   32 am
    50   32   33 2
@<TRIPOS>MOLECULE
ZINC49067657
   41    45     0     0     0
SMALL
USER_CHARGES

@<TRIPOS>ATOM
      1 C1         -0.0168    1.3851    0.0097 C.ar      1 <0>        -0.1496
      2 C2          1.1595    2.0996    0.0023 C.ar      1 <0>        -0.0332
      3 C3          2.3823    1.4241   -0.0131 C.ar      1 <0>         0.0399
      4 C4          2.3968    0.0192   -0.0208 C.ar      1 <0>         0.0853
      5 C5          1.2027   -0.6864   -0.0140 C.ar      1 <0>        -0.1275
      6 C6          0.0021   -0.0041    0.0020 C.ar      1 <0>         0.1180
      7 F1         -1.1609   -0.6915    0.0095 F         1 <0>        -0.1303
      8 N1          3.7308   -0.3482   -0.0351 N.pl3     1 <0>        -0.4256
      9 C7          4.4662    0.8014   -0.0356 C.2       1 <0>         0.2974
     10 N2          3.6776    1.8352   -0.0228 N.2       1 <0>        -0.4687
     11 C8          4.2302   -1.6495   -0.0463 C.ar      1 <0>         0.5618
     12 N3          3.3787   -2.6634   -0.0489 N.ar      1 <0>        -0.5146
     13 C9          3.8088   -3.9171   -0.0599 C.ar      1 <0>         0.2082
     14 C10         5.1729   -4.1542   -0.0687 C.ar      1 <0>        -0.0273
     15 C11         6.0466   -3.0588   -0.0656 C.ar      1 <0>         0.3855
     16 N4          5.5410   -1.8334   -0.0594 N.ar      1 <0>        -0.5249
     17 N5          7.3302   -3.5719   -0.0763 N.am      1 <0>        -0.5109
     18 C12         7.2557   -4.9165   -0.0855 C.2       1 <0>         0.6921
     19 O1          8.2102   -5.6709   -0.0958 O.2       1 <0>        -0.5187
     20 N6          5.9639   -5.2997   -0.0812 N.am      1 <0>        -0.6249
     21 H1          5.6412   -6.2144   -0.0855 H         1 <0>         0.4441
     22 C13         8.5654   -2.7843   -0.0781 C.3       1 <0>         0.1576
     23 C14         9.3836   -3.1174   -1.3295 C.3       1 <0>        -0.1730
     24 C15        10.7073   -2.3496   -1.2835 C.3       1 <0>         0.0672
     25 O2         11.4125   -2.6897   -0.0880 O.3       1 <0>        -0.3757
     26 C16        10.7160   -2.3576    1.1147 C.3       1 <0>         0.0672
     27 C17         9.3926   -3.1257    1.1651 C.3       1 <0>        -0.1729
     28 H2         -0.9615    1.9082    0.0260 H         1 <0>         0.1481
     29 H3          1.1374    3.1794    0.0079 H         1 <0>         0.1473
     30 H4          1.2118   -1.7663   -0.0201 H         1 <0>         0.1549
     31 H5          5.5452    0.8460   -0.0448 H         1 <0>         0.2270
     32 H6          3.1080   -4.7388   -0.0616 H         1 <0>         0.1929
     33 H7          8.3207   -1.7222   -0.0729 H         1 <0>         0.1124
     34 H8          9.5846   -4.1883   -1.3590 H         1 <0>         0.0942
     35 H9          8.8243   -2.8261   -2.2186 H         1 <0>         0.0803
     36 H10        11.3121   -2.6155   -2.1505 H         1 <0>         0.1043
     37 H11        10.5067   -1.2782   -1.2949 H         1 <0>         0.0569
     38 H12        11.3270   -2.6293    1.9755 H         1 <0>         0.1043
     39 H13        10.5155   -1.2864    1.1347 H         1 <0>         0.0569
     40 H14         8.8397   -2.8404    2.0601 H         1 <0>         0.0803
     41 H15         9.5937   -4.1968    1.1860 H         1 <0>         0.0939
@<TRIPOS>BOND
     1    1    6 ar
     2    1    2 ar
     3    1   28 1
     4    2    3 ar
     5    2   29 1
     6    3   10 1
     7    3    4 ar
     8    4    5 ar
     9    4    8 1
    10    5    6 ar
    11    5   30 1
    12    6    7 1
    13    8    9 1
    14    8   11 1
    15    9   10 2
    16    9   31 1
    17   11   16 ar
    18   11   12 ar
    19   12   13 ar
    20   13   14 ar
    21   13   32 1
    22   14   20 1
    23   14   15 ar
    24   15   16 ar
    25   15   17 1
    26   17   18 am
    27   17   22 1
    28   18   19 2
    29   18   20 am
    30   20   21 1
    31   22   27 1
    32   22   23 1
    33   22   33 1
    34   23   24 1
    35   23   34 1
    36   23   35 1
    37   24   25 1
    38   24   36 1
    39   24   37 1
    40   25   26 1
    41   26   27 1
    42   26   38 1
    43   26   39 1
    44   27   40 1
    45   27   41 1
@<TRIPOS>MOLECULE
ZINC49070412
   65    70     0     0     0
SMALL
USER_CHARGES

@<TRIPOS>ATOM
      1 C1         -0.0164    1.3580    0.0095 C.ar      1 <0>        -0.0960
      2 C2          1.1640    2.0929    0.0022 C.ar      1 <0>        -0.0689
      3 C3          2.3915    1.4552   -0.0134 C.ar      1 <0>        -0.0273
      4 C4          2.4388    0.0398   -0.0214 C.ar      1 <0>         0.1105
      5 C5          1.2265   -0.6935   -0.0132 C.ar      1 <0>         0.0712
      6 C6          0.0021   -0.0041    0.0020 C.ar      1 <0>        -0.0710
      7 N1          1.2607   -2.0323   -0.0202 N.ar      1 <0>        -0.4118
      8 C7          2.4141   -2.6562   -0.0345 C.ar      1 <0>         0.0816
      9 C8          3.6197   -1.9309   -0.0422 C.ar      1 <0>         0.1844
     10 N2          3.6054   -0.6081   -0.0359 N.ar      1 <0>        -0.4203
     11 C9          4.9135   -2.6532   -0.0579 C.2       1 <0>        -0.1805
     12 C10         6.1943   -2.0717    0.0383 C.2       1 <0>         0.1062
     13 N3          7.0792   -3.0310   -0.0117 N.2       1 <0>        -0.2826
     14 N4          6.4066   -4.2521   -0.1406 N.pl3     1 <0>        -0.3736
     15 C11         5.0832   -4.0049   -0.1622 C.2       1 <0>         0.0784
     16 C12         7.0348   -5.5725   -0.2312 C.3       1 <0>         0.1567
     17 C13         6.2116   -6.4684   -1.1613 C.3       1 <0>        -0.1646
     18 C14         6.8281   -7.8686   -1.1890 C.3       1 <0>        -0.0001
     19 N5          6.8269   -8.4346    0.1653 N.4       1 <0>        -0.5084
     20 C15         7.6728   -7.6203    1.0462 C.3       1 <0>        -0.0020
     21 C16         7.0888   -6.2105    1.1599 C.3       1 <0>        -0.1643
     22 C17         3.6445    2.2453   -0.0221 C.ar      1 <0>         0.0181
     23 C18         4.6614    1.9543    0.8866 C.ar      1 <0>        -0.1249
     24 C19         5.8286    2.6945    0.8745 C.ar      1 <0>         0.1315
     25 C20         5.9891    3.7243   -0.0380 C.ar      1 <0>        -0.1456
     26 C21         4.9817    4.0176   -0.9425 C.ar      1 <0>         0.1534
     27 C22         3.8134    3.2789   -0.9428 C.ar      1 <0>        -0.1497
     28 F1          5.1436    5.0237   -1.8294 F         1 <0>        -0.1211
     29 C23         7.2635    4.5284   -0.0465 C.3       1 <0>         0.0934
     30 N6          8.2325    3.9008   -0.9549 N.3       1 <0>        -0.5299
     31 C24         8.6580    2.5887   -0.4464 C.3       1 <0>         0.0164
     32 C25         9.6188    1.9455   -1.4500 C.3       1 <0>         0.0656
     33 O1         10.7248    2.8241   -1.6738 O.3       1 <0>        -0.3842
     34 C26        10.3466    4.1111   -2.1699 C.3       1 <0>         0.0639
     35 C27         9.3932    4.7761   -1.1736 C.3       1 <0>         0.0172
     36 F2          6.8145    2.4134    1.7544 F         1 <0>        -0.1282
     37 H1         -0.9640    1.8759    0.0259 H         1 <0>         0.1454
     38 H2          1.1220    3.1720    0.0083 H         1 <0>         0.1447
     39 H3         -0.9266   -0.5554    0.0082 H         1 <0>         0.1449
     40 H4          2.4387   -3.7360   -0.0401 H         1 <0>         0.1668
     41 H5          6.4065   -1.0173    0.1359 H         1 <0>         0.1951
     42 H6          4.2981   -4.7415   -0.2489 H         1 <0>         0.1815
     43 H7          8.0462   -5.4688   -0.6242 H         1 <0>         0.1234
     44 H8          5.1868   -6.5291   -0.7951 H         1 <0>         0.1001
     45 H9          6.2150   -6.0492   -2.1675 H         1 <0>         0.1262
     46 H10         6.2445   -8.5090   -1.8505 H         1 <0>         0.1448
     47 H11         7.8527   -7.8068   -1.5556 H         1 <0>         0.1383
     48 H12         5.8835   -8.4461    0.5231 H         1 <0>         0.4298
     49 H13         7.7128   -8.0773    2.0349 H         1 <0>         0.1429
     50 H14         8.6794   -7.5637    0.6319 H         1 <0>         0.1377
     51 H15         7.7192   -5.6069    1.8129 H         1 <0>         0.1241
     52 H16         6.0821   -6.2658    1.5743 H         1 <0>         0.0970
     53 H17         4.5369    1.1521    1.5989 H         1 <0>         0.1411
     54 H18         3.0306    3.5050   -1.6517 H         1 <0>         0.1463
     55 H19         7.0512    5.5422   -0.3859 H         1 <0>         0.0963
     56 H20         7.6787    4.5620    0.9608 H         1 <0>         0.0565
     57 H21         9.1633    2.7158    0.5111 H         1 <0>         0.0476
     58 H22         7.7856    1.9484   -0.3161 H         1 <0>         0.0819
     59 H23         9.9814    0.9982   -1.0510 H         1 <0>         0.0968
     60 H24         9.0978    1.7693   -2.3910 H         1 <0>         0.0583
     61 H25        11.2356    4.7299   -2.2916 H         1 <0>         0.1019
     62 H26         9.8468    3.9978   -3.1319 H         1 <0>         0.0613
     63 H27         9.0574    5.7326   -1.5741 H         1 <0>         0.0907
     64 H28         9.9102    4.9382   -0.2277 H         1 <0>         0.0471
     65 H29         7.1845   -9.3776    0.1349 H         1 <0>         0.4376
@<TRIPOS>BOND
     1    1    6 ar
     2    1    2 ar
     3    1   37 1
     4    2    3 ar
     5    2   38 1
     6    3    4 ar
     7    3   22 1
     8    4   10 ar
     9    4    5 ar
    10    5    6 ar
    11    5    7 ar
    12    6   39 1
    13    7    8 ar
    14    8    9 ar
    15    8   40 1
    16    9   10 ar
    17    9   11 1
    18   11   15 2
    19   11   12 1
    20   12   13 2
    21   12   41 1
    22   13   14 1
    23   14   15 1
    24   14   16 1
    25   15   42 1
    26   16   21 1
    27   16   17 1
    28   16   43 1
    29   17   18 1
    30   17   44 1
    31   17   45 1
    32   18   19 1
    33   18   46 1
    34   18   47 1
    35   19   20 1
    36   19   48 1
    37   19   65 1
    38   20   21 1
    39   20   49 1
    40   20   50 1
    41   21   51 1
    42   21   52 1
    43   22   27 ar
    44   22   23 ar
    45   23   24 ar
    46   23   53 1
    47   24   25 ar
    48   24   36 1
    49   25   26 ar
    50   25   29 1
    51   26   27 ar
    52   26   28 1
    53   27   54 1
    54   29   30 1
    55   29   55 1
    56   29   56 1
    57   30   35 1
    58   30   31 1
    59   31   32 1
    60   31   57 1
    61   31   58 1
    62   32   33 1
    63   32   59 1
    64   32   60 1
    65   33   34 1
    66   34   35 1
    67   34   61 1
    68   34   62 1
    69   35   63 1
    70   35   64 1
@<TRIPOS>MOLECULE
ZINC58631551
   38    40     0     0     0
SMALL
USER_CHARGES

@<TRIPOS>ATOM
      1 C1         -0.0184    1.5028    0.0103 C.3       1 <0>        -0.0741
      2 C2          0.0021   -0.0041    0.0020 C.2       1 <0>         0.0868
      3 C3          0.0080   -0.8148   -1.1361 C.2       1 <0>        -0.2704
      4 C4          0.0283   -2.1125   -0.7242 C.2       1 <0>         0.3120
      5 N1          0.0349   -2.1091    0.6338 N.pl3     1 <0>        -0.4958
      6 H1          0.0487   -2.8914    1.2071 H         1 <0>         0.4354
      7 N2          0.0230   -0.7746    1.0591 N.2       1 <0>        -0.2858
      8 N3          0.0394   -3.2378   -1.5456 N.pl3     1 <0>        -0.6217
      9 C5          0.0298   -3.0899   -2.9246 C.ar      1 <0>         0.4936
     10 C6          0.0351   -4.2117   -3.7582 C.ar      1 <0>        -0.2532
     11 C7          0.0252   -4.0159   -5.1259 C.ar      1 <0>         0.2431
     12 N4          0.0110   -2.7797   -5.6037 N.ar      1 <0>        -0.5797
     13 C8          0.0064   -1.7350   -4.7896 C.ar      1 <0>         0.6095
     14 N5          0.0100   -1.8793   -3.4729 N.ar      1 <0>        -0.5867
     15 N6         -0.0080   -0.4597   -5.3285 N.pl3     1 <0>        -0.6801
     16 C9         -0.0178   -0.2789   -6.7823 C.3       1 <0>         0.2337
     17 H2          0.5760   -1.0641   -7.2501 H         1 <0>         0.1249
     18 C10        -1.4571   -0.3534   -7.2958 C.3       1 <0>        -0.1578
     19 C11         0.5688    1.0663   -7.1252 C.ar      1 <0>         0.2983
     20 N7          0.1994    2.1226   -6.4292 N.ar      1 <0>        -0.4844
     21 C12         0.6928    3.3201   -6.7002 C.ar      1 <0>         0.1324
     22 C13         1.6106    3.4535   -7.7331 C.ar      1 <0>        -0.0007
     23 C14         1.9743    2.3171   -8.4426 C.ar      1 <0>         0.1321
     24 N8          1.4411    1.1529   -8.1092 N.ar      1 <0>        -0.4782
     25 F1          2.1365    4.6594   -8.0405 F         1 <0>        -0.1143
     26 Cl1         0.0542   -5.8140   -3.0905 Cl        1 <0>        -0.0482
     27 H3          1.0042    1.8801    0.0026 H         1 <0>         0.0774
     28 H4         -0.5455    1.8639   -0.8728 H         1 <0>         0.0795
     29 H5         -0.5286    1.8543    0.9071 H         1 <0>         0.0730
     30 H6         -0.0022   -0.4728   -2.1605 H         1 <0>         0.1820
     31 H7          0.0539   -4.1247   -1.1531 H         1 <0>         0.4249
     32 H8          0.0292   -4.8611   -5.7983 H         1 <0>         0.1817
     33 H9         -0.0115    0.3141   -4.7435 H         1 <0>         0.4227
     34 H10        -2.0509    0.4319   -6.8279 H         1 <0>         0.0662
     35 H11        -1.4644   -0.2189   -8.3774 H         1 <0>         0.0715
     36 H12        -1.8814   -1.3263   -7.0478 H         1 <0>         0.0782
     37 H13         0.3855    4.1817   -6.1261 H         1 <0>         0.1860
     38 H14         2.6853    2.3817   -9.2530 H         1 <0>         0.1860
@<TRIPOS>BOND
     1    1    2 1
     2    1   27 1
     3    1   28 1
     4    1   29 1
     5    2    7 2
     6    2    3 1
     7    3    4 2
     8    3   30 1
     9    4    5 1
    10    4    8 1
    11    5    6 1
    12    5    7 1
    13    8    9 1
    14    8   31 1
    15    9   14 ar
    16    9   10 ar
    17   10   11 ar
    18   10   26 1
    19   11   12 ar
    20   11   32 1
    21   12   13 ar
    22   13   14 ar
    23   13   15 1
    24   15   16 1
    25   15   33 1
    26   16   17 1
    27   16   18 1
    28   16   19 1
    29   18   34 1
    30   18   35 1
    31   18   36 1
    32   19   24 ar
    33   19   20 ar
    34   20   21 ar
    35   21   22 ar
    36   21   37 1
    37   22   23 ar
    38   22   25 1
    39   23   24 ar
    40   23   38 1
@<TRIPOS>MOLECULE
ZINC19862646
   74    77     0     0     0
SMALL
USER_CHARGES

@<TRIPOS>ATOM
      1 C1          1.5321   -2.2270   -1.1172 C.3       1 <0>        -0.0974
      2 C2          1.4579   -3.4853   -0.2913 C.ar      1 <0>        -0.2828
      3 C3          1.4428   -4.7274   -0.8959 C.ar      1 <0>         0.2132
      4 N1          1.3775   -5.8146   -0.1418 N.ar      1 <0>        -0.5856
      5 C4          1.3267   -5.7251    1.1793 C.ar      1 <0>         0.5872
      6 N2          1.3391   -4.5538    1.7974 N.ar      1 <0>        -0.6010
      7 C5          1.4087   -3.4225    1.1029 C.ar      1 <0>         0.4692
      8 N3          1.4274   -2.1981    1.7529 N.pl3     1 <0>        -0.6487
      9 C6          1.2465   -2.1391    3.1377 C.ar      1 <0>         0.1392
     10 C7          0.3643   -3.0118    3.7624 C.ar      1 <0>        -0.0571
     11 C8          0.1882   -2.9512    5.1306 C.ar      1 <0>        -0.1191
     12 C9          0.8887   -2.0227    5.8790 C.ar      1 <0>        -0.0354
     13 C10         1.7671   -1.1524    5.2605 C.ar      1 <0>        -0.6492
     14 C11         1.9525   -1.2118    3.8930 C.ar      1 <0>        -0.0460
     15 S1          2.6565    0.0289    6.2187 S.o2      1 <0>         2.6930
     16 O1          2.6701    1.2345    5.4666 O.2       1 <0>        -0.9582
     17 O2          2.1321   -0.0403    7.5376 O.2       1 <0>        -0.9484
     18 N4          4.2258   -0.4926    6.3054 N.pl3     1 <0>        -1.1080
     19 C12         4.5383   -1.7714    6.9481 C.3       1 <0>         0.1726
     20 C13         3.8035   -2.9001    6.2220 C.3       1 <0>        -0.1866
     21 C14         6.0466   -2.0200    6.8828 C.3       1 <0>        -0.1498
     22 C15         4.0912   -1.7298    8.4107 C.3       1 <0>        -0.1769
     23 N5          1.2587   -6.8853    1.9325 N.pl3     1 <0>        -0.6395
     24 C16         1.3035   -8.1342    1.3003 C.ar      1 <0>         0.1540
     25 C17         2.0939   -8.3140    0.1729 C.ar      1 <0>        -0.0712
     26 C18         2.1376   -9.5458   -0.4500 C.ar      1 <0>        -0.1194
     27 C19         1.3922  -10.6032    0.0504 C.ar      1 <0>         0.0917
     28 C20         0.6020  -10.4242    1.1763 C.ar      1 <0>        -0.1794
     29 C21         0.5621   -9.1947    1.8039 C.ar      1 <0>        -0.1104
     30 O3          1.4357  -11.8159   -0.5635 O.3       1 <0>        -0.3288
     31 C22         0.6430  -12.8599    0.0055 C.3       1 <0>         0.0276
     32 C23         0.8196  -14.1392   -0.8149 C.3       1 <0>         0.0038
     33 N6          2.2092  -14.6029   -0.7059 N.4       1 <0>        -0.3955
     34 C24         2.4829  -15.0808    0.6736 C.3       1 <0>        -0.0102
     35 C25         3.7053  -16.0147    0.4893 C.3       1 <0>        -0.1448
     36 C26         3.4110  -16.7069   -0.8614 C.3       1 <0>        -0.1451
     37 C27         2.4282  -15.7699   -1.5877 C.3       1 <0>        -0.0087
     38 H1          2.5763   -1.9593   -1.2786 H         1 <0>         0.0718
     39 H2          1.0472   -2.3945   -2.0790 H         1 <0>         0.0761
     40 H3          1.0264   -1.4170   -0.5916 H         1 <0>         0.0621
     41 H4          1.4834   -4.8111   -1.9719 H         1 <0>         0.1724
     42 H5          1.5661   -1.3823    1.2467 H         1 <0>         0.4261
     43 H6         -0.1835   -3.7366    3.1784 H         1 <0>         0.1362
     44 H7         -0.4974   -3.6294    5.6168 H         1 <0>         0.1362
     45 H8          0.7489   -1.9772    6.9490 H         1 <0>         0.1468
     46 H9          2.6421   -0.5346    3.4111 H         1 <0>         0.1369
     47 H10         4.9382    0.0487    5.9306 H         1 <0>         0.4193
     48 H11         4.0171   -2.8450    5.1546 H         1 <0>         0.0648
     49 H12         4.1395   -3.8614    6.6107 H         1 <0>         0.0746
     50 H13         2.7304   -2.7979    6.3836 H         1 <0>         0.0706
     51 H14         6.5700   -1.2159    7.4000 H         1 <0>         0.0667
     52 H15         6.2790   -2.9715    7.3610 H         1 <0>         0.0728
     53 H16         6.3651   -2.0496    5.8408 H         1 <0>         0.0622
     54 H17         3.0036   -1.7833    8.4598 H         1 <0>         0.0794
     55 H18         4.5211   -2.5762    8.9463 H         1 <0>         0.0689
     56 H19         4.4302   -0.8003    8.8680 H         1 <0>         0.0689
     57 H20         1.1799   -6.8330    2.8978 H         1 <0>         0.4242
     58 H21         2.6741   -7.4908   -0.2170 H         1 <0>         0.1478
     59 H22         2.7520   -9.6858   -1.3271 H         1 <0>         0.1346
     60 H23         0.0216  -11.2479    1.5651 H         1 <0>         0.1293
     61 H24        -0.0495   -9.0568    2.6834 H         1 <0>         0.1323
     62 H25         0.9618  -13.0397    1.0322 H         1 <0>         0.0841
     63 H26        -0.4063  -12.5649   -0.0027 H         1 <0>         0.1072
     64 H27         0.1486  -14.9097   -0.4354 H         1 <0>         0.1476
     65 H28         0.5854  -13.9359   -1.8599 H         1 <0>         0.1411
     66 H29         2.7323  -14.2453    1.3278 H         1 <0>         0.1336
     67 H30         1.6302  -15.6358    1.0647 H         1 <0>         0.1346
     68 H31         4.6276  -15.4365    0.4335 H         1 <0>         0.0983
     69 H32         3.7562  -16.7471    1.2950 H         1 <0>         0.1170
     70 H33         4.3288  -16.8140   -1.4395 H         1 <0>         0.1054
     71 H34         2.9518  -17.6813   -0.6950 H         1 <0>         0.1042
     72 H35         1.4839  -16.2856   -1.7625 H         1 <0>         0.1312
     73 H36         2.8573  -15.4440   -2.5352 H         1 <0>         0.1329
     74 H37         2.8451  -13.8584   -0.9497 H         1 <0>         0.4339
@<TRIPOS>BOND
     1    1    2 1
     2    1   38 1
     3    1   39 1
     4    1   40 1
     5    2    7 ar
     6    2    3 ar
     7    3    4 ar
     8    3   41 1
     9    4    5 ar
    10    5    6 ar
    11    5   23 1
    12    6    7 ar
    13    7    8 1
    14    8    9 1
    15    8   42 1
    16    9   14 ar
    17    9   10 ar
    18   10   11 ar
    19   10   43 1
    20   11   12 ar
    21   11   44 1
    22   12   13 ar
    23   12   45 1
    24   13   14 ar
    25   13   15 1
    26   14   46 1
    27   15   16 2
    28   15   17 2
    29   15   18 1
    30   18   19 1
    31   18   47 1
    32   19   20 1
    33   19   21 1
    34   19   22 1
    35   20   48 1
    36   20   49 1
    37   20   50 1
    38   21   51 1
    39   21   52 1
    40   21   53 1
    41   22   54 1
    42   22   55 1
    43   22   56 1
    44   23   24 1
    45   23   57 1
    46   24   29 ar
    47   24   25 ar
    48   25   26 ar
    49   25   58 1
    50   26   27 ar
    51   26   59 1
    52   27   28 ar
    53   27   30 1
    54   28   29 ar
    55   28   60 1
    56   29   61 1
    57   30   31 1
    58   31   32 1
    59   31   62 1
    60   31   63 1
    61   32   33 1
    62   32   64 1
    63   32   65 1
    64   33   37 1
    65   33   34 1
    66   33   74 1
    67   34   35 1
    68   34   66 1
    69   34   67 1
    70   35   36 1
    71   35   68 1
    72   35   69 1
    73   36   37 1
    74   36   70 1
    75   36   71 1
    76   37   72 1
    77   37   73 1
@<TRIPOS>MOLECULE
ZINC19862646
   75    78     0     0     0
SMALL
USER_CHARGES

@<TRIPOS>ATOM
      1 C1          3.3808   -3.2654   -0.7147 C.3       1 <0>        -0.1174
      2 C2          3.0541   -4.2784    0.3521 C.ar      1 <0>        -0.2100
      3 C3          3.1557   -5.6321    0.0957 C.ar      1 <0>         0.1981
      4 N1          2.8617   -6.4973    1.0548 N.ar      1 <0>        -0.5692
      5 C4          2.4732   -6.0816    2.2516 C.ar      1 <0>         0.6505
      6 N2          2.3630   -4.7931    2.5376 N.ar      1 <0>        -0.5551
      7 C5          2.6472   -3.8701    1.6240 C.ar      1 <0>         0.5155
      8 N3          2.5367   -2.5220    1.9281 N.pl3     1 <0>        -0.5916
      9 C6          2.0118   -2.1244    3.1612 C.ar      1 <0>         0.0890
     10 C7          0.9760   -2.8454    3.7420 C.ar      1 <0>        -0.0501
     11 C8          0.4602   -2.4502    4.9603 C.ar      1 <0>        -0.1182
     12 C9          0.9731   -1.3376    5.6021 C.ar      1 <0>        -0.0102
     13 C10         2.0037   -0.6175    5.0266 C.ar      1 <0>        -0.6496
     14 C11         2.5284   -1.0110    3.8111 C.ar      1 <0>        -0.0212
     15 S1          2.6531    0.7995    5.8483 S.o2      1 <0>         2.6896
     16 O1          2.8696    1.7853    4.8480 O.2       1 <0>        -0.9504
     17 O2          1.8225    1.0301    6.9780 O.2       1 <0>        -0.9388
     18 N4          4.1452    0.3845    6.4346 N.pl3     1 <0>        -1.1064
     19 C12         4.2722   -0.6965    7.4152 C.3       1 <0>         0.1714
     20 C13         3.7299   -1.9954    6.8154 C.3       1 <0>        -0.1837
     21 C14         5.7458   -0.8808    7.7831 C.3       1 <0>        -0.1510
     22 C15         3.4734   -0.3423    8.6711 C.3       1 <0>        -0.1792
     23 N5          2.1744   -7.0177    3.2274 N.pl3     1 <0>        -0.6171
     24 C16         2.4120   -8.3772    2.9897 C.ar      1 <0>         0.0845
     25 C17         3.5783   -8.7773    2.3511 C.ar      1 <0>        -0.1289
     26 C18         3.8119  -10.1181    2.1170 C.ar      1 <0>        -0.1050
     27 C19         2.8818  -11.0651    2.5196 C.ar      1 <0>         0.1305
     28 C20         1.7162  -10.6663    3.1572 C.ar      1 <0>        -0.1681
     29 C21         1.4840   -9.3263    3.3975 C.ar      1 <0>        -0.0694
     30 O3          3.1125  -12.3852    2.2887 O.3       1 <0>        -0.3207
     31 C22         2.1122  -13.3055    2.7299 C.3       1 <0>         0.0240
     32 C23         2.5444  -14.7322    2.3856 C.3       1 <0>         0.0028
     33 N6          3.7520  -15.0756    3.1483 N.4       1 <0>        -0.3967
     34 C24         3.4293  -15.1913    4.5935 C.3       1 <0>        -0.0112
     35 C25         4.5800  -16.0705    5.1444 C.3       1 <0>        -0.1449
     36 C26         4.8195  -17.0828    4.0008 C.3       1 <0>        -0.1462
     37 C27         4.2525  -16.4059    2.7392 C.3       1 <0>        -0.0088
     38 H1          4.4393   -3.0107   -0.6619 H         1 <0>         0.0981
     39 H2          3.1566   -3.6852   -1.6953 H         1 <0>         0.0988
     40 H3          2.7829   -2.3675   -0.5585 H         1 <0>         0.0837
     41 H4          3.4711   -5.9813   -0.8764 H         1 <0>         0.2194
     42 H5          2.8236   -1.8547    1.2852 H         1 <0>         0.4412
     43 H6          0.5746   -3.7139    3.2410 H         1 <0>         0.1368
     44 H7         -0.3450   -3.0103    5.4124 H         1 <0>         0.1457
     45 H8          0.5676   -1.0304    6.5548 H         1 <0>         0.1566
     46 H9          3.3364   -0.4507    3.3642 H         1 <0>         0.1454
     47 H10         4.9351    0.8571    6.1288 H         1 <0>         0.4219
     48 H11         4.1906   -2.1665    5.8425 H         1 <0>         0.0617
     49 H12         3.9638   -2.8276    7.4794 H         1 <0>         0.0773
     50 H13         2.6492   -1.9176    6.6971 H         1 <0>         0.0658
     51 H14         6.1321    0.0446    8.2104 H         1 <0>         0.0702
     52 H15         5.8403   -1.6851    8.5127 H         1 <0>         0.0744
     53 H16         6.3149   -1.1332    6.8884 H         1 <0>         0.0617
     54 H17         2.4075   -0.4307    8.4608 H         1 <0>         0.0781
     55 H18         3.7425   -1.0246    9.4774 H         1 <0>         0.0716
     56 H19         3.7010    0.6810    8.9699 H         1 <0>         0.0726
     57 H20         1.8006   -6.7318    4.0756 H         1 <0>         0.4501
     58 H21         4.3025   -8.0400    2.0372 H         1 <0>         0.1399
     59 H22         4.7188  -10.4294    1.6200 H         1 <0>         0.1525
     60 H23         0.9923  -11.4042    3.4700 H         1 <0>         0.1473
     61 H24         0.5787   -9.0163    3.8982 H         1 <0>         0.1499
     62 H25         1.9854  -13.2146    3.8087 H         1 <0>         0.0911
     63 H26         1.1682  -13.0819    2.2330 H         1 <0>         0.1135
     64 H27         1.7436  -15.4261    2.6413 H         1 <0>         0.1535
     65 H28         2.7570  -14.8000    1.3187 H         1 <0>         0.1437
     66 H29         3.4336  -14.2102    5.0684 H         1 <0>         0.1316
     67 H30         2.4673  -15.6840    4.7347 H         1 <0>         0.1366
     68 H31         5.4727  -15.4707    5.3219 H         1 <0>         0.0985
     69 H32         4.2713  -16.5835    6.0553 H         1 <0>         0.1194
     70 H33         5.8861  -17.2730    3.8811 H         1 <0>         0.1075
     71 H34         4.2887  -18.0134    4.2019 H         1 <0>         0.1068
     72 H35         3.4347  -17.0018    2.3338 H         1 <0>         0.1333
     73 H36         5.0389  -16.2933    1.9929 H         1 <0>         0.1343
     74 H37         4.4651  -14.3764    3.0049 H         1 <0>         0.4315
     75 H38         2.9315   -7.4486    0.8786 H         1 <0>         0.4413
@<TRIPOS>BOND
     1    1    2 1
     2    1   38 1
     3    1   39 1
     4    1   40 1
     5    2    7 ar
     6    2    3 ar
     7    3    4 ar
     8    3   41 1
     9    4    5 ar
    10    4   75 1
    11    5    6 ar
    12    5   23 1
    13    6    7 ar
    14    7    8 1
    15    8    9 1
    16    8   42 1
    17    9   14 ar
    18    9   10 ar
    19   10   11 ar
    20   10   43 1
    21   11   12 ar
    22   11   44 1
    23   12   13 ar
    24   12   45 1
    25   13   14 ar
    26   13   15 1
    27   14   46 1
    28   15   16 2
    29   15   17 2
    30   15   18 1
    31   18   19 1
    32   18   47 1
    33   19   20 1
    34   19   21 1
    35   19   22 1
    36   20   48 1
    37   20   49 1
    38   20   50 1
    39   21   51 1
    40   21   52 1
    41   21   53 1
    42   22   54 1
    43   22   55 1
    44   22   56 1
    45   23   24 1
    46   23   57 1
    47   24   29 ar
    48   24   25 ar
    49   25   26 ar
    50   25   58 1
    51   26   27 ar
    52   26   59 1
    53   27   28 ar
    54   27   30 1
    55   28   29 ar
    56   28   60 1
    57   29   61 1
    58   30   31 1
    59   31   32 1
    60   31   62 1
    61   31   63 1
    62   32   33 1
    63   32   64 1
    64   32   65 1
    65   33   37 1
    66   33   34 1
    67   33   74 1
    68   34   35 1
    69   34   66 1
    70   34   67 1
    71   35   36 1
    72   35   68 1
    73   35   69 1
    74   36   37 1
    75   36   70 1
    76   36   71 1
    77   37   72 1
    78   37   73 1
@<TRIPOS>MOLECULE
ZINC03814434
   62    69     0     0     0
SMALL
USER_CHARGES

@<TRIPOS>ATOM
      1 C1         -0.1295    1.5952   -0.2973 C.3       1 <0>        -0.1687
      2 C2         -0.0862    0.0696   -0.1900 C.3       1 <0>         0.3342
      3 C3          0.5692   -0.4501   -1.4637 C.3       1 <0>         0.0405
      4 H1          1.4796    0.1159   -1.6612 H         1 <0>         0.1372
      5 C4          0.9167   -1.9328   -1.2889 C.3       1 <0>        -0.0061
      6 H2          1.3963   -2.3075   -2.1932 H         1 <0>         0.1555
      7 C5          1.8785   -2.0596   -0.1021 C.3       1 <0>        -0.1827
      8 C6          1.2061   -1.5198    1.1541 C.3       1 <0>         0.2999
      9 H3          1.9797   -1.4243    1.9161 H         1 <0>         0.1550
     10 O1          0.6555   -0.2442    0.9666 O.3       1 <0>        -0.3234
     11 N1          0.2189   -2.4746    1.6600 N.pl3     1 <0>        -0.5366
     12 C7          0.4705   -3.5508    2.4739 C.ar      1 <0>         0.1469
     13 C8          1.6649   -4.0152    3.0240 C.ar      1 <0>        -0.1522
     14 C9          1.5948   -5.1456    3.8201 C.ar      1 <0>        -0.0582
     15 C10         0.4006   -5.7997    4.0696 C.ar      1 <0>        -0.1457
     16 C11        -0.7984   -5.3597    3.5358 C.ar      1 <0>        -0.0280
     17 C12        -0.7487   -4.2198    2.7307 C.ar      1 <0>        -0.1131
     18 C13        -1.7893   -3.4830    2.0197 C.ar      1 <0>         0.0276
     19 C14        -1.1442   -2.4197    1.3841 C.ar      1 <0>         0.0376
     20 C15        -1.8806   -1.5095    0.6175 C.ar      1 <0>         0.0894
     21 N2         -1.4718   -0.3951   -0.1095 N.pl3     1 <0>        -0.5183
     22 C16        -2.5611    0.1913   -0.7090 C.ar      1 <0>         0.1618
     23 C17        -2.6521    1.3277   -1.5118 C.ar      1 <0>        -0.1305
     24 C18        -3.9109    1.6745   -1.9733 C.ar      1 <0>        -0.0737
     25 C19        -5.0393    0.9368   -1.6616 C.ar      1 <0>        -0.1358
     26 C20        -4.9745   -0.1955   -0.8662 C.ar      1 <0>        -0.0503
     27 C21        -3.7147   -0.5596   -0.3919 C.ar      1 <0>        -0.1042
     28 C22        -3.2693   -1.6660    0.4845 C.ar      1 <0>        -0.0360
     29 C23        -3.9084   -2.7313    1.1102 C.ar      1 <0>        -0.0288
     30 C24        -3.1873   -3.6421    1.8754 C.ar      1 <0>        -0.1255
     31 C25        -4.1221   -4.6480    2.4030 C.2       1 <0>         0.5632
     32 O2         -3.8062   -5.5851    3.1110 O.2       1 <0>        -0.5106
     33 N3         -5.3744   -4.3851    1.9926 N.am      1 <0>        -0.7162
     34 C26        -5.3495   -3.1771    1.1601 C.3       1 <0>         0.1358
     35 N4         -0.3067   -2.7008   -1.0216 N.4       1 <0>        -0.5252
     36 C27         0.0145   -4.1336   -0.9773 C.3       1 <0>        -0.0497
     37 O3         -0.3340   -0.2979   -2.5607 O.3       1 <0>        -0.3614
     38 C28         0.3101   -0.0933   -3.8198 C.3       1 <0>         0.0162
     39 H4          0.8261    2.0094    0.0240 H         1 <0>         0.0984
     40 H5         -0.3202    1.8814   -1.3317 H         1 <0>         0.1036
     41 H6         -0.9255    1.9818    0.3392 H         1 <0>         0.0921
     42 H7          2.1370   -3.1081    0.0458 H         1 <0>         0.1233
     43 H8          2.7835   -1.4869   -0.3048 H         1 <0>         0.1455
     44 H9          2.6036   -3.5149    2.8368 H         1 <0>         0.1365
     45 H10         2.5026   -5.5304    4.2610 H         1 <0>         0.1359
     46 H11         0.4045   -6.6780    4.6980 H         1 <0>         0.1352
     47 H12        -1.7278   -5.8736    3.7323 H         1 <0>         0.1600
     48 H13        -1.7792    1.9122   -1.7624 H         1 <0>         0.1440
     49 H14        -4.0153    2.5500   -2.5970 H         1 <0>         0.1336
     50 H15        -5.9967    1.2527   -2.0488 H         1 <0>         0.1332
     51 H16        -5.8575   -0.7687   -0.6249 H         1 <0>         0.1415
     52 H17        -6.1628   -4.9065    2.2103 H         1 <0>         0.4348
     53 H18        -5.9671   -2.3994    1.6094 H         1 <0>         0.1115
     54 H19        -5.7060   -3.4063    0.1559 H         1 <0>         0.1103
     55 H20        -0.6958   -2.4158   -0.1353 H         1 <0>         0.4186
     56 H21         0.4349   -4.4415   -1.9347 H         1 <0>         0.1256
     57 H22         0.7403   -4.3189   -0.1854 H         1 <0>         0.1191
     58 H23        -0.8932   -4.7035   -0.7789 H         1 <0>         0.1256
     59 H24         0.9168    0.8112   -3.7748 H         1 <0>         0.0633
     60 H25         0.9482   -0.9479   -4.0446 H         1 <0>         0.0514
     61 H26        -0.4433    0.0130   -4.6003 H         1 <0>         0.1100
     62 H27        -0.9785   -2.5293   -1.7546 H         1 <0>         0.4274
@<TRIPOS>BOND
     1    1    2 1
     2    1   39 1
     3    1   40 1
     4    1   41 1
     5    2   10 1
     6    2   21 1
     7    2    3 1
     8    3    4 1
     9    3    5 1
    10    3   37 1
    11    5    6 1
    12    5    7 1
    13    5   35 1
    14    7    8 1
    15    7   42 1
    16    7   43 1
    17    8    9 1
    18    8   10 1
    19    8   11 1
    20   11   19 1
    21   11   12 1
    22   12   17 ar
    23   12   13 ar
    24   13   14 ar
    25   13   44 1
    26   14   15 ar
    27   14   45 1
    28   15   16 ar
    29   15   46 1
    30   16   17 ar
    31   16   47 1
    32   17   18 1
    33   18   30 ar
    34   18   19 ar
    35   19   20 ar
    36   20   28 ar
    37   20   21 1
    38   21   22 1
    39   22   27 ar
    40   22   23 ar
    41   23   24 ar
    42   23   48 1
    43   24   25 ar
    44   24   49 1
    45   25   26 ar
    46   25   50 1
    47   26   27 ar
    48   26   51 1
    49   27   28 1
    50   28   29 ar
    51   29   34 1
    52   29   30 ar
    53   30   31 1
    54   31   32 2
    55   31   33 am
    56   33   34 1
    57   33   52 1
    58   34   53 1
    59   34   54 1
    60   35   36 1
    61   35   55 1
    62   35   62 1
    63   36   56 1
    64   36   57 1
    65   36   58 1
    66   37   38 1
    67   38   59 1
    68   38   60 1
    69   38   61 1
@<TRIPOS>MOLECULE
ZINC66251571
   29    31     0     0     0
SMALL
USER_CHARGES

@<TRIPOS>ATOM
      1 C1         -0.6445   -1.3263    2.6144 C.2       1 <0>        -0.1649
      2 C2          0.4711   -1.6516    3.2877 C.2       1 <0>         0.0539
      3 N1          1.5113   -1.8186    2.4104 N.pl3     1 <0>        -0.5738
      4 H1          2.4177   -2.0563    2.6611 H         1 <0>         0.4233
      5 C3          1.0832   -1.6011    1.1296 C.ar      1 <0>         0.3195
      6 C4         -0.2858   -1.2829    1.1981 C.ar      1 <0>        -0.2093
      7 C5         -0.9742   -1.0117    0.0059 C.ar      1 <0>         0.4816
      8 N2         -0.2997   -1.0678   -1.1389 N.ar      1 <0>        -0.5516
      9 C6          0.9857   -1.3706   -1.1577 C.ar      1 <0>         0.3267
     10 N3          1.6708   -1.6316   -0.0654 N.ar      1 <0>        -0.5374
     11 N4         -2.3205   -0.6946    0.0209 N.pl3     1 <0>        -0.6612
     12 C7         -2.7591    0.7028    0.1372 C.3       1 <0>         0.1512
     13 C8         -3.7170    1.0166   -1.0164 C.3       1 <0>        -0.1380
     14 C9         -4.8587   -0.0025   -1.0177 C.3       1 <0>        -0.1153
     15 C10        -4.2904   -1.4075   -1.2303 C.3       1 <0>        -0.1383
     16 C11        -3.3390   -1.7482   -0.0852 C.3       1 <0>         0.1515
     17 H2         -1.6200   -1.1376    3.0376 H         1 <0>         0.1537
     18 H3          0.5386   -1.7648    4.3597 H         1 <0>         0.1836
     19 H4          1.4956   -1.4052   -2.1092 H         1 <0>         0.1999
     20 H5         -3.2725    0.8467    1.0879 H         1 <0>         0.0585
     21 H6         -1.8936    1.3632    0.0834 H         1 <0>         0.0656
     22 H7         -4.1246    2.0194   -0.8883 H         1 <0>         0.0691
     23 H8         -3.1781    0.9604   -1.9622 H         1 <0>         0.0676
     24 H9         -5.3818    0.0369   -0.0622 H         1 <0>         0.0618
     25 H10        -5.5550    0.2332   -1.8225 H         1 <0>         0.0618
     26 H11        -5.1062   -2.1301   -1.2544 H         1 <0>         0.0695
     27 H12        -3.7462   -1.4409   -2.1741 H         1 <0>         0.0674
     28 H13        -2.8560   -2.7045   -0.2857 H         1 <0>         0.0655
     29 H14        -3.9008   -1.8086    0.8469 H         1 <0>         0.0580
@<TRIPOS>BOND
     1    1    6 1
     2    1    2 2
     3    1   17 1
     4    2    3 1
     5    2   18 1
     6    3    4 1
     7    3    5 1
     8    5   10 ar
     9    5    6 ar
    10    6    7 ar
    11    7    8 ar
    12    7   11 1
    13    8    9 ar
    14    9   10 ar
    15    9   19 1
    16   11   16 1
    17   11   12 1
    18   12   13 1
    19   12   20 1
    20   12   21 1
    21   13   14 1
    22   13   22 1
    23   13   23 1
    24   14   15 1
    25   14   24 1
    26   14   25 1
    27   15   16 1
    28   15   26 1
    29   15   27 1
    30   16   28 1
    31   16   29 1
@<TRIPOS>MOLECULE
ZINC66103171
   63    67     0     0     0
SMALL
USER_CHARGES

@<TRIPOS>ATOM
      1 C1          0.8415   -0.7219    1.0870 C.3       1 <0>        -0.1831
      2 C2          0.0143   -0.0202    0.0080 C.3       1 <0>         0.1131
      3 C3          0.7045   -0.1798   -1.3481 C.3       1 <0>        -0.1657
      4 C4         -1.3595   -0.6367   -0.0520 C.2       1 <0>         0.5368
      5 O1         -1.6488   -1.3862   -0.9605 O.2       1 <0>        -0.5277
      6 N1         -2.2668   -0.3551    0.9041 N.am      1 <0>        -0.5996
      7 C5         -1.8952    0.4554    2.0724 C.3       1 <0>         0.0826
      8 C6         -2.8554    1.6477    2.1670 C.3       1 <0>         0.1071
      9 N2         -4.2340    1.1500    2.0597 N.pl3     1 <0>        -0.6197
     10 C7         -4.6056    0.3395    0.8915 C.3       1 <0>         0.1045
     11 C8         -3.6469   -0.8481    0.7941 C.3       1 <0>         0.0951
     12 C9         -5.1743    1.4419    3.0507 C.ar      1 <0>         0.2546
     13 C10        -4.8474    2.3128    4.0847 C.ar      1 <0>        -0.1930
     14 C11        -5.7740    2.6048    5.0682 C.ar      1 <0>        -0.0180
     15 C12        -7.0299    2.0346    5.0309 C.ar      1 <0>        -0.2243
     16 C13        -7.3689    1.1587    3.9963 C.ar      1 <0>         0.0750
     17 C14        -6.4347    0.8681    3.0004 C.ar      1 <0>        -0.1701
     18 C15        -8.7127    0.5467    3.9536 C.2       1 <0>        -0.1137
     19 C16        -9.0431   -0.7630    4.2761 C.2       1 <0>         0.0127
     20 C17       -10.5080   -0.8777    4.0708 C.2       1 <0>         0.5539
     21 O2        -11.1740   -1.8769    4.2502 O.2       1 <0>        -0.4390
     22 N3        -10.9731    0.3122    3.6533 N.am      1 <0>        -0.6874
     23 C18        -9.9731    1.2052    3.5662 C.2       1 <0>         0.5615
     24 O3        -10.0883    2.3647    3.2210 O.2       1 <0>        -0.4346
     25 C19        -8.1287   -1.8194    4.7279 C.2       1 <0>        -0.1566
     26 C20        -7.5690   -1.9421    5.9700 C.2       1 <0>         0.1116
     27 N4         -6.7799   -3.0454    6.0085 N.pl3     1 <0>        -0.5806
     28 H1         -6.2779   -3.3400    6.7844 H         1 <0>         0.4218
     29 C21        -6.7932   -3.6895    4.7878 C.ar      1 <0>         0.0924
     30 C22        -7.6378   -2.9608    3.9343 C.ar      1 <0>        -0.0700
     31 C23        -7.8452   -3.3881    2.6254 C.ar      1 <0>        -0.0765
     32 C24        -7.2206   -4.5307    2.1736 C.ar      1 <0>        -0.1338
     33 C25        -6.3890   -5.2533    3.0161 C.ar      1 <0>        -0.0986
     34 C26        -6.1685   -4.8370    4.3117 C.ar      1 <0>        -0.1228
     35 C27        -8.0358    2.3562    6.1060 C.3       1 <0>         0.5081
     36 F1         -7.4690    3.2475    7.0233 F         1 <0>        -0.1771
     37 F2         -9.1673    2.9401    5.5265 F         1 <0>        -0.1702
     38 F3         -8.4048    1.1793    6.7664 F         1 <0>        -0.1828
     39 O4         -0.1002    1.3688    0.3236 O.3       1 <0>        -0.5492
     40 H2          1.8604   -0.3347    1.0729 H         1 <0>         0.0764
     41 H3          0.3959   -0.5365    2.0643 H         1 <0>         0.0717
     42 H4          0.8576   -1.7943    0.8925 H         1 <0>         0.0745
     43 H5          0.7145   -1.2330   -1.6290 H         1 <0>         0.0786
     44 H6          0.1624    0.3920   -2.1013 H         1 <0>         0.0695
     45 H7          1.7284    0.1878   -1.2802 H         1 <0>         0.0681
     46 H8         -1.9721   -0.1488    2.9763 H         1 <0>         0.0669
     47 H9         -0.8734    0.8169    1.9568 H         1 <0>         0.1252
     48 H10        -2.7213    2.1502    3.1250 H         1 <0>         0.0958
     49 H11        -2.6538    2.3451    1.3539 H         1 <0>         0.0785
     50 H12        -5.6274   -0.0220    1.0070 H         1 <0>         0.0978
     51 H13        -4.5287    0.9437   -0.0124 H         1 <0>         0.0737
     52 H14        -3.7816   -1.3472   -0.1655 H         1 <0>         0.1041
     53 H15        -3.8514   -1.5473    1.6049 H         1 <0>         0.0747
     54 H16        -3.8660    2.7623    4.1195 H         1 <0>         0.1376
     55 H17        -5.5137    3.2813    5.8689 H         1 <0>         0.1423
     56 H18        -6.6920    0.1950    2.1959 H         1 <0>         0.1370
     57 H19       -11.9021    0.5012    3.4479 H         1 <0>         0.4319
     58 H20        -7.7302   -1.2636    6.7946 H         1 <0>         0.1784
     59 H21        -8.4926   -2.8273    1.9676 H         1 <0>         0.1191
     60 H22        -7.3797   -4.8650    1.1590 H         1 <0>         0.1257
     61 H23        -5.9046   -6.1471    2.6517 H         1 <0>         0.1274
     62 H24        -5.5204   -5.4081    4.9600 H         1 <0>         0.1220
     63 H25         0.7475    1.8308    0.3787 H         1 <0>         0.3863
@<TRIPOS>BOND
     1    1    2 1
     2    1   40 1
     3    1   41 1
     4    1   42 1
     5    2    3 1
     6    2    4 1
     7    2   39 1
     8    3   43 1
     9    3   44 1
    10    3   45 1
    11    4    5 2
    12    4    6 am
    13    6   11 1
    14    6    7 1
    15    7    8 1
    16    7   46 1
    17    7   47 1
    18    8    9 1
    19    8   48 1
    20    8   49 1
    21    9   10 1
    22    9   12 1
    23   10   11 1
    24   10   50 1
    25   10   51 1
    26   11   52 1
    27   11   53 1
    28   12   17 ar
    29   12   13 ar
    30   13   14 ar
    31   13   54 1
    32   14   15 ar
    33   14   55 1
    34   15   16 ar
    35   15   35 1
    36   16   17 ar
    37   16   18 1
    38   17   56 1
    39   18   23 1
    40   18   19 2
    41   19   20 1
    42   19   25 1
    43   20   21 2
    44   20   22 am
    45   22   23 am
    46   22   57 1
    47   23   24 2
    48   25   30 1
    49   25   26 2
    50   26   27 1
    51   26   58 1
    52   27   28 1
    53   27   29 1
    54   29   34 ar
    55   29   30 ar
    56   30   31 ar
    57   31   32 ar
    58   31   59 1
    59   32   33 ar
    60   32   60 1
    61   33   34 ar
    62   33   61 1
    63   34   62 1
    64   35   36 1
    65   35   37 1
    66   35   38 1
    67   39   63 1
@<TRIPOS>MOLECULE
ZINC02560264
   37    42     0     0     0
SMALL
USER_CHARGES

@<TRIPOS>ATOM
      1 C1         -0.0166    1.3740    0.0096 C.ar      1 <0>        -0.1440
      2 C2          1.1716    2.0886    0.0021 C.ar      1 <0>        -0.0817
      3 C3          2.3839    1.4333   -0.0130 C.ar      1 <0>        -0.1381
      4 C4          2.4234    0.0421   -0.0208 C.ar      1 <0>         0.1368
      5 C5          1.2204   -0.6789   -0.0132 C.ar      1 <0>        -0.0962
      6 C6          0.0021   -0.0041    0.0020 C.ar      1 <0>        -0.0609
      7 C7          1.5891   -2.1077   -0.0244 C.ar      1 <0>        -0.0649
      8 C8          0.8454   -3.2819   -0.0236 C.ar      1 <0>        -0.0450
      9 C9          1.4816   -4.5185   -0.0365 C.ar      1 <0>        -0.1358
     10 C10         2.8940   -4.5714   -0.0501 C.ar      1 <0>        -0.0059
     11 C11         3.8569   -5.6841   -0.0662 C.ar      1 <0>        -0.1090
     12 C12         3.7202   -7.0720   -0.0736 C.ar      1 <0>        -0.0448
     13 C13         4.8431   -7.8694   -0.0897 C.ar      1 <0>        -0.1554
     14 C14         6.1070   -7.2977   -0.0979 C.ar      1 <0>        -0.0739
     15 C15         6.2575   -5.9282   -0.0907 C.ar      1 <0>        -0.1504
     16 C16         5.1356   -5.1043   -0.0750 C.ar      1 <0>         0.1441
     17 N1          4.9880   -3.7311   -0.0653 N.pl3     1 <0>        -0.6105
     18 H1          5.7195   -3.0941   -0.0687 H         1 <0>         0.4165
     19 C17         3.6443   -3.3949   -0.0504 C.ar      1 <0>         0.1138
     20 C18         2.9910   -2.1538   -0.0381 C.ar      1 <0>         0.1603
     21 N2          3.4713   -0.8601   -0.0356 N.pl3     1 <0>        -0.6071
     22 H2          4.4105   -0.6179   -0.0435 H         1 <0>         0.4182
     23 C19         0.4534   -5.5701   -0.0322 C.2       1 <0>         0.5671
     24 O1          0.6821   -6.7645   -0.0405 O.2       1 <0>        -0.5235
     25 N3         -0.7748   -5.0244   -0.0172 N.am      1 <0>        -0.7239
     26 C20        -0.6370   -3.5635   -0.0107 C.3       1 <0>         0.1438
     27 H3         -0.9602    1.8992    0.0259 H         1 <0>         0.1299
     28 H4          1.1469    3.1683    0.0077 H         1 <0>         0.1312
     29 H5          3.3035    1.9995   -0.0190 H         1 <0>         0.1253
     30 H6         -0.9246   -0.5587    0.0075 H         1 <0>         0.1280
     31 H7          2.7375   -7.5198   -0.0665 H         1 <0>         0.1456
     32 H8          4.7391   -8.9443   -0.0955 H         1 <0>         0.1286
     33 H9          6.9811   -7.9319   -0.1098 H         1 <0>         0.1300
     34 H10         7.2462   -5.4938   -0.0972 H         1 <0>         0.1240
     35 H11        -1.6120   -5.5143   -0.0117 H         1 <0>         0.4271
     36 H12        -1.0897   -3.1483    0.8897 H         1 <0>         0.1004
     37 H13        -1.1071   -3.1386   -0.8976 H         1 <0>         0.1004
@<TRIPOS>BOND
     1    1    6 ar
     2    1    2 ar
     3    1   27 1
     4    2    3 ar
     5    2   28 1
     6    3    4 ar
     7    3   29 1
     8    4   21 1
     9    4    5 ar
    10    5    6 ar
    11    5    7 1
    12    6   30 1
    13    7   20 ar
    14    7    8 ar
    15    8   26 1
    16    8    9 ar
    17    9   10 ar
    18    9   23 1
    19   10   19 ar
    20   10   11 1
    21   11   16 ar
    22   11   12 ar
    23   12   13 ar
    24   12   31 1
    25   13   14 ar
    26   13   32 1
    27   14   15 ar
    28   14   33 1
    29   15   16 ar
    30   15   34 1
    31   16   17 1
    32   17   18 1
    33   17   19 1
    34   19   20 ar
    35   20   21 1
    36   21   22 1
    37   23   24 2
    38   23   25 am
    39   25   26 1
    40   25   35 1
    41   26   36 1
    42   26   37 1
@<TRIPOS>MOLECULE
ZINC43205072
   42    44     0     0     0
SMALL
USER_CHARGES

@<TRIPOS>ATOM
      1 C1         -0.0184    1.5028    0.0103 C.3       1 <0>        -0.0953
      2 C2          0.0021   -0.0041    0.0020 C.2       1 <0>         0.0924
      3 C3          0.0079   -0.7942   -1.0955 C.2       1 <0>        -0.2730
      4 C4          0.0279   -2.1305   -0.6642 C.2       1 <0>         0.3093
      5 N1          0.0339   -2.1341    0.6482 N.2       1 <0>        -0.3234
      6 N2          0.0237   -0.8044    1.0886 N.pl3     1 <0>        -0.4671
      7 H1          0.0289   -0.5103    2.0129 H         1 <0>         0.4405
      8 N3          0.0396   -3.2613   -1.4899 N.pl3     1 <0>        -0.6075
      9 C5          0.0313   -3.1131   -2.8691 C.ar      1 <0>         0.4611
     10 C6          0.0373   -4.2477   -3.6820 C.ar      1 <0>        -0.0581
     11 C7          0.0291   -4.0983   -5.0539 C.ar      1 <0>         0.0260
     12 C8          0.0149   -2.7990   -5.5846 C.ar      1 <0>        -0.1764
     13 C9          0.0096   -1.7045   -4.7036 C.ar      1 <0>         0.4897
     14 N4          0.0125   -1.8968   -3.3943 N.ar      1 <0>        -0.5532
     15 N5         -0.0044   -0.4153   -5.2090 N.pl3     1 <0>        -0.7012
     16 C10        -0.0100    0.7297   -4.2952 C.3       1 <0>         0.1874
     17 H2         -0.5928    0.4834   -3.4076 H         1 <0>         0.1091
     18 C11         1.4262    1.0627   -3.8860 C.3       1 <0>        -0.1636
     19 C12        -0.6245    1.9202   -4.9852 C.ar      1 <0>        -0.1078
     20 C13        -0.3447    2.1674   -6.3163 C.ar      1 <0>        -0.0853
     21 C14        -0.9080    3.2585   -6.9503 C.ar      1 <0>        -0.1471
     22 C15        -1.7530    4.1043   -6.2518 C.ar      1 <0>         0.1031
     23 C16        -2.0325    3.8557   -4.9187 C.ar      1 <0>        -0.1480
     24 C17        -1.4721    2.7610   -4.2883 C.ar      1 <0>        -0.0750
     25 F1         -2.3039    5.1715   -6.8705 F         1 <0>        -0.1368
     26 C18         0.0064   -2.5922   -7.0016 C.1       1 <0>         0.2607
     27 N6         -0.0003   -2.4281   -8.1256 N.1       1 <0>        -0.4159
     28 F2          0.0515   -5.4810   -3.1308 F         1 <0>        -0.1290
     29 H3          1.0042    1.8801    0.0026 H         1 <0>         0.0832
     30 H4         -0.5455    1.8639   -0.8728 H         1 <0>         0.0861
     31 H5         -0.5286    1.8543    0.9071 H         1 <0>         0.0729
     32 H6         -0.0017   -0.4573   -2.1216 H         1 <0>         0.1871
     33 H7          0.0534   -4.1483   -1.0975 H         1 <0>         0.4320
     34 H8          0.0339   -4.9609   -5.7038 H         1 <0>         0.1609
     35 H9         -0.0105   -0.2704   -6.1681 H         1 <0>         0.4125
     36 H10         1.8707    0.2017   -3.3869 H         1 <0>         0.0722
     37 H11         2.0090    1.3090   -4.7735 H         1 <0>         0.0606
     38 H12         1.4220    1.9146   -3.2060 H         1 <0>         0.0724
     39 H13         0.3147    1.5078   -6.8608 H         1 <0>         0.1287
     40 H14        -0.6890    3.4517   -7.9901 H         1 <0>         0.1384
     41 H15        -2.6911    4.5149   -4.3728 H         1 <0>         0.1397
     42 H16        -1.6936    2.5644   -3.2496 H         1 <0>         0.1374
@<TRIPOS>BOND
     1    1    2 1
     2    1   29 1
     3    1   30 1
     4    1   31 1
     5    2    6 1
     6    2    3 2
     7    3    4 1
     8    3   32 1
     9    4    5 2
    10    4    8 1
    11    5    6 1
    12    6    7 1
    13    8    9 1
    14    8   33 1
    15    9   14 ar
    16    9   10 ar
    17   10   11 ar
    18   10   28 1
    19   11   12 ar
    20   11   34 1
    21   12   13 ar
    22   12   26 1
    23   13   14 ar
    24   13   15 1
    25   15   16 1
    26   15   35 1
    27   16   17 1
    28   16   18 1
    29   16   19 1
    30   18   36 1
    31   18   37 1
    32   18   38 1
    33   19   24 ar
    34   19   20 ar
    35   20   21 ar
    36   20   39 1
    37   21   22 ar
    38   21   40 1
    39   22   23 ar
    40   22   25 1
    41   23   24 ar
    42   23   41 1
    43   24   42 1
    44   26   27 3
@<TRIPOS>MOLECULE
ZINC43207851
   41    44     0     0     0
SMALL
USER_CHARGES

@<TRIPOS>ATOM
      1 C1         -0.0177    1.4562    0.0100 C.2       1 <0>        -0.1718
      2 C2          1.2630    1.8627    0.0000 C.2       1 <0>         0.0562
      3 N1          2.0962    0.7748   -0.0138 N.pl3     1 <0>        -0.5731
      4 H1          3.0653    0.8164   -0.0225 H         1 <0>         0.4233
      5 C3          1.3605   -0.3787   -0.0130 C.ar      1 <0>         0.3199
      6 C4          0.0021   -0.0041    0.0020 C.ar      1 <0>        -0.2022
      7 C5         -0.9746   -1.0138    0.0052 C.ar      1 <0>         0.3164
      8 N2         -0.5697   -2.2831   -0.0061 N.ar      1 <0>        -0.5417
      9 C6          0.7143   -2.5871   -0.0199 C.ar      1 <0>         0.3224
     10 N3          1.6626   -1.6744   -0.0232 N.ar      1 <0>        -0.5408
     11 C7         -2.4158   -0.6764    0.0213 C.2       1 <0>        -0.2051
     12 C8         -3.0087    0.4202    0.6810 C.2       1 <0>         0.0821
     13 N4         -4.2951    0.3778    0.4601 N.2       1 <0>        -0.2825
     14 N5         -4.5741   -0.7356   -0.3413 N.pl3     1 <0>        -0.3609
     15 C9         -3.4151   -1.3673   -0.6056 C.2       1 <0>         0.1079
     16 C10        -5.8997   -1.1411   -0.8152 C.3       1 <0>         0.1727
     17 H2         -6.6614   -0.7566   -0.1369 H         1 <0>         0.1166
     18 C11        -5.9803   -2.6683   -0.8596 C.3       1 <0>        -0.0423
     19 C12        -5.8743   -3.2052    0.5069 C.1       1 <0>         0.1905
     20 N6         -5.7925   -3.6195    1.5615 N.1       1 <0>        -0.4070
     21 C13        -6.1343   -0.5771   -2.2180 C.3       1 <0>        -0.1029
     22 C14        -6.1264    0.9650   -2.1756 C.3       1 <0>        -0.1142
     23 C15        -7.2156    1.3787   -3.1962 C.3       1 <0>        -0.1262
     24 C16        -8.3123    0.3068   -2.9789 C.3       1 <0>        -0.1260
     25 C17        -7.5242   -0.9956   -2.7287 C.3       1 <0>        -0.1226
     26 H3         -0.8935    2.0880    0.0258 H         1 <0>         0.1554
     27 H4          1.5872    2.8929    0.0021 H         1 <0>         0.1838
     28 H5          0.9990   -3.6288   -0.0288 H         1 <0>         0.1996
     29 H6         -2.4897    1.1645    1.2667 H         1 <0>         0.1880
     30 H7         -3.2965   -2.2591   -1.2030 H         1 <0>         0.1805
     31 H8         -6.9330   -2.9694   -1.2954 H         1 <0>         0.1388
     32 H9         -5.1636   -3.0578   -1.4673 H         1 <0>         0.1199
     33 H10        -5.3626   -0.9366   -2.8986 H         1 <0>         0.0860
     34 H11        -6.3837    1.3206   -1.1779 H         1 <0>         0.0755
     35 H12        -5.1529    1.3499   -2.4795 H         1 <0>         0.0651
     36 H13        -7.5982    2.3741   -2.9706 H         1 <0>         0.0681
     37 H14        -6.8281    1.3341   -4.2140 H         1 <0>         0.0671
     38 H15        -8.9227    0.5560   -2.1109 H         1 <0>         0.0678
     39 H16        -8.9342    0.2113   -3.8690 H         1 <0>         0.0682
     40 H17        -7.4270   -1.5575   -3.6576 H         1 <0>         0.0756
     41 H18        -8.0316   -1.6005   -1.9772 H         1 <0>         0.0719
@<TRIPOS>BOND
     1    1    6 1
     2    1    2 2
     3    1   26 1
     4    2    3 1
     5    2   27 1
     6    3    4 1
     7    3    5 1
     8    5   10 ar
     9    5    6 ar
    10    6    7 ar
    11    7    8 ar
    12    7   11 1
    13    8    9 ar
    14    9   10 ar
    15    9   28 1
    16   11   15 2
    17   11   12 1
    18   12   13 2
    19   12   29 1
    20   13   14 1
    21   14   15 1
    22   14   16 1
    23   15   30 1
    24   16   17 1
    25   16   18 1
    26   16   21 1
    27   18   19 1
    28   18   31 1
    29   18   32 1
    30   19   20 3
    31   21   25 1
    32   21   22 1
    33   21   33 1
    34   22   23 1
    35   22   34 1
    36   22   35 1
    37   23   24 1
    38   23   36 1
    39   23   37 1
    40   24   25 1
    41   24   38 1
    42   24   39 1
    43   25   40 1
    44   25   41 1
@<TRIPOS>MOLECULE
ZINC03938688
   39    41     0     0     0
SMALL
USER_CHARGES

@<TRIPOS>ATOM
      1 C1         -0.0095    1.3826    0.0704 C.ar      1 <0>        -0.0343
      2 C2          0.5587    1.0580   -1.1482 C.ar      1 <0>        -0.1609
      3 C3          1.7655    0.3862   -1.1955 C.ar      1 <0>         0.1753
      4 C4          2.4129    0.0342   -0.0053 C.ar      1 <0>        -0.1954
      5 C5          1.8304    0.3669    1.2233 C.ar      1 <0>         0.1741
      6 C6          0.6231    1.0388    1.2514 C.ar      1 <0>        -0.1610
      7 F1          2.4463    0.0317    2.3781 F         1 <0>        -0.1212
      8 C7          3.6999   -0.6827   -0.0456 C.2       1 <0>         0.6210
      9 O1          4.7383   -0.0615   -0.1600 O.2       1 <0>        -0.4669
     10 N1          3.7255   -2.0272    0.0446 N.am      1 <0>        -0.3962
     11 C8          4.8314   -2.8210    0.1249 C.2       1 <0>         0.5948
     12 N2          4.4249   -4.0694    0.1979 N.2       1 <0>        -0.5873
     13 C9          3.0869   -4.1118    0.1675 C.2       1 <0>         0.5191
     14 N3          2.6183   -2.8904    0.0808 N.2       1 <0>        -0.3480
     15 N4          2.3148   -5.2702    0.2247 N.pl3     1 <0>        -0.6226
     16 C10         2.9267   -6.5079    0.4407 C.ar      1 <0>         0.2365
     17 C11         4.1432   -6.5760    1.1080 C.ar      1 <0>        -0.1584
     18 C12         4.7450   -7.8008    1.3202 C.ar      1 <0>         0.0098
     19 C13         4.1379   -8.9586    0.8692 C.ar      1 <0>        -0.7033
     20 C14         2.9269   -8.8944    0.2046 C.ar      1 <0>         0.0112
     21 C15         2.3170   -7.6734   -0.0063 C.ar      1 <0>        -0.1777
     22 S1          4.9094  -10.5191    1.1415 S.o2      1 <0>         2.7034
     23 O2          4.4084  -11.3993    0.1448 O.2       1 <0>        -0.9656
     24 O3          6.2977  -10.2630    1.3036 O.2       1 <0>        -0.9650
     25 N5          4.3605  -11.0895    2.5960 N.pl3     1 <0>        -1.2510
     26 N6          6.1422   -2.3912    0.1281 N.pl3     1 <0>        -0.7911
     27 F2          2.3185    0.0697   -2.3868 F         1 <0>        -0.1201
     28 H1         -0.9506    1.9116    0.0998 H         1 <0>         0.1546
     29 H2          0.0576    1.3300   -2.0654 H         1 <0>         0.1549
     30 H3          0.1721    1.2963    2.1984 H         1 <0>         0.1546
     31 H4          1.3525   -5.2176    0.1147 H         1 <0>         0.4325
     32 H5          4.6180   -5.6722    1.4601 H         1 <0>         0.1556
     33 H6          5.6909   -7.8544    1.8385 H         1 <0>         0.1456
     34 H7          2.4556   -9.8005   -0.1466 H         1 <0>         0.1475
     35 H8          1.3691   -7.6243   -0.5215 H         1 <0>         0.1387
     36 H9          3.7284  -10.5673    3.1145 H         1 <0>         0.4165
     37 H10         4.6709  -11.9458    2.9296 H         1 <0>         0.4206
     38 H11         6.3422   -1.4439    0.0694 H         1 <0>         0.4292
     39 H12         6.8640   -3.0364    0.1890 H         1 <0>         0.4303
@<TRIPOS>BOND
     1    1    6 ar
     2    1    2 ar
     3    1   28 1
     4    2    3 ar
     5    2   29 1
     6    3    4 ar
     7    3   27 1
     8    4    5 ar
     9    4    8 1
    10    5    6 ar
    11    5    7 1
    12    6   30 1
    13    8    9 2
    14    8   10 am
    15   10   14 1
    16   10   11 1
    17   11   12 2
    18   11   26 1
    19   12   13 1
    20   13   14 2
    21   13   15 1
    22   15   16 1
    23   15   31 1
    24   16   21 ar
    25   16   17 ar
    26   17   18 ar
    27   17   32 1
    28   18   19 ar
    29   18   33 1
    30   19   20 ar
    31   19   22 1
    32   20   21 ar
    33   20   34 1
    34   21   35 1
    35   22   23 2
    36   22   24 2
    37   22   25 1
    38   25   36 1
    39   25   37 1
    40   26   38 1
    41   26   39 1
@<TRIPOS>MOLECULE
ZINC12504479
   39    42     0     0     0
SMALL
USER_CHARGES
tert-butyl-fluoro-BLAHone
@<TRIPOS>ATOM
      1 C1          0.0306    7.5665   -1.3573 C.3       1 <0>        -0.1435
      2 C2         -0.0131    6.9316    0.0341 C.3       1 <0>         0.0141
      3 C3         -1.4663    6.6486    0.4201 C.3       1 <0>        -0.1303
      4 C4          0.6075    7.8907    1.0520 C.3       1 <0>        -0.1484
      5 C5          0.7640    5.6405    0.0218 C.2       1 <0>         0.2640
      6 N1          2.1200    5.5432    0.0086 N.pl3     1 <0>        -0.5660
      7 H1          2.7692    6.3038    0.0059 H         1 <0>         0.4300
      8 C6          2.4322    4.2055   -0.0004 C.ar      1 <0>         0.0707
      9 C7          3.6945    3.4726   -0.0160 C.ar      1 <0>        -0.0387
     10 C8          4.9179    4.1553   -0.0241 C.ar      1 <0>        -0.0830
     11 C9          6.0889    3.4567   -0.0382 C.ar      1 <0>        -0.1479
     12 C10         6.0877    2.0644   -0.0451 C.ar      1 <0>         0.1067
     13 C11         4.9015    1.3651   -0.0371 C.ar      1 <0>        -0.1434
     14 C12         3.6874    2.0596   -0.0226 C.ar      1 <0>         0.0348
     15 C13         2.4115    1.3424   -0.0138 C.ar      1 <0>        -0.1820
     16 C14         1.2049    2.0599    0.0016 C.ar      1 <0>         0.1180
     17 C15         1.2195    3.5214    0.0080 C.ar      1 <0>         0.0317
     18 N2          0.2386    4.4495    0.0214 N.2       1 <0>        -0.4565
     19 C16        -0.0162    1.3425    0.0094 C.2       1 <0>        -0.2034
     20 C17         0.0021   -0.0041    0.0020 C.2       1 <0>         0.1350
     21 N3          1.1742   -0.7011   -0.0125 N.am      1 <0>        -0.6142
     22 H2          1.1491   -1.6708   -0.0168 H         1 <0>         0.4195
     23 C18         2.3662   -0.0731   -0.0205 C.2       1 <0>         0.5428
     24 O1          3.3998   -0.7196   -0.0338 O.2       1 <0>        -0.5363
     25 F1          7.2604    1.3938   -0.0600 F         1 <0>        -0.1343
     26 H3         -0.4115    6.8833   -2.0824 H         1 <0>         0.0650
     27 H4         -0.5315    8.5004   -1.3483 H         1 <0>         0.0730
     28 H5          1.0659    7.7682   -1.6323 H         1 <0>         0.0547
     29 H6         -1.4974    6.1963    1.4114 H         1 <0>         0.0620
     30 H7         -2.0283    7.5824    0.4291 H         1 <0>         0.0642
     31 H8         -1.9084    5.9653   -0.3050 H         1 <0>         0.0701
     32 H9          1.6428    8.0923    0.7770 H         1 <0>         0.0535
     33 H10         0.0454    8.8245    1.0609 H         1 <0>         0.0757
     34 H11         0.5764    7.4384    2.0432 H         1 <0>         0.0638
     35 H12         4.9335    5.2351   -0.0195 H         1 <0>         0.1298
     36 H13         7.0282    3.9897   -0.0443 H         1 <0>         0.1393
     37 H14         4.9085    0.2852   -0.0418 H         1 <0>         0.1812
     38 H15        -0.9571    1.8725    0.0168 H         1 <0>         0.1577
     39 H16        -0.9330   -0.5444    0.0080 H         1 <0>         0.1706
@<TRIPOS>BOND
     1    1    2 1
     2    1   26 1
     3    1   27 1
     4    1   28 1
     5    2    3 1
     6    2    4 1
     7    2    5 1
     8    3   29 1
     9    3   30 1
    10    3   31 1
    11    4   32 1
    12    4   33 1
    13    4   34 1
    14    5   18 2
    15    5    6 1
    16    6    7 1
    17    6    8 1
    18    8   17 ar
    19    8    9 ar
    20    9   14 ar
    21    9   10 ar
    22   10   11 ar
    23   10   35 1
    24   11   12 ar
    25   11   36 1
    26   12   13 ar
    27   12   25 1
    28   13   14 ar
    29   13   37 1
    30   14   15 ar
    31   15   23 1
    32   15   16 ar
    33   16   17 ar
    34   16   19 1
    35   17   18 1
    36   19   20 2
    37   19   38 1
    38   20   21 1
    39   20   39 1
    40   21   22 1
    41   21   23 am
    42   23   24 2
@<TRIPOS>MOLECULE
ZINC34802946
   67    71     0     0     0
SMALL
USER_CHARGES

@<TRIPOS>ATOM
      1 C1         -0.0483    1.5024    0.0098 C.3       1 <0>        -0.1268
      2 C2         -0.0195   -0.0043    0.0016 C.ar      1 <0>        -0.0386
      3 C3         -0.0178   -0.6868   -1.1996 C.ar      1 <0>        -0.1235
      4 C4          0.0085   -2.0667   -1.2158 C.ar      1 <0>        -0.0785
      5 C5          0.0330   -2.7811   -0.0158 C.ar      1 <0>        -0.1428
      6 C6          0.0314   -2.0969    1.1984 C.ar      1 <0>        -0.0380
      7 C7          0.0111   -0.7058    1.2063 C.ar      1 <0>        -0.0517
      8 C8          0.0158    0.0300    2.4946 C.ar      1 <0>        -0.0766
      9 C9          0.9293    1.0770    2.6951 C.ar      1 <0>        -0.0509
     10 C10         0.9551    1.7681    3.8654 C.ar      1 <0>        -0.1204
     11 C11         0.0589    1.4368    4.8939 C.ar      1 <0>         0.2183
     12 C12        -0.8687    0.3799    4.7012 C.ar      1 <0>        -0.2144
     13 C13        -0.8839   -0.3174    3.4865 C.ar      1 <0>        -0.0354
     14 C14        -1.7564    0.0690    5.7490 C.ar      1 <0>         0.2451
     15 N1         -1.6869    0.7718    6.8601 N.ar      1 <0>        -0.5576
     16 C15        -0.8035    1.7573    7.0067 C.ar      1 <0>         0.5740
     17 N2          0.0519    2.0930    6.0606 N.ar      1 <0>        -0.5737
     18 N3         -0.7822    2.4573    8.1995 N.pl3     1 <0>        -0.6964
     19 C16        -1.7195    2.1088    9.2701 C.3       1 <0>         0.1398
     20 C17        -1.4872    3.0285   10.4706 C.3       1 <0>         0.0428
     21 N4         -2.4271    2.6791   11.5442 N.3       1 <0>        -0.5321
     22 C18        -3.8120    2.9741   11.1487 C.3       1 <0>         0.0117
     23 C19        -4.7604    2.5406   12.2697 C.3       1 <0>         0.0630
     24 O1         -4.3910    3.2025   13.4824 O.3       1 <0>        -0.3850
     25 C20        -3.0483    2.9369   13.8974 C.3       1 <0>         0.0630
     26 C21        -2.0826    3.3743   12.7929 C.3       1 <0>         0.0183
     27 C22         0.0602   -4.2590   -0.0337 C.2       1 <0>         0.5622
     28 O2          0.0816   -4.8792    1.0117 O.2       1 <0>        -0.5109
     29 N5          0.0613   -4.9189   -1.2088 N.am      1 <0>        -0.6699
     30 C23         0.1847   -6.3117   -1.2285 C.ar      1 <0>         0.1443
     31 C24         0.8894   -6.9337   -2.2514 C.ar      1 <0>        -0.1118
     32 C25         1.0099   -8.3092   -2.2677 C.ar      1 <0>        -0.0994
     33 C26         0.4298   -9.0675   -1.2671 C.ar      1 <0>        -0.0865
     34 C27        -0.2722   -8.4516   -0.2475 C.ar      1 <0>        -0.1641
     35 C28        -0.3920   -7.0758   -0.2225 C.ar      1 <0>        -0.0722
     36 C29        -0.9025   -9.2820    0.8407 C.3       1 <0>         0.5092
     37 F1         -0.6426  -10.6360    0.6040 F         1 <0>        -0.1761
     38 F2         -0.3653   -8.9135    2.0788 F         1 <0>        -0.1725
     39 F3         -2.2849   -9.0671    0.8497 F         1 <0>        -0.1757
     40 H1          0.9721    1.8854   -0.0029 H         1 <0>         0.0793
     41 H2         -0.5817    1.8604   -0.8708 H         1 <0>         0.0726
     42 H3         -0.5562    1.8513    0.9089 H         1 <0>         0.0756
     43 H4         -0.0375   -0.1384   -2.1297 H         1 <0>         0.1346
     44 H5          0.0097   -2.5949   -2.1579 H         1 <0>         0.1271
     45 H6          0.0504   -2.6442    2.1292 H         1 <0>         0.1408
     46 H7          1.6219    1.3369    1.9082 H         1 <0>         0.1341
     47 H8          1.6644    2.5707    4.0039 H         1 <0>         0.1396
     48 H9         -1.5883   -1.1204    3.3272 H         1 <0>         0.1367
     49 H10        -2.4780   -0.7275    5.6434 H         1 <0>         0.1790
     50 H11        -0.1467    3.1789    8.3270 H         1 <0>         0.4144
     51 H12        -2.7417    2.2301    8.9119 H         1 <0>         0.0688
     52 H13        -1.5600    1.0730    9.5698 H         1 <0>         0.0789
     53 H14        -0.4650    2.9072   10.8288 H         1 <0>         0.0845
     54 H15        -1.6467    4.0643   10.1709 H         1 <0>         0.0436
     55 H16        -3.9204    4.0444   10.9738 H         1 <0>         0.0453
     56 H17        -4.0538    2.4291   10.2363 H         1 <0>         0.0911
     57 H18        -5.7831    2.8094   12.0054 H         1 <0>         0.1000
     58 H19        -4.6911    1.4617   12.4082 H         1 <0>         0.0622
     59 H20        -2.8329    3.4922   14.8102 H         1 <0>         0.1003
     60 H21        -2.9293    1.8694   14.0832 H         1 <0>         0.0619
     61 H22        -1.0621    3.1215   13.0806 H         1 <0>         0.0888
     62 H23        -2.1634    4.4511   12.6442 H         1 <0>         0.0455
     63 H24        -0.0236   -4.4277   -2.0409 H         1 <0>         0.4141
     64 H25         1.3423   -6.3421   -3.0333 H         1 <0>         0.1370
     65 H26         1.5573   -8.7933   -3.0629 H         1 <0>         0.1416
     66 H27         0.5252  -10.1432   -1.2823 H         1 <0>         0.1414
     67 H28        -0.9370   -6.5950    0.5764 H         1 <0>         0.1510
@<TRIPOS>BOND
     1    1    2 1
     2    1   40 1
     3    1   41 1
     4    1   42 1
     5    2    7 ar
     6    2    3 ar
     7    3    4 ar
     8    3   43 1
     9    4    5 ar
    10    4   44 1
    11    5    6 ar
    12    5   27 1
    13    6    7 ar
    14    6   45 1
    15    7    8 1
    16    8   13 ar
    17    8    9 ar
    18    9   10 ar
    19    9   46 1
    20   10   11 ar
    21   10   47 1
    22   11   17 ar
    23   11   12 ar
    24   12   13 ar
    25   12   14 ar
    26   13   48 1
    27   14   15 ar
    28   14   49 1
    29   15   16 ar
    30   16   17 ar
    31   16   18 1
    32   18   19 1
    33   18   50 1
    34   19   20 1
    35   19   51 1
    36   19   52 1
    37   20   21 1
    38   20   53 1
    39   20   54 1
    40   21   26 1
    41   21   22 1
    42   22   23 1
    43   22   55 1
    44   22   56 1
    45   23   24 1
    46   23   57 1
    47   23   58 1
    48   24   25 1
    49   25   26 1
    50   25   59 1
    51   25   60 1
    52   26   61 1
    53   26   62 1
    54   27   28 2
    55   27   29 am
    56   29   30 1
    57   29   63 1
    58   30   35 ar
    59   30   31 ar
    60   31   32 ar
    61   31   64 1
    62   32   33 ar
    63   32   65 1
    64   33   34 ar
    65   33   66 1
    66   34   35 ar
    67   34   36 1
    68   35   67 1
    69   36   37 1
    70   36   38 1
    71   36   39 1
@<TRIPOS>MOLECULE
ZINC34802946
   68    72     0     0     0
SMALL
USER_CHARGES

@<TRIPOS>ATOM
      1 C1         -0.0483    1.5024    0.0098 C.3       1 <0>        -0.1276
      2 C2         -0.0195   -0.0043    0.0016 C.ar      1 <0>        -0.0366
      3 C3         -0.0178   -0.6868   -1.1996 C.ar      1 <0>        -0.1221
      4 C4          0.0085   -2.0667   -1.2158 C.ar      1 <0>        -0.0731
      5 C5          0.0330   -2.7811   -0.0158 C.ar      1 <0>        -0.1410
      6 C6          0.0314   -2.0969    1.1984 C.ar      1 <0>        -0.0362
      7 C7          0.0111   -0.7058    1.2063 C.ar      1 <0>        -0.0635
      8 C8          0.0158    0.0300    2.4946 C.ar      1 <0>        -0.0553
      9 C9          0.9293    1.0770    2.6951 C.ar      1 <0>        -0.0467
     10 C10         0.9551    1.7681    3.8654 C.ar      1 <0>        -0.1170
     11 C11         0.0589    1.4368    4.8939 C.ar      1 <0>         0.2111
     12 C12        -0.8687    0.3799    4.7012 C.ar      1 <0>        -0.2001
     13 C13        -0.8839   -0.3174    3.4865 C.ar      1 <0>        -0.0453
     14 C14        -1.7564    0.0690    5.7490 C.ar      1 <0>         0.2479
     15 N1         -1.6869    0.7718    6.8601 N.ar      1 <0>        -0.5684
     16 C15        -0.8035    1.7573    7.0067 C.ar      1 <0>         0.5623
     17 N2          0.0519    2.0930    6.0606 N.ar      1 <0>        -0.5576
     18 N3         -0.7822    2.4573    8.1995 N.pl3     1 <0>        -0.7040
     19 C16        -1.7195    2.1088    9.2701 C.3       1 <0>         0.1188
     20 C17        -1.4872    3.0285   10.4706 C.3       1 <0>        -0.0230
     21 N4         -2.4271    2.6791   11.5442 N.4       1 <0>        -0.3805
     22 C18        -3.8007    2.9572   11.1027 C.3       1 <0>        -0.0511
     23 C19        -4.7779    2.5921   12.2228 C.3       1 <0>         0.0367
     24 O1         -4.4442    3.3332   13.3998 O.3       1 <0>        -0.3561
     25 C20        -3.1064    3.1140   13.8559 C.3       1 <0>         0.0359
     26 C21        -2.1261    3.4800   12.7388 C.3       1 <0>        -0.0426
     27 C22         0.0602   -4.2590   -0.0337 C.2       1 <0>         0.5618
     28 O2          0.0816   -4.8792    1.0117 O.2       1 <0>        -0.5123
     29 N5          0.0613   -4.9189   -1.2088 N.am      1 <0>        -0.6683
     30 C23         0.1847   -6.3117   -1.2285 C.ar      1 <0>         0.1414
     31 C24         0.8894   -6.9337   -2.2514 C.ar      1 <0>        -0.1102
     32 C25         1.0099   -8.3092   -2.2677 C.ar      1 <0>        -0.0984
     33 C26         0.4298   -9.0675   -1.2671 C.ar      1 <0>        -0.0844
     34 C27        -0.2722   -8.4516   -0.2475 C.ar      1 <0>        -0.1647
     35 C28        -0.3920   -7.0758   -0.2225 C.ar      1 <0>        -0.0721
     36 C29        -0.9025   -9.2820    0.8407 C.3       1 <0>         0.5095
     37 F1         -0.6426  -10.6360    0.6040 F         1 <0>        -0.1749
     38 F2         -0.3653   -8.9135    2.0788 F         1 <0>        -0.1737
     39 F3         -2.2849   -9.0671    0.8497 F         1 <0>        -0.1759
     40 H1          0.9721    1.8854   -0.0029 H         1 <0>         0.0806
     41 H2         -0.5817    1.8604   -0.8708 H         1 <0>         0.0754
     42 H3         -0.5562    1.8513    0.9089 H         1 <0>         0.0730
     43 H4         -0.0375   -0.1384   -2.1297 H         1 <0>         0.1371
     44 H5          0.0097   -2.5949   -2.1579 H         1 <0>         0.1298
     45 H6          0.0504   -2.6442    2.1292 H         1 <0>         0.1405
     46 H7          1.6219    1.3369    1.9082 H         1 <0>         0.1398
     47 H8          1.6644    2.5707    4.0039 H         1 <0>         0.1435
     48 H9         -1.5883   -1.1204    3.3272 H         1 <0>         0.1410
     49 H10        -2.4780   -0.7275    5.6434 H         1 <0>         0.1829
     50 H11        -0.1467    3.1789    8.3270 H         1 <0>         0.4205
     51 H12        -2.7417    2.2301    8.9119 H         1 <0>         0.0871
     52 H13        -1.5600    1.0730    9.5698 H         1 <0>         0.0876
     53 H14        -0.4650    2.9072   10.8288 H         1 <0>         0.1408
     54 H15        -1.6467    4.0643   10.1709 H         1 <0>         0.1388
     55 H16        -3.8989    4.0165   10.8654 H         1 <0>         0.1412
     56 H17        -4.0250    2.3635   10.2165 H         1 <0>         0.1457
     57 H18        -5.7940    2.8378   11.9139 H         1 <0>         0.1434
     58 H19        -4.7086    1.5248   12.4329 H         1 <0>         0.0831
     59 H20        -2.9127    3.7373   14.7289 H         1 <0>         0.1435
     60 H21        -2.9799    2.0645   14.1218 H         1 <0>         0.0826
     61 H22        -1.1073    3.2744   13.0672 H         1 <0>         0.1445
     62 H23        -2.2249    4.5391   12.5009 H         1 <0>         0.1407
     63 H24        -0.0236   -4.4277   -2.0409 H         1 <0>         0.4145
     64 H25         1.3423   -6.3421   -3.0333 H         1 <0>         0.1377
     65 H26         1.5573   -8.7933   -3.0629 H         1 <0>         0.1430
     66 H27         0.5252  -10.1432   -1.2823 H         1 <0>         0.1425
     67 H28        -0.9370   -6.5950    0.5764 H         1 <0>         0.1500
     68 H29        -2.3364    1.6987   11.7648 H         1 <0>         0.4260
@<TRIPOS>BOND
     1    1    2 1
     2    1   40 1
     3    1   41 1
     4    1   42 1
     5    2    7 ar
     6    2    3 ar
     7    3    4 ar
     8    3   43 1
     9    4    5 ar
    10    4   44 1
    11    5    6 ar
    12    5   27 1
    13    6    7 ar
    14    6   45 1
    15    7    8 1
    16    8   13 ar
    17    8    9 ar
    18    9   10 ar
    19    9   46 1
    20   10   11 ar
    21   10   47 1
    22   11   17 ar
    23   11   12 ar
    24   12   13 ar
    25   12   14 ar
    26   13   48 1
    27   14   15 ar
    28   14   49 1
    29   15   16 ar
    30   16   17 ar
    31   16   18 1
    32   18   19 1
    33   18   50 1
    34   19   20 1
    35   19   51 1
    36   19   52 1
    37   20   21 1
    38   20   53 1
    39   20   54 1
    40   21   26 1
    41   21   22 1
    42   21   68 1
    43   22   23 1
    44   22   55 1
    45   22   56 1
    46   23   24 1
    47   23   57 1
    48   23   58 1
    49   24   25 1
    50   25   26 1
    51   25   59 1
    52   25   60 1
    53   26   61 1
    54   26   62 1
    55   27   28 2
    56   27   29 am
    57   29   30 1
    58   29   63 1
    59   30   35 ar
    60   30   31 ar
    61   31   32 ar
    62   31   64 1
    63   32   33 ar
    64   32   65 1
    65   33   34 ar
    66   33   66 1
    67   34   35 ar
    68   34   36 1
    69   35   67 1
    70   36   37 1
    71   36   38 1
    72   36   39 1
@<TRIPOS>MOLECULE
ZINC03818808
   43    45     0     0     0
SMALL
USER_CHARGES

@<TRIPOS>ATOM
      1 C1         -0.1632    1.4289   -0.0427 C.3       1 <0>        -0.1412
      2 C2         -0.0864   -0.0984    0.0043 C.3       1 <0>        -0.0993
      3 H1          0.4045   -0.4653   -0.8971 H         1 <0>         0.0854
      4 C3         -1.5005   -0.6778    0.0865 C.3       1 <0>        -0.1618
      5 C4         -1.4214   -2.2076    0.0985 C.3       1 <0>         0.0979
      6 N1         -0.5332   -2.6266    1.1913 N.am      1 <0>        -0.6084
      7 C5          0.8204   -2.0592    1.2586 C.3       1 <0>         0.1008
      8 C6          0.7158   -0.5310    1.2337 C.3       1 <0>         0.1392
      9 H2          1.7154   -0.0989    1.1864 H         1 <0>         0.1227
     10 N2          0.0389   -0.0672    2.4474 N.pl3     1 <0>        -0.5724
     11 C7         -1.3008   -0.5622    2.7736 C.3       1 <0>         0.0568
     12 C8          0.6646    0.8382    3.2852 C.ar      1 <0>         0.4913
     13 C9         -0.0139    1.3910    4.3823 C.ar      1 <0>        -0.2606
     14 C10        -1.3557    1.2550    4.9458 C.2       1 <0>        -0.1714
     15 C11        -1.4077    2.0560    6.0226 C.2       1 <0>         0.0373
     16 N3         -0.2038    2.6908    6.1878 N.pl3     1 <0>        -0.5701
     17 H3          0.0007    3.3193    6.8977 H         1 <0>         0.4217
     18 C12         0.6666    2.3073    5.2049 C.ar      1 <0>         0.3412
     19 N4          1.9288    2.6138    4.9083 N.ar      1 <0>        -0.5745
     20 C13         2.5254    2.0715    3.8692 C.ar      1 <0>         0.3621
     21 N5          1.9260    1.2026    3.0748 N.ar      1 <0>        -0.6016
     22 C14        -0.9523   -3.5144    2.1147 C.2       1 <0>         0.5178
     23 O1         -0.2095   -3.8523    3.0120 O.2       1 <0>        -0.5153
     24 C15        -2.3438   -4.0872    2.0324 C.3       1 <0>        -0.0460
     25 C16        -2.5552   -5.0247    3.1474 C.1       1 <0>         0.2103
     26 N6         -2.7185   -5.7482    4.0078 N.1       1 <0>        -0.4023
     27 H4          0.8439    1.8417   -0.1017 H         1 <0>         0.0576
     28 H5         -0.7342    1.7372   -0.9185 H         1 <0>         0.0554
     29 H6         -0.6541    1.7959    0.8587 H         1 <0>         0.0527
     30 H7         -1.9831   -0.3313    1.0004 H         1 <0>         0.0936
     31 H8         -2.0787   -0.3501   -0.7775 H         1 <0>         0.0813
     32 H9         -2.4164   -2.6237    0.2564 H         1 <0>         0.0917
     33 H10        -1.0222   -2.5603   -0.8525 H         1 <0>         0.0812
     34 H11         1.3045   -2.3773    2.1818 H         1 <0>         0.1011
     35 H12         1.4023   -2.3998    0.4022 H         1 <0>         0.0864
     36 H13        -1.4613   -1.5240    2.2863 H         1 <0>         0.0974
     37 H14        -1.3908   -0.6824    3.8532 H         1 <0>         0.0714
     38 H15        -2.0469    0.1513    2.4239 H         1 <0>         0.0596
     39 H16        -2.1522    0.6306    4.5687 H         1 <0>         0.1530
     40 H17        -2.2689    2.1817    6.6620 H         1 <0>         0.1790
     41 H18         3.5491    2.3441    3.6594 H         1 <0>         0.1974
     42 H19        -3.0733   -3.2796    2.0934 H         1 <0>         0.1393
     43 H20        -2.4641   -4.6148    1.0862 H         1 <0>         0.1422
@<TRIPOS>BOND
     1    1    2 1
     2    1   27 1
     3    1   28 1
     4    1   29 1
     5    2    3 1
     6    2    8 1
     7    2    4 1
     8    4    5 1
     9    4   30 1
    10    4   31 1
    11    5    6 1
    12    5   32 1
    13    5   33 1
    14    6    7 1
    15    6   22 am
    16    7    8 1
    17    7   34 1
    18    7   35 1
    19    8    9 1
    20    8   10 1
    21   10   11 1
    22   10   12 1
    23   11   36 1
    24   11   37 1
    25   11   38 1
    26   12   21 ar
    27   12   13 ar
    28   13   18 ar
    29   13   14 1
    30   14   15 2
    31   14   39 1
    32   15   16 1
    33   15   40 1
    34   16   17 1
    35   16   18 1
    36   18   19 ar
    37   19   20 ar
    38   20   21 ar
    39   20   41 1
    40   22   23 2
    41   22   24 1
    42   24   25 1
    43   24   42 1
    44   24   43 1
    45   25   26 3
@<TRIPOS>MOLECULE
ZINC03818808
   44    46     0     0     0
SMALL
USER_CHARGES

@<TRIPOS>ATOM
      1 C1          1.0751    1.2737   -0.0434 C.3       1 <0>        -0.1717
      2 C2          0.9577   -0.2392    0.1521 C.3       1 <0>        -0.1047
      3 H1          1.6206   -0.7482   -0.5476 H         1 <0>         0.1065
      4 C3         -0.4865   -0.6759   -0.1043 C.3       1 <0>        -0.1315
      5 C4         -0.5928   -2.1955    0.0584 C.3       1 <0>         0.0881
      6 N1         -0.0762   -2.5665    1.3829 N.am      1 <0>        -0.6217
      7 C5          1.2696   -2.1192    1.7670 C.3       1 <0>         0.0703
      8 C6          1.3546   -0.6005    1.5853 C.3       1 <0>         0.1548
      9 H2          2.3753   -0.2682    1.7748 H         1 <0>         0.1151
     10 N2          0.4432    0.0566    2.5254 N.pl3     1 <0>        -0.6726
     11 C7          0.2147    1.5009    2.4360 C.3       1 <0>         0.0820
     12 C8         -0.1863   -0.6692    3.4747 C.cat     1 <0>         0.6538
     13 N3         -1.4115   -1.1477    3.3110 N.pl3     1 <0>        -0.5444
     14 C9         -2.0279   -1.8522    4.2561 C.2       1 <0>         0.3321
     15 N4         -1.4500   -2.3911    5.3069 N.2       1 <0>        -0.3576
     16 C10        -0.1425   -2.2304    5.4947 C.2       1 <0>         0.3486
     17 N5          0.8810   -2.7839    6.0628 N.2       1 <0>        -0.3868
     18 C11         2.0466   -2.4288    5.4730 C.2       1 <0>         0.0742
     19 C12         1.8950   -1.3891    4.6394 C.2       1 <0>        -0.1875
     20 C13         0.4539   -1.0025    4.7995 C.3       1 <0>        -0.1965
     21 H3          0.3826   -0.1407    5.4632 H         1 <0>         0.2035
     22 C14        -0.8228   -3.3029    2.2295 C.2       1 <0>         0.4987
     23 O1         -0.4185   -3.5355    3.3491 O.2       1 <0>        -0.5208
     24 C15        -2.1600   -3.8373    1.7851 C.3       1 <0>        -0.0470
     25 C16        -2.7721   -4.6027    2.8834 C.1       1 <0>         0.1796
     26 N6         -3.2445   -5.1934    3.7309 N.1       1 <0>        -0.3579
     27 H4          1.9917    1.6307    0.4261 H         1 <0>         0.0671
     28 H5          1.1000    1.5016   -1.1090 H         1 <0>         0.0701
     29 H6          0.2170    1.7667    0.4136 H         1 <0>         0.0716
     30 H7         -1.1471   -0.1863    0.6113 H         1 <0>         0.0598
     31 H8         -0.7764   -0.3973   -1.1174 H         1 <0>         0.1011
     32 H9         -1.6361   -2.4998   -0.0253 H         1 <0>         0.1003
     33 H10        -0.0031   -2.6879   -0.7149 H         1 <0>         0.0960
     34 H11         1.4551   -2.3733    2.8106 H         1 <0>         0.1127
     35 H12         2.0111   -2.6054    1.1331 H         1 <0>         0.1150
     36 H13        -0.6534    1.6930    1.8054 H         1 <0>         0.0747
     37 H14         0.0356    1.9028    3.4332 H         1 <0>         0.0735
     38 H15         1.0920    1.9814    2.0027 H         1 <0>         0.1163
     39 H16        -3.0936   -1.9931    4.1516 H         1 <0>         0.2346
     40 H17         2.9889   -2.9247    5.6530 H         1 <0>         0.1925
     41 H18         2.6381   -0.9370    3.9993 H         1 <0>         0.1817
     42 H19        -2.8114   -3.0064    1.5141 H         1 <0>         0.1360
     43 H20        -2.0224   -4.4878    0.9214 H         1 <0>         0.1536
     44 H21        -1.8737   -0.9784    2.4752 H         1 <0>         0.4370
@<TRIPOS>BOND
     1    1    2 1
     2    1   27 1
     3    1   28 1
     4    1   29 1
     5    2    3 1
     6    2    8 1
     7    2    4 1
     8    4    5 1
     9    4   30 1
    10    4   31 1
    11    5    6 1
    12    5   32 1
    13    5   33 1
    14    6    7 1
    15    6   22 am
    16    7    8 1
    17    7   34 1
    18    7   35 1
    19    8    9 1
    20    8   10 1
    21   10   11 1
    22   10   12 1
    23   11   36 1
    24   11   37 1
    25   11   38 1
    26   12   20 1
    27   12   13 2
    28   13   14 1
    29   13   44 1
    30   14   15 2
    31   14   39 1
    32   15   16 1
    33   16   20 1
    34   16   17 2
    35   17   18 1
    36   18   19 2
    37   18   40 1
    38   19   20 1
    39   19   41 1
    40   20   21 1
    41   22   23 2
    42   22   24 1
    43   24   25 1
    44   24   42 1
    45   24   43 1
    46   25   26 3
@<TRIPOS>MOLECULE
ZINC01488208
   36    38     0     0     0
SMALL
USER_CHARGES
N-[4-(3-bromophenyl)aminoquinazolin-6-yl]prop-2-enamide
@<TRIPOS>ATOM
      1 C1          0.7775   -0.7948   -0.0705 C.2       1 <0>        -0.0776
      2 C2         -0.1901   -0.0729    0.4879 C.2       1 <0>        -0.2239
      3 C3         -0.2148    1.3867    0.3098 C.2       1 <0>         0.5453
      4 O1          0.6497    1.9338   -0.3482 O.2       1 <0>        -0.5201
      5 N1         -1.1983    2.1176    0.8710 N.am      1 <0>        -0.6711
      6 C4         -1.1650    3.5137    0.7909 C.ar      1 <0>         0.1488
      7 C5          0.0636    4.1806    0.8263 C.ar      1 <0>        -0.0728
      8 C6          0.1262    5.5383    0.7452 C.ar      1 <0>        -0.0845
      9 C7         -1.0549    6.2855    0.6352 C.ar      1 <0>         0.1769
     10 C8         -2.3031    5.6166    0.6042 C.ar      1 <0>        -0.1665
     11 C9         -2.3452    4.2208    0.6834 C.ar      1 <0>        -0.1115
     12 C10        -3.4789    6.3983    0.4921 C.ar      1 <0>         0.4609
     13 N2         -3.3505    7.7165    0.4215 N.ar      1 <0>        -0.5769
     14 C11        -2.1619    8.2977    0.4547 C.ar      1 <0>         0.3399
     15 N3         -1.0405    7.6248    0.5574 N.ar      1 <0>        -0.5362
     16 N4         -4.7242    5.8046    0.4569 N.pl3     1 <0>        -0.6385
     17 C12        -5.8763    6.5961    0.4637 C.ar      1 <0>         0.1585
     18 C13        -7.0147    6.1742   -0.2119 C.ar      1 <0>        -0.1334
     19 C14        -8.1516    6.9579   -0.2031 C.ar      1 <0>        -0.0918
     20 C15        -8.1584    8.1619    0.4772 C.ar      1 <0>        -0.1069
     21 C16        -7.0268    8.5852    1.1515 C.ar      1 <0>        -0.0706
     22 C17        -5.8872    7.8030    1.1505 C.ar      1 <0>        -0.0848
     23 Br1        -7.0416   10.2318    2.0813 Br        1 <0>        -0.0434
     24 H1          0.7956   -1.8667    0.0603 H         1 <0>         0.1209
     25 H2          1.5450   -0.3091   -0.6547 H         1 <0>         0.1170
     26 H3         -0.9577   -0.5586    1.0722 H         1 <0>         0.1316
     27 H4         -1.9293    1.6755    1.3305 H         1 <0>         0.4144
     28 H5          0.9764    3.6102    0.9149 H         1 <0>         0.1459
     29 H6          1.0830    6.0386    0.7700 H         1 <0>         0.1477
     30 H7         -3.2919    3.7016    0.6610 H         1 <0>         0.1302
     31 H8         -2.1129    9.3749    0.3942 H         1 <0>         0.1986
     32 H9         -4.8000    4.8380    0.4274 H         1 <0>         0.4219
     33 H10        -7.0104    5.2342   -0.7437 H         1 <0>         0.1312
     34 H11        -9.0368    6.6300   -0.7278 H         1 <0>         0.1371
     35 H12        -9.0489    8.7729    0.4825 H         1 <0>         0.1347
     36 H13        -5.0054    8.1316    1.6804 H         1 <0>         0.1486
@<TRIPOS>BOND
     1    1    2 2
     2    1   24 1
     3    1   25 1
     4    2    3 1
     5    2   26 1
     6    3    4 2
     7    3    5 am
     8    5    6 1
     9    5   27 1
    10    6   11 ar
    11    6    7 ar
    12    7    8 ar
    13    7   28 1
    14    8    9 ar
    15    8   29 1
    16    9   15 ar
    17    9   10 ar
    18   10   11 ar
    19   10   12 ar
    20   11   30 1
    21   12   13 ar
    22   12   16 1
    23   13   14 ar
    24   14   15 ar
    25   14   31 1
    26   16   17 1
    27   16   32 1
    28   17   22 ar
    29   17   18 ar
    30   18   19 ar
    31   18   33 1
    32   19   20 ar
    33   19   34 1
    34   20   21 ar
    35   20   35 1
    36   21   22 ar
    37   21   23 1
    38   22   36 1
@<TRIPOS>MOLECULE
ZINC27439698
   59    62     0     0     0
SMALL
USER_CHARGES

@<TRIPOS>ATOM
      1 C1         -0.2063    1.0844    0.8125 C.2       1 <0>        -0.0780
      2 C2         -0.0916   -0.1284    0.2785 C.2       1 <0>        -0.2217
      3 C3          1.1892   -0.8472    0.3546 C.2       1 <0>         0.5464
      4 O1          2.1435   -0.3327    0.9059 O.2       1 <0>        -0.5301
      5 N1          1.3054   -2.0761   -0.1864 N.am      1 <0>        -0.6549
      6 C4          2.5517   -2.7129   -0.2160 C.ar      1 <0>         0.1200
      7 C5          3.7048   -1.9595   -0.1827 C.ar      1 <0>        -0.0579
      8 C6          4.9490   -2.5997   -0.2120 C.ar      1 <0>        -0.1974
      9 C7          5.0154   -4.0138   -0.2753 C.ar      1 <0>         0.2129
     10 C8          3.8313   -4.7603   -0.3083 C.ar      1 <0>        -0.1947
     11 C9          2.6164   -4.1137   -0.2734 C.ar      1 <0>         0.1622
     12 O2          1.4681   -4.8389   -0.3002 O.3       1 <0>        -0.3093
     13 C10         1.5999   -6.2606   -0.3586 C.3       1 <0>         0.0588
     14 C11         0.2106   -6.9010   -0.3813 C.3       1 <0>        -0.1156
     15 C12         0.3517   -8.4232   -0.4438 C.3       1 <0>         0.0578
     16 N2         -0.9822   -9.0382   -0.4657 N.3       1 <0>        -0.5360
     17 C13        -1.6880   -8.8108    0.8038 C.3       1 <0>         0.0125
     18 C14        -3.0921   -9.4148    0.7161 C.3       1 <0>         0.0626
     19 O3         -2.9885  -10.8047    0.3955 O.3       1 <0>        -0.3850
     20 C15        -2.3071  -11.0626   -0.8351 C.3       1 <0>         0.0628
     21 C16        -0.8951  -10.4753   -0.7631 C.3       1 <0>         0.0171
     22 N3          6.2221   -4.6015   -0.3018 N.ar      1 <0>        -0.5452
     23 C17         7.3156   -3.8777   -0.2694 C.ar      1 <0>         0.3493
     24 N4          7.3023   -2.5556   -0.2097 N.ar      1 <0>        -0.5859
     25 C18         6.1642   -1.8746   -0.1796 C.ar      1 <0>         0.4714
     26 N5          6.1650   -0.4957   -0.1182 N.pl3     1 <0>        -0.6328
     27 C19         7.3694    0.2084   -0.2227 C.ar      1 <0>         0.1581
     28 C20         7.5013    1.4536    0.3785 C.ar      1 <0>        -0.1169
     29 C21         8.6911    2.1472    0.2750 C.ar      1 <0>        -0.1176
     30 C22         9.7524    1.6027   -0.4280 C.ar      1 <0>         0.0901
     31 C23         9.6235    0.3609   -1.0292 C.ar      1 <0>        -0.0524
     32 C24         8.4363   -0.3392   -0.9225 C.ar      1 <0>        -0.0856
     33 Cl1        10.9555   -0.3188   -1.9109 Cl        1 <0>        -0.0424
     34 F1         10.9152    2.2833   -0.5284 F         1 <0>        -0.1264
     35 H1          0.6411    1.5413    1.3020 H         1 <0>         0.1166
     36 H2         -1.1456    1.6141    0.7527 H         1 <0>         0.1209
     37 H3         -0.9390   -0.5853   -0.2110 H         1 <0>         0.1323
     38 H4          0.5255   -2.5194   -0.5554 H         1 <0>         0.4201
     39 H5          3.6489   -0.8820   -0.1348 H         1 <0>         0.1596
     40 H6          3.8708   -5.8385   -0.3565 H         1 <0>         0.1517
     41 H7          2.1429   -6.5383   -1.2620 H         1 <0>         0.0720
     42 H8          2.1473   -6.6110    0.5165 H         1 <0>         0.0691
     43 H9         -0.3323   -6.6233    0.5221 H         1 <0>         0.0760
     44 H10        -0.3367   -6.5506   -1.2564 H         1 <0>         0.0860
     45 H11         0.8947   -8.7010   -1.3473 H         1 <0>         0.0821
     46 H12         0.8990   -8.7736    0.4312 H         1 <0>         0.0409
     47 H13        -1.1377   -9.2854    1.6162 H         1 <0>         0.0448
     48 H14        -1.7636   -7.7398    0.9914 H         1 <0>         0.0895
     49 H15        -3.5986   -9.2990    1.6743 H         1 <0>         0.0993
     50 H16        -3.6604   -8.9035   -0.0609 H         1 <0>         0.0609
     51 H17        -2.2459  -12.1385   -0.9988 H         1 <0>         0.1001
     52 H18        -2.8525  -10.5991   -1.6572 H         1 <0>         0.0612
     53 H19        -0.3918  -10.6192   -1.7193 H         1 <0>         0.0886
     54 H20        -0.3321  -10.9764    0.0243 H         1 <0>         0.0452
     55 H21         8.2696   -4.3834   -0.2921 H         1 <0>         0.1993
     56 H22         5.3306   -0.0149   -0.0027 H         1 <0>         0.4275
     57 H23         6.6738    1.8794    0.9265 H         1 <0>         0.1431
     58 H24         8.7936    3.1154    0.7424 H         1 <0>         0.1506
     59 H25         8.3373   -1.3092   -1.3869 H         1 <0>         0.1663
@<TRIPOS>BOND
     1    1    2 2
     2    1   35 1
     3    1   36 1
     4    2    3 1
     5    2   37 1
     6    3    4 2
     7    3    5 am
     8    5    6 1
     9    5   38 1
    10    6   11 ar
    11    6    7 ar
    12    7    8 ar
    13    7   39 1
    14    8   25 ar
    15    8    9 ar
    16    9   10 ar
    17    9   22 ar
    18   10   11 ar
    19   10   40 1
    20   11   12 1
    21   12   13 1
    22   13   14 1
    23   13   41 1
    24   13   42 1
    25   14   15 1
    26   14   43 1
    27   14   44 1
    28   15   16 1
    29   15   45 1
    30   15   46 1
    31   16   21 1
    32   16   17 1
    33   17   18 1
    34   17   47 1
    35   17   48 1
    36   18   19 1
    37   18   49 1
    38   18   50 1
    39   19   20 1
    40   20   21 1
    41   20   51 1
    42   20   52 1
    43   21   53 1
    44   21   54 1
    45   22   23 ar
    46   23   24 ar
    47   23   55 1
    48   24   25 ar
    49   25   26 1
    50   26   27 1
    51   26   56 1
    52   27   32 ar
    53   27   28 ar
    54   28   29 ar
    55   28   57 1
    56   29   30 ar
    57   29   58 1
    58   30   31 ar
    59   30   34 1
    60   31   32 ar
    61   31   33 1
    62   32   59 1
@<TRIPOS>MOLECULE
ZINC13538893
   35    38     0     0     0
SMALL
USER_CHARGES
(3Z)-5-(3-pyridyl)-3-(1H-pyrrol-2-ylmethylene)indolin-2-one
@<TRIPOS>ATOM
      1 C1         -1.0256    2.5106   -0.0740 C.2       1 <0>        -0.1985
      2 C2          0.1330    2.1118   -0.7431 C.2       1 <0>        -0.1501
      3 C3          1.1119    1.9179    0.2193 C.2       1 <0>        -0.0041
      4 N1          0.5447    2.1910    1.4456 N.pl3     1 <0>        -0.5339
      5 H1          0.9963    2.1385    2.3024 H         1 <0>         0.4140
      6 C4         -0.7509    2.5452    1.2538 C.2       1 <0>         0.0018
      7 C5          2.4433    1.5157   -0.0136 C.2       1 <0>         0.0527
      8 C6          3.4425    2.4638   -0.1222 C.2       1 <0>        -0.1383
      9 C7          4.8975    2.2273   -0.2568 C.ar      1 <0>        -0.1097
     10 C8          5.6720    1.0754   -0.3138 C.ar      1 <0>        -0.0447
     11 C9          7.0531    1.1812   -0.4463 C.ar      1 <0>        -0.0676
     12 C10         7.6490    2.4413   -0.5217 C.ar      1 <0>        -0.0648
     13 C11         6.8805    3.5829   -0.4652 C.ar      1 <0>        -0.1348
     14 C12         5.4978    3.4925   -0.3323 C.ar      1 <0>         0.1590
     15 N2          4.5131    4.4690   -0.2532 N.am      1 <0>        -0.6566
     16 C13         3.2905    3.9242   -0.1357 C.2       1 <0>         0.5532
     17 O1          2.2398    4.5352   -0.0521 O.2       1 <0>        -0.4763
     18 C14         7.8902   -0.0423   -0.5072 C.ar      1 <0>        -0.0896
     19 C15         9.2778    0.0528   -0.6459 C.ar      1 <0>        -0.0705
     20 C16        10.0147   -1.1180   -0.6918 C.ar      1 <0>        -0.1660
     21 C17         9.3594   -2.3334   -0.6114 C.ar      1 <0>         0.0966
     22 N3          8.0478   -2.3917   -0.4862 N.ar      1 <0>        -0.4796
     23 C18         7.3055   -1.3046   -0.4327 C.ar      1 <0>         0.1059
     24 H2         -1.9744    2.7471   -0.5327 H         1 <0>         0.1373
     25 H3          0.2465    1.9831   -1.8094 H         1 <0>         0.1365
     26 H4         -1.4492    2.8155    2.0321 H         1 <0>         0.1651
     27 H5          2.6820    0.4665   -0.1069 H         1 <0>         0.1472
     28 H6          5.2050    0.1034   -0.2548 H         1 <0>         0.1347
     29 H7          8.7211    2.5217   -0.6249 H         1 <0>         0.1360
     30 H8          7.3528    4.5524   -0.5238 H         1 <0>         0.1341
     31 H9          4.6857    5.4230   -0.2841 H         1 <0>         0.4196
     32 H10         9.7631    1.0154   -0.7110 H         1 <0>         0.1377
     33 H11        11.0893   -1.0829   -0.7934 H         1 <0>         0.1388
     34 H12         9.9308   -3.2490   -0.6513 H         1 <0>         0.1578
     35 H13         6.2340   -1.3927   -0.3299 H         1 <0>         0.1570
@<TRIPOS>BOND
     1    1    6 2
     2    1    2 1
     3    1   24 1
     4    2    3 2
     5    2   25 1
     6    3    4 1
     7    3    7 1
     8    4    5 1
     9    4    6 1
    10    6   26 1
    11    7    8 2
    12    7   27 1
    13    8   16 1
    14    8    9 1
    15    9   14 ar
    16    9   10 ar
    17   10   11 ar
    18   10   28 1
    19   11   12 ar
    20   11   18 1
    21   12   13 ar
    22   12   29 1
    23   13   14 ar
    24   13   30 1
    25   14   15 1
    26   15   16 am
    27   15   31 1
    28   16   17 2
    29   18   23 ar
    30   18   19 ar
    31   19   20 ar
    32   19   32 1
    33   20   21 ar
    34   20   33 1
    35   21   22 ar
    36   21   34 1
    37   22   23 ar
    38   23   35 1
@<TRIPOS>MOLECULE
ZINC53214756
   71    77     0     0     0
SMALL
USER_CHARGES

@<TRIPOS>ATOM
      1 C1          0.5182    1.2656    0.0086 C.3       1 <0>        -0.1155
      2 C2          0.2506   -0.2166    0.0604 C.ar      1 <0>        -0.0497
      3 C3          0.2481   -0.9597   -1.1037 C.ar      1 <0>        -0.1186
      4 C4          0.0026   -2.3198   -1.0570 C.ar      1 <0>        -0.0884
      5 C5         -0.2415   -2.9401    0.1545 C.ar      1 <0>        -0.1186
      6 C6         -0.2408   -2.2025    1.3222 C.ar      1 <0>        -0.0496
      7 C7          0.0119   -0.8376    1.2794 C.ar      1 <0>         0.1132
      8 N1          0.0195   -0.0880    2.4621 N.am      1 <0>        -0.4628
      9 C8          1.1754    0.0671    3.1395 C.2       1 <0>         0.5876
     10 O1          2.2055   -0.4366    2.7329 O.2       1 <0>        -0.4766
     11 C9          1.1651    0.8564    4.3771 C.ar      1 <0>        -0.3314
     12 C10         2.3164    1.0650    5.1361 C.ar      1 <0>         0.2960
     13 N2          2.2205    1.7893    6.2384 N.ar      1 <0>        -0.5681
     14 C11         1.0592    2.3086    6.6198 C.ar      1 <0>         0.6153
     15 N3         -0.0593    2.1343    5.9278 N.ar      1 <0>        -0.5809
     16 C12        -0.0503    1.4225    4.8116 C.ar      1 <0>         0.4906
     17 N4         -1.1953    1.2203    4.0642 N.pl3     1 <0>        -0.4382
     18 C13        -1.1579    0.4842    2.9105 C.2       1 <0>         0.5183
     19 N5         -2.3621    0.4426    2.3823 N.2       1 <0>        -0.4645
     20 C14        -3.2306    1.1446    3.1528 C.ar      1 <0>         0.0828
     21 C15        -2.5030    1.6464    4.2441 C.ar      1 <0>         0.0493
     22 C16        -3.1402    2.4112    5.2088 C.ar      1 <0>        -0.0820
     23 C17        -4.4924    2.6647    5.1012 C.ar      1 <0>        -0.1037
     24 C18        -5.2191    2.1593    4.0338 C.ar      1 <0>        -0.1042
     25 C19        -4.5978    1.4166    3.0545 C.ar      1 <0>        -0.0679
     26 N6          1.0141    3.0568    7.7788 N.pl3     1 <0>        -0.6227
     27 C20         2.1976    3.3550    8.4664 C.ar      1 <0>         0.1197
     28 C21         3.3516    3.6665    7.7596 C.ar      1 <0>        -0.0547
     29 C22         4.5180    3.9609    8.4372 C.ar      1 <0>        -0.1652
     30 C23         4.5370    3.9455    9.8258 C.ar      1 <0>         0.1889
     31 C24         3.3829    3.6340   10.5327 C.ar      1 <0>        -0.1650
     32 C25         2.2152    3.3448    9.8549 C.ar      1 <0>        -0.0878
     33 N7          5.7192    4.2434   10.5127 N.pl3     1 <0>        -0.6448
     34 C26         5.7951    4.1201   11.9766 C.3       1 <0>         0.0998
     35 C27         7.0337    3.2905   12.3307 C.3       1 <0>        -0.0233
     36 N8          8.2199    3.8949   11.7112 N.4       1 <0>        -0.3839
     37 C28         8.1071    3.8319   10.2485 C.3       1 <0>        -0.0234
     38 C29         6.9233    4.6829    9.7908 C.3       1 <0>         0.0984
     39 C30         9.4200    3.1642   12.1398 C.3       1 <0>        -0.0472
     40 C31        -0.5079   -2.8791    2.6420 C.3       1 <0>        -0.1156
     41 H1          1.5892    1.4449    0.1025 H         1 <0>         0.0752
     42 H2          0.1648    1.6656   -0.9418 H         1 <0>         0.0779
     43 H3         -0.0059    1.7582    0.8276 H         1 <0>         0.0553
     44 H4          0.4377   -0.4780   -2.0516 H         1 <0>         0.1329
     45 H5          0.0011   -2.8987   -1.9688 H         1 <0>         0.1325
     46 H6         -0.4333   -4.0024    0.1877 H         1 <0>         0.1329
     47 H7          3.2634    0.6449    4.8311 H         1 <0>         0.1986
     48 H8         -2.5798    2.8074    6.0427 H         1 <0>         0.1350
     49 H9         -4.9880    3.2604    5.8535 H         1 <0>         0.1380
     50 H10        -6.2769    2.3646    3.9605 H         1 <0>         0.1394
     51 H11        -5.1692    1.0284    2.2243 H         1 <0>         0.1404
     52 H12         0.1630    3.3761    8.1171 H         1 <0>         0.4293
     53 H13         3.3369    3.6781    6.6797 H         1 <0>         0.1348
     54 H14         5.4156    4.2027    7.8875 H         1 <0>         0.1280
     55 H15         3.3977    3.6218   11.6125 H         1 <0>         0.1290
     56 H16         1.3165    3.1070   10.4046 H         1 <0>         0.1330
     57 H17         5.8776    5.1107   12.4239 H         1 <0>         0.0880
     58 H18         4.9008    3.6203   12.3489 H         1 <0>         0.1262
     59 H19         7.1599    3.2695   13.4132 H         1 <0>         0.1409
     60 H20         6.9082    2.2734   11.9595 H         1 <0>         0.1326
     61 H21         9.0242    4.2099    9.7966 H         1 <0>         0.1415
     62 H22         7.9491    2.7984    9.9403 H         1 <0>         0.1328
     63 H23         6.7746    4.5550    8.7185 H         1 <0>         0.1273
     64 H24         7.1217    5.7313   10.0135 H         1 <0>         0.0878
     65 H25         9.3399    2.1216   11.8321 H         1 <0>         0.1218
     66 H26        10.3013    3.6119   11.6806 H         1 <0>         0.1253
     67 H27         9.5093    3.2170   13.2249 H         1 <0>         0.1251
     68 H28         0.4336   -3.2206    3.0723 H         1 <0>         0.0751
     69 H29        -0.9835   -2.1730    3.3226 H         1 <0>         0.0555
     70 H30        -1.1669   -3.7331    2.4857 H         1 <0>         0.0778
     71 H31         8.2947    4.8587   12.0003 H         1 <0>         0.4247
@<TRIPOS>BOND
     1    1    2 1
     2    1   41 1
     3    1   42 1
     4    1   43 1
     5    2    7 ar
     6    2    3 ar
     7    3    4 ar
     8    3   44 1
     9    4    5 ar
    10    4   45 1
    11    5    6 ar
    12    5   46 1
    13    6    7 ar
    14    6   40 1
    15    7    8 1
    16    8   18 1
    17    8    9 am
    18    9   10 2
    19    9   11 1
    20   11   16 ar
    21   11   12 ar
    22   12   13 ar
    23   12   47 1
    24   13   14 ar
    25   14   15 ar
    26   14   26 1
    27   15   16 ar
    28   16   17 1
    29   17   21 1
    30   17   18 1
    31   18   19 2
    32   19   20 1
    33   20   25 ar
    34   20   21 ar
    35   21   22 ar
    36   22   23 ar
    37   22   48 1
    38   23   24 ar
    39   23   49 1
    40   24   25 ar
    41   24   50 1
    42   25   51 1
    43   26   27 1
    44   26   52 1
    45   27   32 ar
    46   27   28 ar
    47   28   29 ar
    48   28   53 1
    49   29   30 ar
    50   29   54 1
    51   30   31 ar
    52   30   33 1
    53   31   32 ar
    54   31   55 1
    55   32   56 1
    56   33   38 1
    57   33   34 1
    58   34   35 1
    59   34   57 1
    60   34   58 1
    61   35   36 1
    62   35   59 1
    63   35   60 1
    64   36   37 1
    65   36   39 1
    66   36   71 1
    67   37   38 1
    68   37   61 1
    69   37   62 1
    70   38   63 1
    71   38   64 1
    72   39   65 1
    73   39   66 1
    74   39   67 1
    75   40   68 1
    76   40   69 1
    77   40   70 1
@<TRIPOS>MOLECULE
ZINC53214756
   72    78     0     0     0
SMALL
USER_CHARGES

@<TRIPOS>ATOM
      1 C1          0.4332    1.8459   -0.0966 C.3       1 <0>        -0.1154
      2 C2          0.2320    0.3535   -0.1552 C.ar      1 <0>        -0.0494
      3 C3          0.2374   -0.2975   -1.3733 C.ar      1 <0>        -0.1170
      4 C4          0.0529   -1.6668   -1.4279 C.ar      1 <0>        -0.0843
      5 C5         -0.1376   -2.3888   -0.2640 C.ar      1 <0>        -0.1169
      6 C6         -0.1441   -1.7437    0.9572 C.ar      1 <0>        -0.0493
      7 C7          0.0466   -0.3694    1.0159 C.ar      1 <0>         0.1062
      8 N1          0.0458    0.2869    2.2529 N.am      1 <0>        -0.4581
      9 C8          1.2077    0.4423    2.9199 C.2       1 <0>         0.5837
     10 O1          2.2504    0.0192    2.4575 O.2       1 <0>        -0.4684
     11 C9          1.1882    1.1328    4.2153 C.ar      1 <0>        -0.3093
     12 C10         2.3447    1.3349    4.9680 C.ar      1 <0>         0.2949
     13 N2          2.2398    1.9671    6.1250 N.ar      1 <0>        -0.5762
     14 C11         1.0649    2.4016    6.5657 C.ar      1 <0>         0.6033
     15 N3         -0.0588    2.2303    5.8818 N.ar      1 <0>        -0.5679
     16 C12        -0.0417    1.6073    4.7137 C.ar      1 <0>         0.4949
     17 N4         -1.1920    1.4109    3.9729 N.pl3     1 <0>        -0.4383
     18 C13        -1.1461    0.7687    2.7648 C.2       1 <0>         0.5148
     19 N5         -2.3580    0.7132    2.2558 N.2       1 <0>        -0.4542
     20 C14        -3.2403    1.3137    3.0934 C.ar      1 <0>         0.0841
     21 C15        -2.5132    1.7616    4.2083 C.ar      1 <0>         0.0453
     22 C16        -3.1633    2.4198    5.2406 C.ar      1 <0>        -0.0844
     23 C17        -4.5274    2.6186    5.1767 C.ar      1 <0>        -0.0994
     24 C18        -5.2533    2.1637    4.0862 C.ar      1 <0>        -0.1007
     25 C19        -4.6199    1.5297    3.0403 C.ar      1 <0>        -0.0629
     26 N6          1.0109    3.0553    7.7807 N.pl3     1 <0>        -0.6267
     27 C20         2.1918    3.3530    8.4676 C.ar      1 <0>         0.2440
     28 C21         3.3467    3.6671    7.7627 C.ar      1 <0>        -0.0966
     29 C22         4.5113    3.9611    8.4442 C.ar      1 <0>        -0.0517
     30 C23         4.5287    3.9425    9.8268 C.ar      1 <0>        -0.1063
     31 C24         3.3807    3.6297   10.5316 C.ar      1 <0>        -0.0594
     32 C25         2.2112    3.3408    9.8564 C.ar      1 <0>        -0.1283
     33 N7          5.7094    4.2401   10.5136 N.4       1 <0>        -0.3154
     34 C26         6.1000    3.0885   11.3378 C.3       1 <0>        -0.0320
     35 C27         7.3923    3.4142   12.0894 C.3       1 <0>        -0.0299
     36 N8          7.1755    4.5831   12.9524 N.4       1 <0>        -0.3958
     37 C28         6.7848    5.7346   12.1282 C.3       1 <0>        -0.0299
     38 C29         5.4926    5.4089   11.3766 C.3       1 <0>        -0.0317
     39 C30         8.4162    4.8958   13.6741 C.3       1 <0>        -0.0515
     40 C31        -0.3524   -2.5311    2.2252 C.3       1 <0>        -0.1155
     41 H1          1.4971    2.0659   -0.0081 H         1 <0>         0.0749
     42 H2          0.0425    2.3012   -1.0067 H         1 <0>         0.0799
     43 H3         -0.0945    2.2500    0.7673 H         1 <0>         0.0533
     44 H4          0.3856    0.2636   -2.2841 H         1 <0>         0.1349
     45 H5          0.0572   -2.1735   -2.3817 H         1 <0>         0.1350
     46 H6         -0.2818   -3.4581   -0.3099 H         1 <0>         0.1349
     47 H7          3.3029    0.9834    4.6148 H         1 <0>         0.2058
     48 H8         -2.6037    2.7758    6.0929 H         1 <0>         0.1328
     49 H9         -5.0331    3.1315    5.9815 H         1 <0>         0.1400
     50 H10        -6.3205    2.3246    4.0480 H         1 <0>         0.1431
     51 H11        -5.1908    1.1813    2.1923 H         1 <0>         0.1441
     52 H12         0.1537    3.3081    8.1578 H         1 <0>         0.4399
     53 H13         3.3340    3.6811    6.6828 H         1 <0>         0.1649
     54 H14         5.4096    4.2054    7.8967 H         1 <0>         0.1526
     55 H15         3.3978    3.6153   11.6114 H         1 <0>         0.1443
     56 H16         1.3138    3.1009   10.4075 H         1 <0>         0.1574
     57 H17         5.3084    2.8693   12.0543 H         1 <0>         0.1525
     58 H18         6.2609    2.2213   10.6974 H         1 <0>         0.1780
     59 H19         7.6821    2.5598   12.7010 H         1 <0>         0.1778
     60 H20         8.1839    3.6335   11.3729 H         1 <0>         0.1555
     61 H21         6.6240    6.6019   12.7686 H         1 <0>         0.1777
     62 H22         7.5765    5.9538   11.4118 H         1 <0>         0.1554
     63 H23         5.2028    6.2633   10.7651 H         1 <0>         0.1776
     64 H24         4.7010    5.1897   12.0931 H         1 <0>         0.1526
     65 H25         9.2078    5.1150   12.9576 H         1 <0>         0.1316
     66 H26         8.2553    5.7631   14.3145 H         1 <0>         0.1380
     67 H27         8.7060    4.0414   14.2856 H         1 <0>         0.1380
     68 H28         0.6124   -2.8612    2.6104 H         1 <0>         0.0749
     69 H29        -0.8438   -1.9018    2.9671 H         1 <0>         0.0535
     70 H30        -0.9763   -3.3998    2.0150 H         1 <0>         0.0799
     71 H31         6.4426    4.3801   13.6157 H         1 <0>         0.4359
     72 H32         6.4422    4.4430    9.8504 H         1 <0>         0.4352
@<TRIPOS>BOND
     1    1    2 1
     2    1   41 1
     3    1   42 1
     4    1   43 1
     5    2    7 ar
     6    2    3 ar
     7    3    4 ar
     8    3   44 1
     9    4    5 ar
    10    4   45 1
    11    5    6 ar
    12    5   46 1
    13    6    7 ar
    14    6   40 1
    15    7    8 1
    16    8   18 1
    17    8    9 am
    18    9   10 2
    19    9   11 1
    20   11   16 ar
    21   11   12 ar
    22   12   13 ar
    23   12   47 1
    24   13   14 ar
    25   14   15 ar
    26   14   26 1
    27   15   16 ar
    28   16   17 1
    29   17   21 1
    30   17   18 1
    31   18   19 2
    32   19   20 1
    33   20   25 ar
    34   20   21 ar
    35   21   22 ar
    36   22   23 ar
    37   22   48 1
    38   23   24 ar
    39   23   49 1
    40   24   25 ar
    41   24   50 1
    42   25   51 1
    43   26   27 1
    44   26   52 1
    45   27   32 ar
    46   27   28 ar
    47   28   29 ar
    48   28   53 1
    49   29   30 ar
    50   29   54 1
    51   30   31 ar
    52   30   33 1
    53   31   32 ar
    54   31   55 1
    55   32   56 1
    56   33   38 1
    57   33   34 1
    58   33   72 1
    59   34   35 1
    60   34   57 1
    61   34   58 1
    62   35   36 1
    63   35   59 1
    64   35   60 1
    65   36   37 1
    66   36   39 1
    67   36   71 1
    68   37   38 1
    69   37   61 1
    70   37   62 1
    71   38   63 1
    72   38   64 1
    73   39   65 1
    74   39   66 1
    75   39   67 1
    76   40   68 1
    77   40   69 1
    78   40   70 1
@<TRIPOS>MOLECULE
ZINC13974878
   43    45     0     0     0
SMALL
USER_CHARGES
3-[(3R,4S)-4-methyl-3-(methyl-(7H-pyrrolo[3,2-e]pyrimidin-4-yl)amino)-1-piperidyl]-3-oxo-propanenitrile
@<TRIPOS>ATOM
      1 C1          4.7421    4.2827    1.5638 C.3       1 <0>        -0.1409
      2 C2          4.8159    3.5541    0.2204 C.3       1 <0>        -0.0882
      3 H1          4.9617    4.2807   -0.5790 H         1 <0>         0.0753
      4 C3          5.9892    2.5718    0.2369 C.3       1 <0>        -0.1305
      5 C4          6.0811    1.8694   -1.1215 C.3       1 <0>         0.0989
      6 N1          4.7822    1.2530   -1.4239 N.am      1 <0>        -0.6038
      7 C5          3.5754    2.0898   -1.3785 C.3       1 <0>         0.0840
      8 C6          3.5116    2.7896   -0.0173 C.3       1 <0>         0.0846
      9 H2          3.3769    2.0460    0.7682 H         1 <0>         0.1046
     10 N2          2.3826    3.7293   -0.0016 N.pl3     1 <0>        -0.4578
     11 C7          2.4569    4.6606   -1.1352 C.3       1 <0>         0.0142
     12 C8          1.1755    3.0539    0.0068 C.ar      1 <0>         0.4053
     13 C9         -0.0406    3.7541    0.0217 C.ar      1 <0>        -0.2205
     14 C10        -0.4235    5.1647    0.0324 C.2       1 <0>        -0.1671
     15 C11        -1.7660    5.2026    0.0451 C.2       1 <0>         0.0504
     16 N3         -2.2667    3.9264    0.0434 N.pl3     1 <0>        -0.5712
     17 H3         -3.2096    3.6988    0.0508 H         1 <0>         0.4236
     18 C12        -1.2415    3.0211    0.0292 C.ar      1 <0>         0.3296
     19 N4         -1.1753    1.6905    0.0169 N.ar      1 <0>        -0.5492
     20 C13        -0.0126    1.0758    0.0080 C.ar      1 <0>         0.3457
     21 N5          1.1381    1.7248    0.0005 N.ar      1 <0>        -0.5699
     22 C14         4.6993   -0.0552   -1.7375 C.2       1 <0>         0.5212
     23 O1          3.6212   -0.5522   -1.9855 O.2       1 <0>        -0.5188
     24 C15         5.9463   -0.9003   -1.7799 C.3       1 <0>        -0.0430
     25 C16         5.5908   -2.2816   -2.1439 C.1       1 <0>         0.2132
     26 N6          5.3164   -3.3475   -2.4249 N.1       1 <0>        -0.4075
     27 H4          4.5956    3.5565    2.3633 H         1 <0>         0.0531
     28 H5          5.6710    4.8272    1.7332 H         1 <0>         0.0533
     29 H6          3.9072    4.9833    1.5518 H         1 <0>         0.0666
     30 H7          5.8318    1.8301    1.0200 H         1 <0>         0.0734
     31 H8          6.9150    3.1140    0.4294 H         1 <0>         0.0852
     32 H9          6.8512    1.0990   -1.0831 H         1 <0>         0.0911
     33 H10         6.3296    2.5962   -1.8949 H         1 <0>         0.0762
     34 H11         2.6921    1.4647   -1.5097 H         1 <0>         0.1158
     35 H12         3.6183    2.8363   -2.1715 H         1 <0>         0.0651
     36 H13         1.6494    5.3889   -1.0607 H         1 <0>         0.0879
     37 H14         3.4159    5.1783   -1.1178 H         1 <0>         0.0887
     38 H15         2.3606    4.1055   -2.0683 H         1 <0>         0.0453
     39 H16         0.2446    6.0132    0.0309 H         1 <0>         0.1557
     40 H17        -2.3617    6.1034    0.0549 H         1 <0>         0.1829
     41 H18         0.0021   -0.0041    0.0020 H         1 <0>         0.1995
     42 H19         6.6349   -0.4950   -2.5212 H         1 <0>         0.1387
     43 H20         6.4229   -0.8942   -0.7996 H         1 <0>         0.1394
@<TRIPOS>BOND
     1    1    2 1
     2    1   27 1
     3    1   28 1
     4    1   29 1
     5    2    3 1
     6    2    8 1
     7    2    4 1
     8    4    5 1
     9    4   30 1
    10    4   31 1
    11    5    6 1
    12    5   32 1
    13    5   33 1
    14    6    7 1
    15    6   22 am
    16    7    8 1
    17    7   34 1
    18    7   35 1
    19    8    9 1
    20    8   10 1
    21   10   11 1
    22   10   12 1
    23   11   36 1
    24   11   37 1
    25   11   38 1
    26   12   21 ar
    27   12   13 ar
    28   13   18 ar
    29   13   14 1
    30   14   15 2
    31   14   39 1
    32   15   16 1
    33   15   40 1
    34   16   17 1
    35   16   18 1
    36   18   19 ar
    37   19   20 ar
    38   20   21 ar
    39   20   41 1
    40   22   23 2
    41   22   24 1
    42   24   25 1
    43   24   42 1
    44   24   43 1
    45   25   26 3
@<TRIPOS>MOLECULE
ZINC13974880
   43    45     0     0     0
SMALL
USER_CHARGES
3-[(3S,4S)-4-methyl-3-(methyl-(7H-pyrrolo[3,2-e]pyrimidin-4-yl)amino)-1-piperidyl]-3-oxo-propanenitrile
@<TRIPOS>ATOM
      1 C1         -0.0644    4.7040   -0.2404 C.3       1 <0>        -0.1480
      2 C2         -0.0417    3.9557    1.0940 C.3       1 <0>        -0.0935
      3 H1         -0.0439    4.6745    1.9134 H         1 <0>         0.0784
      4 C3         -1.2788    3.0607    1.1975 C.3       1 <0>        -0.1292
      5 C4         -1.2905    2.0749    0.0193 C.3       1 <0>         0.0964
      6 N1         -0.0162    1.3436    0.0094 N.am      1 <0>        -0.6050
      7 C5          1.2377    2.1093    0.0016 C.3       1 <0>         0.1061
      8 C6          1.2210    3.0948    1.1743 C.3       1 <0>         0.0867
      9 H2          1.2261    2.5423    2.1139 H         1 <0>         0.0672
     10 N2          2.4079    3.9577    1.1065 N.pl3     1 <0>        -0.4637
     11 C7          2.3779    4.9781    2.1629 C.3       1 <0>         0.0216
     12 C8          3.5693    3.2094    1.1730 C.ar      1 <0>         0.4045
     13 C9          4.8278    3.8281    1.1200 C.ar      1 <0>        -0.2202
     14 C10         5.3001    5.2071    1.0124 C.2       1 <0>        -0.1673
     15 C11         6.6423    5.1597    1.0208 C.2       1 <0>         0.0505
     16 N3          7.0604    3.8587    1.1303 N.pl3     1 <0>        -0.5712
     17 H3          7.9868    3.5725    1.1568 H         1 <0>         0.4236
     18 C12         5.9793    3.0233    1.1961 C.ar      1 <0>         0.3297
     19 N4          5.8281    1.7042    1.3056 N.ar      1 <0>        -0.5489
     20 C13         4.6283    1.1667    1.3466 C.ar      1 <0>         0.3458
     21 N5          3.5215    1.8851    1.2833 N.ar      1 <0>        -0.5682
     22 C14         0.0021   -0.0041    0.0020 C.2       1 <0>         0.5213
     23 O1          1.0605   -0.5961   -0.0113 O.2       1 <0>        -0.5182
     24 C15        -1.2926   -0.7753    0.0102 C.3       1 <0>        -0.0437
     25 C16        -1.0041   -2.2187   -0.0003 C.1       1 <0>         0.2139
     26 N6         -0.7814   -3.3326   -0.0084 N.1       1 <0>        -0.4086
     27 H4         -0.0618    3.9854   -1.0600 H         1 <0>         0.0585
     28 H5         -0.9637    5.3172   -0.2978 H         1 <0>         0.0546
     29 H6          0.8160    5.3423   -0.3140 H         1 <0>         0.0658
     30 H7         -1.2508    2.5086    2.1368 H         1 <0>         0.0709
     31 H8         -2.1774    3.6768    1.1637 H         1 <0>         0.0842
     32 H9         -1.4055    2.6213   -0.9168 H         1 <0>         0.0798
     33 H10        -2.1146    1.3714    0.1379 H         1 <0>         0.0892
     34 H11         2.0823    1.4285    0.1084 H         1 <0>         0.1333
     35 H12         1.3247    2.6584   -0.9360 H         1 <0>         0.0688
     36 H13         2.3550    4.4912    3.1378 H         1 <0>         0.0416
     37 H14         3.2680    5.6030    2.0897 H         1 <0>         0.0879
     38 H15         1.4886    5.5971    2.0450 H         1 <0>         0.0896
     39 H16         4.6876    6.0935    0.9373 H         1 <0>         0.1558
     40 H17         7.2944    6.0178    0.9511 H         1 <0>         0.1829
     41 H18         4.5446    0.0936    1.4354 H         1 <0>         0.2003
     42 H19        -1.8592   -0.5245    0.9070 H         1 <0>         0.1382
     43 H20        -1.8762   -0.5150   -0.8728 H         1 <0>         0.1383
@<TRIPOS>BOND
     1    1    2 1
     2    1   27 1
     3    1   28 1
     4    1   29 1
     5    2    3 1
     6    2    8 1
     7    2    4 1
     8    4    5 1
     9    4   30 1
    10    4   31 1
    11    5    6 1
    12    5   32 1
    13    5   33 1
    14    6    7 1
    15    6   22 am
    16    7    8 1
    17    7   34 1
    18    7   35 1
    19    8    9 1
    20    8   10 1
    21   10   11 1
    22   10   12 1
    23   11   36 1
    24   11   37 1
    25   11   38 1
    26   12   21 ar
    27   12   13 ar
    28   13   18 ar
    29   13   14 1
    30   14   15 2
    31   14   39 1
    32   15   16 1
    33   15   40 1
    34   16   17 1
    35   16   18 1
    36   18   19 ar
    37   19   20 ar
    38   20   21 ar
    39   20   41 1
    40   22   23 2
    41   22   24 1
    42   24   25 1
    43   24   42 1
    44   24   43 1
    45   25   26 3
@<TRIPOS>MOLECULE
ZINC13974879
   43    45     0     0     0
SMALL
USER_CHARGES
3-[(3S,4R)-4-methyl-3-(methyl-(7H-pyrrolo[3,2-e]pyrimidin-4-yl)amino)-1-piperidyl]-3-oxo-propanenitrile
@<TRIPOS>ATOM
      1 C1         -4.4618    4.5058    2.6224 C.3       1 <0>        -0.1422
      2 C2         -3.7622    3.7091    1.5194 C.3       1 <0>        -0.0975
      3 H1         -4.2446    3.9119    0.5632 H         1 <0>         0.0990
      4 C3         -3.8576    2.2139    1.8316 C.3       1 <0>        -0.1277
      5 C4         -3.1865    1.4179    0.7080 C.3       1 <0>         0.1036
      6 N1         -1.8136    1.9115    0.5335 N.am      1 <0>        -0.5995
      7 C5         -1.6015    3.3501    0.3234 C.3       1 <0>         0.0706
      8 C6         -2.2908    4.1238    1.4459 C.3       1 <0>         0.0856
      9 H2         -1.8016    3.8984    2.3935 H         1 <0>         0.0911
     10 N2         -2.2005    5.5653    1.1782 N.pl3     1 <0>        -0.4667
     11 C7         -0.8023    5.9825    1.0078 C.3       1 <0>         0.0247
     12 C8         -2.9594    5.9132    0.0753 C.ar      1 <0>         0.4087
     13 C9         -3.3427    7.2455   -0.1430 C.ar      1 <0>        -0.2048
     14 C10        -3.1354    8.5111    0.5583 C.2       1 <0>        -0.1611
     15 C11        -3.7615    9.4590   -0.1580 C.2       1 <0>         0.0507
     16 N3         -4.3508    8.8952   -1.2600 N.pl3     1 <0>        -0.5713
     17 H3         -4.8609    9.3803   -1.9274 H         1 <0>         0.4240
     18 C12        -4.1142    7.5482   -1.2799 C.ar      1 <0>         0.3270
     19 N4         -4.4500    6.5567   -2.1040 N.ar      1 <0>        -0.5421
     20 C13        -4.0684    5.3219   -1.8599 C.ar      1 <0>         0.3307
     21 N5         -3.3396    4.9946   -0.8077 N.ar      1 <0>        -0.5680
     22 C14        -0.7683    1.0616    0.5710 C.2       1 <0>         0.5196
     23 O1          0.3598    1.4807    0.4206 O.2       1 <0>        -0.5306
     24 C15        -1.0018   -0.4105    0.7935 C.3       1 <0>        -0.0434
     25 C16         0.2887   -1.1186    0.7857 C.1       1 <0>         0.2136
     26 N6          1.2846   -1.6651    0.7796 N.1       1 <0>        -0.4089
     27 H4         -4.0262    4.2492    3.5881 H         1 <0>         0.0528
     28 H5         -4.3331    5.5723    2.4377 H         1 <0>         0.0617
     29 H6         -5.5245    4.2636    2.6274 H         1 <0>         0.0495
     30 H7         -4.9056    1.9242    1.9070 H         1 <0>         0.0816
     31 H8         -3.3539    2.0061    2.7757 H         1 <0>         0.0685
     32 H9         -3.7439    1.5530   -0.2189 H         1 <0>         0.0793
     33 H10        -3.1638    0.3607    0.9723 H         1 <0>         0.0877
     34 H11        -0.5335    3.5674    0.3342 H         1 <0>         0.0850
     35 H12        -2.0271    3.6461   -0.6354 H         1 <0>         0.1177
     36 H13        -0.3967    5.5326    0.1016 H         1 <0>         0.0449
     37 H14        -0.7544    7.0685    0.9271 H         1 <0>         0.0820
     38 H15        -0.2183    5.6560    1.8683 H         1 <0>         0.0870
     39 H16        -2.5850    8.6559    1.4761 H         1 <0>         0.1563
     40 H17        -3.7957   10.5082    0.0960 H         1 <0>         0.1836
     41 H18        -4.3597    4.5440   -2.5501 H         1 <0>         0.1988
     42 H19        -1.4920   -0.5593    1.7557 H         1 <0>         0.1391
     43 H20        -1.6360   -0.8022   -0.0018 H         1 <0>         0.1394
@<TRIPOS>BOND
     1    1    2 1
     2    1   27 1
     3    1   28 1
     4    1   29 1
     5    2    3 1
     6    2    8 1
     7    2    4 1
     8    4    5 1
     9    4   30 1
    10    4   31 1
    11    5    6 1
    12    5   32 1
    13    5   33 1
    14    6    7 1
    15    6   22 am
    16    7    8 1
    17    7   34 1
    18    7   35 1
    19    8    9 1
    20    8   10 1
    21   10   11 1
    22   10   12 1
    23   11   36 1
    24   11   37 1
    25   11   38 1
    26   12   21 ar
    27   12   13 ar
    28   13   18 ar
    29   13   14 1
    30   14   15 2
    31   14   39 1
    32   15   16 1
    33   15   40 1
    34   16   17 1
    35   16   18 1
    36   18   19 ar
    37   19   20 ar
    38   20   21 ar
    39   20   41 1
    40   22   23 2
    41   22   24 1
    42   24   25 1
    43   24   42 1
    44   24   43 1
    45   25   26 3
@<TRIPOS>MOLECULE
ZINC11617039
   55    58     0     0     0
SMALL
USER_CHARGES

@<TRIPOS>ATOM
      1 H1          0.2120    6.2074    3.3921 H         1 <0>         0.1353
      2 C1         -0.6814    5.6062    3.3098 C.ar      1 <0>         0.0196
      3 C2         -1.0741    5.1311    2.1031 C.ar      1 <0>        -0.1998
      4 C3         -2.2288    4.3474    1.9606 C.ar      1 <0>         0.2426
      5 C4         -3.0111    4.0257    3.0293 C.ar      1 <0>        -0.1858
      6 C5         -2.6578    4.4884    4.3143 C.ar      1 <0>         0.1374
      7 C6         -1.4433    5.3059    4.4600 C.ar      1 <0>        -0.2352
      8 C7         -1.3367    5.6110    5.8041 C.2       1 <0>         0.1330
      9 N1         -2.3705    5.0424    6.4391 N.pl3     1 <0>        -0.3190
     10 N2         -3.1795    4.3626    5.5213 N.2       1 <0>        -0.3200
     11 C8         -2.6225    5.1281    7.8797 C.3       1 <0>         0.0831
     12 H2         -3.2434    5.9992    8.0888 H         1 <0>         0.0888
     13 H3         -3.1369    4.2268    8.2129 H         1 <0>         0.0992
     14 H4         -1.6744    5.2222    8.4094 H         1 <0>         0.0983
     15 C9         -0.2495    6.4365    6.4425 C.3       1 <0>        -0.1025
     16 H5         -0.5455    7.4855    6.4477 H         1 <0>         0.0927
     17 H6         -0.0907    6.0987    7.4666 H         1 <0>         0.0807
     18 H7          0.6740    6.3223    5.8749 H         1 <0>         0.0943
     19 H8         -3.8955    3.4210    2.8932 H         1 <0>         0.1075
     20 N3         -2.5862    3.8853    0.6908 N.pl3     1 <0>        -0.5925
     21 C10        -3.6562    3.0160    0.5454 C.ar      1 <0>         0.5430
     22 C11        -3.4766    1.6392    0.6984 C.ar      1 <0>        -0.2193
     23 C12        -4.5711    0.8111    0.5450 C.ar      1 <0>         0.2156
     24 N4         -5.7510    1.3422    0.2594 N.ar      1 <0>        -0.5411
     25 C13        -5.8925    2.6520    0.1199 C.ar      1 <0>         0.6254
     26 N5         -4.8692    3.4808    0.2639 N.ar      1 <0>        -0.5160
     27 N6         -7.1427    3.1682   -0.1788 N.pl3     1 <0>        -0.6061
     28 C14        -7.2911    4.5338   -0.4396 C.ar      1 <0>         0.0902
     29 C15        -6.2697    5.2382   -1.0645 C.ar      1 <0>        -0.0370
     30 C16        -6.4197    6.5867   -1.3210 C.ar      1 <0>        -0.1186
     31 C17        -7.5850    7.2362   -0.9562 C.ar      1 <0>         0.0334
     32 C18        -8.6034    6.5381   -0.3338 C.ar      1 <0>        -0.6606
     33 C19        -8.4623    5.1877   -0.0798 C.ar      1 <0>        -0.0140
     34 S1        -10.0857    7.3705    0.1294 S.o2      1 <0>         2.7024
     35 O1        -10.5091    8.1093   -1.0082 O.2       1 <0>        -0.9461
     36 O2        -10.9137    6.4040    0.7615 O.2       1 <0>        -0.9598
     37 N7         -9.6818    8.4799    1.2907 N.pl3     1 <0>        -1.2481
     38 C20        -7.7450    8.7080   -1.2374 C.3       1 <0>        -0.1567
     39 H9         -8.1929    8.8433   -2.2218 H         1 <0>         0.1090
     40 H10        -8.3897    9.1545   -0.4804 H         1 <0>         0.0769
     41 H11        -6.7680    9.1908   -1.2132 H         1 <0>         0.0924
     42 H12        -4.4665   -0.2581    0.6563 H         1 <0>         0.2280
     43 H13        -2.5039    1.2316    0.9310 H         1 <0>         0.1988
     44 C21        -1.8301    4.3196   -0.4864 C.3       1 <0>         0.0917
     45 H14        -1.0078    3.6271   -0.6659 H         1 <0>         0.0746
     46 H15        -2.4881    4.3354   -1.3553 H         1 <0>         0.0729
     47 H16        -1.4320    5.3196   -0.3140 H         1 <0>         0.0953
     48 H17        -0.4834    5.3620    1.2289 H         1 <0>         0.1346
     49 H18        -7.9152    2.5823   -0.2071 H         1 <0>         0.4391
     50 H19        -5.3592    4.7318   -1.3490 H         1 <0>         0.1427
     51 H20        -5.6260    7.1349   -1.8068 H         1 <0>         0.1482
     52 H21        -9.2599    4.6421    0.4024 H         1 <0>         0.1564
     53 H22        -8.7604    8.5635    1.5820 H         1 <0>         0.4174
     54 H23       -10.3667    9.0460    1.6797 H         1 <0>         0.4270
     55 H24        -6.5221    0.7638    0.1506 H         1 <0>         0.4504
@<TRIPOS>BOND
     1    1    2 1
     2    2    7 ar
     3    2    3 ar
     4    3    4 ar
     5    3   48 1
     6    4    5 ar
     7    4   20 1
     8    5    6 ar
     9    5   19 1
    10    6   10 2
    11    6    7 ar
    12    7    8 2
    13    8    9 1
    14    8   15 1
    15    9   10 1
    16    9   11 1
    17   11   12 1
    18   11   13 1
    19   11   14 1
    20   15   16 1
    21   15   17 1
    22   15   18 1
    23   20   21 1
    24   20   44 1
    25   21   26 ar
    26   21   22 ar
    27   22   23 ar
    28   22   43 1
    29   23   24 ar
    30   23   42 1
    31   24   25 ar
    32   24   55 1
    33   25   26 ar
    34   25   27 1
    35   27   28 1
    36   27   49 1
    37   28   33 ar
    38   28   29 ar
    39   29   30 ar
    40   29   50 1
    41   30   31 ar
    42   30   51 1
    43   31   32 ar
    44   31   38 1
    45   32   33 ar
    46   32   34 1
    47   33   52 1
    48   34   35 2
    49   34   36 2
    50   34   37 1
    51   37   53 1
    52   37   54 1
    53   38   39 1
    54   38   40 1
    55   38   41 1
    56   44   45 1
    57   44   46 1
    58   44   47 1
@<TRIPOS>MOLECULE
ZINC38995988
   51    55     0     0     0
SMALL
USER_CHARGES

@<TRIPOS>ATOM
      1 C1         -0.0167    1.3832    0.0096 C.ar      1 <0>        -0.0900
      2 C2          1.1624    2.0986    0.0022 C.ar      1 <0>        -0.1093
      3 C3          2.3769    1.4282   -0.0129 C.ar      1 <0>         0.0585
      4 C4          2.4020    0.0222   -0.0207 C.ar      1 <0>         0.0556
      5 C5          1.1969   -0.6870   -0.0127 C.ar      1 <0>        -0.0377
      6 C6          0.0021   -0.0041    0.0020 C.ar      1 <0>        -0.0874
      7 C7         -1.2962   -0.7693    0.0108 C.3       1 <0>         0.0982
      8 N1         -1.7317   -1.0105   -1.3713 N.3       1 <0>        -0.5319
      9 C8         -2.0812    0.2506   -2.0413 C.3       1 <0>         0.0140
     10 C9         -2.4711   -0.0400   -3.4930 C.3       1 <0>         0.0628
     11 O1         -3.5484   -0.9803   -3.5128 O.3       1 <0>        -0.3858
     12 C10        -3.2423   -2.2203   -2.8694 C.3       1 <0>         0.0630
     13 C11        -2.8603   -1.9518   -1.4114 C.3       1 <0>         0.0170
     14 N2          3.7040   -0.3552   -0.0358 N.2       1 <0>        -0.4791
     15 C12         4.4709    0.7083   -0.0379 C.2       1 <0>         0.3677
     16 N3          3.6969    1.8375   -0.0241 N.pl3     1 <0>        -0.5827
     17 C13         5.9482    0.6906   -0.0529 C.2       1 <0>         0.1128
     18 C14         6.7655   -0.4629   -0.0734 C.2       1 <0>         0.0625
     19 C15         8.0574   -0.0542   -0.0820 C.2       1 <0>         0.0467
     20 N4          8.0646    1.3049   -0.0675 N.pl3     1 <0>        -0.4518
     21 H1          8.8531    1.8699   -0.0696 H         1 <0>         0.4522
     22 N5          6.7361    1.7481   -0.0552 N.2       1 <0>        -0.2610
     23 N6          6.3179   -1.7953   -0.0825 N.am      1 <0>        -0.6484
     24 C16         7.2097   -2.8056   -0.1024 C.2       1 <0>         0.7112
     25 O2          8.4015   -2.5644   -0.1124 O.2       1 <0>        -0.5835
     26 N7          6.7806   -4.0832   -0.1111 N.am      1 <0>        -0.7107
     27 C17         7.7500   -5.1814   -0.1326 C.3       1 <0>         0.0984
     28 C18         7.4710   -6.3514   -1.0782 C.3       1 <0>        -0.1941
     29 C19         7.3013   -6.5309    0.4317 C.3       1 <0>        -0.1895
     30 H2         -0.9613    1.9065    0.0260 H         1 <0>         0.1292
     31 H3          1.1404    3.1784    0.0078 H         1 <0>         0.1265
     32 H4          1.2037   -1.7669   -0.0185 H         1 <0>         0.1329
     33 H5         -1.1522   -1.7232    0.5181 H         1 <0>         0.0877
     34 H6         -2.0559   -0.1898    0.5352 H         1 <0>         0.0479
     35 H7         -2.9207    0.7164   -1.5252 H         1 <0>         0.0435
     36 H8         -1.2233    0.9227   -2.0224 H         1 <0>         0.0909
     37 H9         -2.7857    0.8844   -3.9773 H         1 <0>         0.0978
     38 H10        -1.6147   -0.4564   -4.0234 H         1 <0>         0.0598
     39 H11        -4.1148   -2.8728   -2.9028 H         1 <0>         0.0988
     40 H12        -2.4084   -2.7001   -3.3817 H         1 <0>         0.0605
     41 H13        -2.5711   -2.8874   -0.9327 H         1 <0>         0.0882
     42 H14        -3.7122   -1.5212   -0.8852 H         1 <0>         0.0444
     43 H15         8.9269   -0.6946   -0.0972 H         1 <0>         0.2141
     44 H16         5.3672   -1.9876   -0.0745 H         1 <0>         0.4224
     45 H17         5.8299   -4.2755   -0.1031 H         1 <0>         0.4015
     46 H18         8.7902   -4.8932    0.0188 H         1 <0>         0.1414
     47 H19         6.5663   -6.3041   -1.6842 H         1 <0>         0.0976
     48 H20         8.3279   -6.8332   -1.5492 H         1 <0>         0.1039
     49 H21         8.0465   -7.1307    0.9541 H         1 <0>         0.1053
     50 H22         6.2849   -6.6016    0.8191 H         1 <0>         0.0980
     51 H23         4.0155    2.7537   -0.0227 H         1 <0>         0.4299
@<TRIPOS>BOND
     1    1    6 ar
     2    1    2 ar
     3    1   30 1
     4    2    3 ar
     5    2   31 1
     6    3   16 1
     7    3    4 ar
     8    4    5 ar
     9    4   14 1
    10    5    6 ar
    11    5   32 1
    12    6    7 1
    13    7    8 1
    14    7   33 1
    15    7   34 1
    16    8   13 1
    17    8    9 1
    18    9   10 1
    19    9   35 1
    20    9   36 1
    21   10   11 1
    22   10   37 1
    23   10   38 1
    24   11   12 1
    25   12   13 1
    26   12   39 1
    27   12   40 1
    28   13   41 1
    29   13   42 1
    30   14   15 2
    31   15   16 1
    32   15   17 1
    33   16   51 1
    34   17   22 2
    35   17   18 1
    36   18   19 2
    37   18   23 1
    38   19   20 1
    39   19   43 1
    40   20   21 1
    41   20   22 1
    42   23   24 am
    43   23   44 1
    44   24   25 2
    45   24   26 am
    46   26   27 1
    47   26   45 1
    48   27   29 1
    49   27   28 1
    50   27   46 1
    51   28   29 1
    52   28   47 1
    53   28   48 1
    54   29   49 1
    55   29   50 1
@<TRIPOS>MOLECULE
ZINC03816310
   51    55     0     0     0
SMALL
USER_CHARGES
4-amino-5-fluoro-3-[5-(4-methylpiperazin-1-yl)-3H-benzoimidazol-2-yl]-1H-quinolin-2-one
@<TRIPOS>ATOM
      1 C1         -4.4670    0.8494    3.0633 C.3       1 <0>        -0.0407
      2 C2         -3.3790    0.9463    0.9019 C.3       1 <0>         0.0019
      3 C3         -3.5151    1.4789   -0.5264 C.3       1 <0>         0.0203
      4 N1         -3.5799    2.9467   -0.4951 N.pl3     1 <0>        -0.4822
      5 C4         -4.7239    3.4034    0.3063 C.3       1 <0>         0.0231
      6 C5         -4.5878    2.8708    1.7347 C.3       1 <0>         0.0021
      7 C6         -3.6324    3.4738   -1.7895 C.ar      1 <0>         0.0898
      8 C7         -3.6187    2.6172   -2.8884 C.ar      1 <0>        -0.1658
      9 C8         -3.6694    3.1157   -4.1588 C.ar      1 <0>        -0.0428
     10 C9         -3.7362    4.4973   -4.3655 C.ar      1 <0>         0.0571
     11 C10        -3.7506    5.3641   -3.2589 C.ar      1 <0>         0.0655
     12 C11        -3.7036    4.8454   -1.9734 C.ar      1 <0>        -0.1134
     13 N2         -3.8198    6.6467   -3.7722 N.pl3     1 <0>        -0.5851
     14 H1         -3.8464    7.4962   -3.2453 H         1 <0>         0.4436
     15 C12        -3.8451    6.5353   -5.1390 C.2       1 <0>         0.4046
     16 N3         -3.7957    5.2687   -5.4809 N.2       1 <0>        -0.5294
     17 C13        -3.9164    7.6652   -6.0804 C.2       1 <0>        -0.3025
     18 C14        -4.0559    7.4305   -7.4504 C.2       1 <0>         0.3760
     19 C15        -4.1228    8.5898   -8.3476 C.ar      1 <0>        -0.1878
     20 C16        -4.0447    9.8830   -7.7997 C.ar      1 <0>         0.2450
     21 C17        -4.1078   10.9864   -8.6429 C.ar      1 <0>        -0.1734
     22 C18        -4.2458   10.8081  -10.0035 C.ar      1 <0>        -0.0185
     23 C19        -4.3231    9.5350  -10.5468 C.ar      1 <0>        -0.1801
     24 C20        -4.2628    8.4239   -9.7304 C.ar      1 <0>         0.1680
     25 F1         -4.3388    7.1843  -10.2623 F         1 <0>        -0.1206
     26 N4         -3.9076   10.0470   -6.4354 N.am      1 <0>        -0.6368
     27 H2         -3.8498   10.9715   -6.0585 H         1 <0>         0.4300
     28 C21        -3.8500    8.9949   -5.6023 C.2       1 <0>         0.5826
     29 O1         -3.7334    9.1908   -4.4050 O.2       1 <0>        -0.5600
     30 N5         -4.1288    6.1500   -7.9440 N.pl3     1 <0>        -0.8025
     31 H3         -3.5472    1.1734    3.5502 H         1 <0>         0.1241
     32 H4         -5.3249    1.2032    3.6351 H         1 <0>         0.1225
     33 H5         -4.4877   -0.2393    3.0134 H         1 <0>         0.1228
     34 H6         -3.3598   -0.1434    0.8835 H         1 <0>         0.1376
     35 H7         -2.4541    1.3189    1.3424 H         1 <0>         0.1399
     36 H8         -2.6529    1.1655   -1.1151 H         1 <0>         0.1307
     37 H9         -4.4260    1.0841   -0.9765 H         1 <0>         0.0717
     38 H10        -4.7431    4.4931    0.3248 H         1 <0>         0.1261
     39 H11        -5.6486    3.0309   -0.1345 H         1 <0>         0.0691
     40 H12        -3.6769    3.2656    2.1847 H         1 <0>         0.1400
     41 H13        -5.4498    3.1846    2.3235 H         1 <0>         0.1367
     42 H14        -3.5672    1.5496   -2.7341 H         1 <0>         0.1314
     43 H15        -3.6582    2.4431   -5.0037 H         1 <0>         0.1346
     44 H16        -3.7183    5.5073   -1.1202 H         1 <0>         0.1268
     45 H17        -4.0491   11.9836   -8.2323 H         1 <0>         0.1496
     46 H18        -4.2944   11.6697  -10.6529 H         1 <0>         0.1516
     47 H19        -4.4307    9.4121  -11.6144 H         1 <0>         0.1515
     48 H20        -4.3218    5.4103   -7.3468 H         1 <0>         0.4285
     49 H21        -3.9874    5.9859   -8.8895 H         1 <0>         0.4092
     50 N6         -4.5458    1.3938    1.6909 N.4       1 <0>        -0.3998
     51 H22        -5.4033    1.0486    1.2438 H         1 <0>         0.4274
@<TRIPOS>BOND
     1    1   31 1
     2    1   32 1
     3    1   33 1
     4    1   50 1
     5    2    3 1
     6    2   34 1
     7    2   35 1
     8    2   50 1
     9    3    4 1
    10    3   36 1
    11    3   37 1
    12    4    5 1
    13    4    7 1
    14    5    6 1
    15    5   38 1
    16    5   39 1
    17    6   40 1
    18    6   41 1
    19    6   50 1
    20    7   12 ar
    21    7    8 ar
    22    8    9 ar
    23    8   42 1
    24    9   10 ar
    25    9   43 1
    26   10   16 1
    27   10   11 ar
    28   11   12 ar
    29   11   13 1
    30   12   44 1
    31   13   14 1
    32   13   15 1
    33   15   16 2
    34   15   17 1
    35   17   28 1
    36   17   18 2
    37   18   19 1
    38   18   30 1
    39   19   24 ar
    40   19   20 ar
    41   20   21 ar
    42   20   26 1
    43   21   22 ar
    44   21   45 1
    45   22   23 ar
    46   22   46 1
    47   23   24 ar
    48   23   47 1
    49   24   25 1
    50   26   27 1
    51   26   28 am
    52   28   29 2
    53   30   48 1
    54   30   49 1
    55   50   51 1
@<TRIPOS>MOLECULE
ZINC03964325
   57    59     0     0     0
SMALL
USER_CHARGES

@<TRIPOS>ATOM
      1 C1          0.1489    2.0884    0.1150 C.3       1 <0>        -0.1876
      2 C2          0.1348    0.5603    0.1888 C.3       1 <0>        -0.0191
      3 N1         -1.2520    0.0881    0.2979 N.4       1 <0>        -0.3822
      4 C3         -1.9779    0.4111   -0.9377 C.3       1 <0>        -0.0142
      5 C4         -3.4549    0.0484   -0.7712 C.3       1 <0>        -0.1895
      6 C5         -1.2593   -1.3663    0.5041 C.3       1 <0>        -0.0265
      7 C6         -0.6131   -1.6936    1.8518 C.3       1 <0>         0.0952
      8 N2         -0.6203   -3.1440    2.0575 N.am      1 <0>        -0.7289
      9 C7         -0.0988   -3.6675    3.1846 C.2       1 <0>         0.6111
     10 O1          0.3779   -2.9358    4.0309 O.2       1 <0>        -0.5184
     11 C8         -0.1061   -5.1270    3.3915 C.2       1 <0>        -0.2420
     12 C9          0.9071   -6.0320    3.0089 C.2       1 <0>        -0.0577
     13 C10         0.4868   -7.2892    3.3960 C.2       1 <0>        -0.0075
     14 N3         -0.7476   -7.1595    3.9982 N.pl3     1 <0>        -0.4910
     15 H1         -1.2731   -7.8879    4.3645 H         1 <0>         0.4270
     16 C11        -1.1044   -5.8642    4.0022 C.2       1 <0>         0.1158
     17 C12        -2.3825   -5.3072    4.5743 C.3       1 <0>        -0.0999
     18 C13         1.1957   -8.4957    3.2079 C.2       1 <0>         0.0729
     19 C14         0.5100   -9.6674    2.9570 C.2       1 <0>        -0.1889
     20 C15         1.0648  -11.0377    2.8871 C.ar      1 <0>        -0.0736
     21 C16         2.3472  -11.5557    3.0375 C.ar      1 <0>        -0.1000
     22 C17         2.5553  -12.9162    2.9116 C.ar      1 <0>         0.0861
     23 C18         1.4888  -13.7593    2.6366 C.ar      1 <0>        -0.1139
     24 C19         0.2139  -13.2531    2.4856 C.ar      1 <0>        -0.1021
     25 C20        -0.0144  -11.8871    2.6092 C.ar      1 <0>         0.1282
     26 N4         -1.1765  -11.1301    2.5069 N.am      1 <0>        -0.6466
     27 C21        -0.9294   -9.8245    2.7079 C.2       1 <0>         0.5595
     28 O2         -1.7538   -8.9280    2.6842 O.2       1 <0>        -0.5156
     29 F1          3.7984  -13.4252    3.0561 F         1 <0>        -0.1318
     30 C22         2.1990   -5.6919    2.3116 C.3       1 <0>        -0.0931
     31 H2          1.1793    2.4435    0.1331 H         1 <0>         0.1076
     32 H3         -0.3308    2.4121   -0.8087 H         1 <0>         0.0811
     33 H4         -0.3916    2.4984    0.9682 H         1 <0>         0.0809
     34 H5          0.5888    0.1488   -0.7126 H         1 <0>         0.1317
     35 H6          0.6996    0.2334    1.0619 H         1 <0>         0.1337
     36 H7         -1.8867    1.4775   -1.1444 H         1 <0>         0.1351
     37 H8         -1.5554   -0.1571   -1.7664 H         1 <0>         0.1307
     38 H9         -3.5537   -1.0316   -0.6617 H         1 <0>         0.0802
     39 H10        -3.8523    0.5414    0.1160 H         1 <0>         0.0808
     40 H11        -4.0109    0.3769   -1.6492 H         1 <0>         0.1074
     41 H12        -2.2871   -1.7292    0.4963 H         1 <0>         0.1397
     42 H13        -0.6973   -1.8494   -0.2952 H         1 <0>         0.1376
     43 H14         0.4147   -1.3306    1.8596 H         1 <0>         0.0893
     44 H15        -1.1751   -1.2105    2.6511 H         1 <0>         0.0890
     45 H16        -1.0005   -3.7277    1.3824 H         1 <0>         0.4099
     46 H17        -3.1529   -5.3000    3.8032 H         1 <0>         0.0840
     47 H18        -2.7087   -5.9289    5.4080 H         1 <0>         0.0782
     48 H19        -2.2103   -4.2898    4.9254 H         1 <0>         0.0840
     49 H20         2.2744   -8.5020    3.2604 H         1 <0>         0.1589
     50 H21         3.1765  -10.8977    3.2512 H         1 <0>         0.1436
     51 H22         1.6578  -14.8215    2.5394 H         1 <0>         0.1485
     52 H23        -0.6084  -13.9196    2.2712 H         1 <0>         0.1415
     53 H24        -2.0541  -11.4980    2.3189 H         1 <0>         0.4217
     54 H25         2.9686   -5.4822    3.0545 H         1 <0>         0.0785
     55 H26         2.5107   -6.5337    1.6932 H         1 <0>         0.0726
     56 H27         2.0522   -4.8138    1.6827 H         1 <0>         0.0634
     57 H28        -1.7009    0.5410    1.0799 H         1 <0>         0.4247
@<TRIPOS>BOND
     1    1    2 1
     2    1   31 1
     3    1   32 1
     4    1   33 1
     5    2    3 1
     6    2   34 1
     7    2   35 1
     8    3    4 1
     9    3    6 1
    10    3   57 1
    11    4    5 1
    12    4   36 1
    13    4   37 1
    14    5   38 1
    15    5   39 1
    16    5   40 1
    17    6    7 1
    18    6   41 1
    19    6   42 1
    20    7    8 1
    21    7   43 1
    22    7   44 1
    23    8    9 am
    24    8   45 1
    25    9   10 2
    26    9   11 1
    27   11   16 2
    28   11   12 1
    29   12   13 2
    30   12   30 1
    31   13   14 1
    32   13   18 1
    33   14   15 1
    34   14   16 1
    35   16   17 1
    36   17   46 1
    37   17   47 1
    38   17   48 1
    39   18   19 2
    40   18   49 1
    41   19   27 1
    42   19   20 1
    43   20   25 ar
    44   20   21 ar
    45   21   22 ar
    46   21   50 1
    47   22   23 ar
    48   22   29 1
    49   23   24 ar
    50   23   51 1
    51   24   25 ar
    52   24   52 1
    53   25   26 1
    54   26   27 am
    55   26   53 1
    56   27   28 2
    57   30   54 1
    58   30   55 1
    59   30   56 1
@<TRIPOS>MOLECULE
ZINC01546066
   52    54     0     0     0
SMALL
USER_CHARGES

@<TRIPOS>ATOM
      1 C1          1.3190    1.4185    0.8998 C.3       1 <0>         0.0308
      2 O1          1.1221    0.0121    0.7412 O.3       1 <0>        -0.3842
      3 C2          1.6336   -0.7719    1.8209 C.3       1 <0>         0.0626
      4 C3          1.3686   -2.2534    1.5456 C.3       1 <0>         0.0560
      5 O2          2.1105   -2.6643    0.3955 O.3       1 <0>        -0.2877
      6 C4          1.9861   -3.9631    0.0122 C.ar      1 <0>         0.1163
      7 C5          1.1727   -4.8014    0.7206 C.ar      1 <0>        -0.1508
      8 C6          1.0439   -6.1386    0.3269 C.ar      1 <0>        -0.1822
      9 C7          1.7562   -6.6146   -0.8018 C.ar      1 <0>         0.2018
     10 C8          2.5842   -5.7378   -1.5132 C.ar      1 <0>        -0.1867
     11 C9          2.6894   -4.4253   -1.1088 C.ar      1 <0>         0.1692
     12 O3          3.4878   -3.5711   -1.8004 O.3       1 <0>        -0.2847
     13 C10         4.1782   -4.1019   -2.9333 C.3       1 <0>         0.0544
     14 C11         5.0210   -3.0002   -3.5791 C.3       1 <0>         0.0626
     15 O4          6.0448   -2.5894   -2.6708 O.3       1 <0>        -0.3848
     16 C12         6.8933   -1.5581   -3.1792 C.3       1 <0>         0.0309
     17 N1          1.6146   -7.9009   -1.1583 N.ar      1 <0>        -0.5426
     18 C13         0.8310   -8.6986   -0.4725 C.ar      1 <0>         0.3422
     19 N2          0.1465   -8.2987    0.5874 N.ar      1 <0>        -0.5807
     20 C14         0.2146   -7.0483    1.0253 C.ar      1 <0>         0.4641
     21 N3         -0.5043   -6.6451    2.1328 N.pl3     1 <0>        -0.6417
     22 C15        -1.2223   -7.5837    2.8797 C.ar      1 <0>         0.1534
     23 C16        -2.4417   -7.2339    3.4483 C.ar      1 <0>        -0.1365
     24 C17        -3.1548   -8.1581    4.1879 C.ar      1 <0>        -0.0976
     25 C18        -2.6612   -9.4349    4.3666 C.ar      1 <0>        -0.1098
     26 C19        -1.4382   -9.7960    3.7995 C.ar      1 <0>         0.0290
     27 C20        -0.7210   -8.8652    3.0488 C.ar      1 <0>        -0.0846
     28 C21        -0.9239  -11.1197    3.9839 C.1       1 <0>        -0.1518
     29 C22        -0.5023  -12.2049    4.1351 C.1       1 <0>        -0.1689
     30 H1          2.3858    1.6300    0.9737 H         1 <0>         0.0438
     31 H2          0.9034    1.9430    0.0394 H         1 <0>         0.0882
     32 H3          0.8182    1.7554    1.8074 H         1 <0>         0.0421
     33 H4          2.7069   -0.6059    1.9138 H         1 <0>         0.0642
     34 H5          1.1392   -0.4804    2.7476 H         1 <0>         0.0738
     35 H6          1.6782   -2.8442    2.4078 H         1 <0>         0.0797
     36 H7          0.3045   -2.4047    1.3647 H         1 <0>         0.0731
     37 H8          0.6320   -4.4344    1.5804 H         1 <0>         0.1376
     38 H9          3.1329   -6.0870   -2.3754 H         1 <0>         0.1546
     39 H10         4.8282   -4.9164   -2.6138 H         1 <0>         0.0783
     40 H11         3.4545   -4.4770   -3.6569 H         1 <0>         0.0849
     41 H12         5.4773   -3.3804   -4.4931 H         1 <0>         0.0752
     42 H13         4.3841   -2.1485   -3.8181 H         1 <0>         0.0638
     43 H14         6.2953   -0.6764   -3.4098 H         1 <0>         0.0434
     44 H15         7.6433   -1.3027   -2.4306 H         1 <0>         0.0879
     45 H16         7.3884   -1.9084   -4.0848 H         1 <0>         0.0424
     46 H17         0.7401   -9.7278   -0.7869 H         1 <0>         0.1966
     47 H18        -0.5113   -5.7106    2.3927 H         1 <0>         0.4197
     48 H19        -2.8329   -6.2365    3.3119 H         1 <0>         0.1281
     49 H20        -4.1012   -7.8805    4.6278 H         1 <0>         0.1331
     50 H21        -3.2213  -10.1542    4.9456 H         1 <0>         0.1284
     51 H22         0.2239   -9.1405    2.6039 H         1 <0>         0.1386
     52 H23        -0.1252  -13.1754    4.2703 H         1 <0>         0.2249
@<TRIPOS>BOND
     1    1    2 1
     2    1   30 1
     3    1   31 1
     4    1   32 1
     5    2    3 1
     6    3    4 1
     7    3   33 1
     8    3   34 1
     9    4    5 1
    10    4   35 1
    11    4   36 1
    12    5    6 1
    13    6   11 ar
    14    6    7 ar
    15    7    8 ar
    16    7   37 1
    17    8   20 ar
    18    8    9 ar
    19    9   10 ar
    20    9   17 ar
    21   10   11 ar
    22   10   38 1
    23   11   12 1
    24   12   13 1
    25   13   14 1
    26   13   39 1
    27   13   40 1
    28   14   15 1
    29   14   41 1
    30   14   42 1
    31   15   16 1
    32   16   43 1
    33   16   44 1
    34   16   45 1
    35   17   18 ar
    36   18   19 ar
    37   18   46 1
    38   19   20 ar
    39   20   21 1
    40   21   22 1
    41   21   47 1
    42   22   27 ar
    43   22   23 ar
    44   23   24 ar
    45   23   48 1
    46   24   25 ar
    47   24   49 1
    48   25   26 ar
    49   25   50 1
    50   26   27 ar
    51   26   28 1
    52   27   51 1
    53   28   29 3
    54   29   52 1
@<TRIPOS>MOLECULE
ZINC03973984
   56    61     0     0     0
SMALL
USER_CHARGES

@<TRIPOS>ATOM
      1 C1          2.5035    5.2044    5.2747 C.3       1 <0>        -0.0407
      2 C2          2.1460    2.8917    5.8982 C.3       1 <0>         0.0002
      3 C3          2.5994    1.4554    5.6263 C.3       1 <0>         0.0414
      4 N1          2.3296    1.1169    4.2220 N.pl3     1 <0>        -0.4613
      5 C4          3.0395    2.0315    3.3170 C.3       1 <0>         0.0369
      6 C5          2.5862    3.4678    3.5888 C.3       1 <0>         0.0039
      7 C6          2.6615   -0.1998    3.9568 C.ar      1 <0>         0.4871
      8 N2          3.1470   -0.9308    4.9409 N.ar      1 <0>        -0.5353
      9 C7          3.4872   -2.2119    4.7478 C.ar      1 <0>         0.1825
     10 C8          4.0048   -3.0092    5.7783 C.ar      1 <0>        -0.1065
     11 C9          4.3334   -4.3076    5.5235 C.ar      1 <0>        -0.0656
     12 C10         4.1631   -4.8562    4.2555 C.ar      1 <0>        -0.1085
     13 C11         3.6617   -4.1078    3.2298 C.ar      1 <0>        -0.0669
     14 C12         3.3105   -2.7758    3.4594 C.ar      1 <0>        -0.1492
     15 C13         2.7731   -1.9159    2.4035 C.ar      1 <0>         0.3236
     16 N3          2.4744   -0.6585    2.7252 N.ar      1 <0>        -0.4991
     17 C14         2.5650   -2.4238    1.0387 C.2       1 <0>        -0.1201
     18 C15         3.1800   -1.9689   -0.1276 C.2       1 <0>         0.0533
     19 C16         2.6362   -2.8084   -1.2276 C.2       1 <0>         0.5500
     20 O1          2.9328   -2.7204   -2.4013 O.2       1 <0>        -0.4227
     21 N4          1.7605   -3.6814   -0.7012 N.am      1 <0>        -0.6820
     22 C17         1.6634   -3.5132    0.6279 C.2       1 <0>         0.5700
     23 O2          0.9508   -4.1587    1.3715 O.2       1 <0>        -0.4396
     24 C18         4.1628   -0.8913   -0.2438 C.2       1 <0>        -0.1709
     25 C19         5.4966   -0.9402    0.1201 C.2       1 <0>         0.1080
     26 N5          6.0779    0.2476   -0.1381 N.pl3     1 <0>        -0.5732
     27 H1          7.0102    0.4541    0.0329 H         1 <0>         0.4235
     28 C20         5.1647    1.1307   -0.6801 C.ar      1 <0>         0.0844
     29 C21         3.9309    0.4665   -0.7721 C.ar      1 <0>        -0.0602
     30 C22         2.8189    1.1254   -1.2880 C.ar      1 <0>        -0.0732
     31 C23         2.9346    2.4335   -1.7084 C.ar      1 <0>        -0.1312
     32 C24         4.1518    3.0912   -1.6184 C.ar      1 <0>        -0.0989
     33 C25         5.2601    2.4513   -1.1048 C.ar      1 <0>        -0.1234
     34 H2          2.7756    5.4479    6.3018 H         1 <0>         0.1235
     35 H3          3.0428    5.8598    4.5909 H         1 <0>         0.1231
     36 H4          1.4307    5.3427    5.1405 H         1 <0>         0.1252
     37 H5          1.0724    2.9725    5.7281 H         1 <0>         0.1413
     38 H6          2.3713    3.1547    6.9317 H         1 <0>         0.1414
     39 H7          2.0529    0.7723    6.2765 H         1 <0>         0.1348
     40 H8          3.6680    1.3677    5.8227 H         1 <0>         0.0783
     41 H9          4.1131    1.9507    3.4870 H         1 <0>         0.0667
     42 H10         2.8139    1.7684    2.2835 H         1 <0>         0.1408
     43 H11         1.5175    3.5551    3.3925 H         1 <0>         0.1441
     44 H12         3.1327    4.1509    2.9386 H         1 <0>         0.1409
     45 H13         4.1420   -2.5977    6.7674 H         1 <0>         0.1438
     46 H14         4.7321   -4.9205    6.3183 H         1 <0>         0.1425
     47 H15         4.4315   -5.8876    4.0807 H         1 <0>         0.1407
     48 H16         3.5332   -4.5436    2.2500 H         1 <0>         0.1310
     49 H17         1.2665   -4.3425   -1.2110 H         1 <0>         0.4382
     50 H18         5.9953   -1.7986    0.5453 H         1 <0>         0.1795
     51 H19         1.8699    0.6147   -1.3585 H         1 <0>         0.1217
     52 H20         2.0736    2.9480   -2.1089 H         1 <0>         0.1281
     53 H21         4.2319    4.1158   -1.9504 H         1 <0>         0.1296
     54 H22         6.2033    2.9732   -1.0392 H         1 <0>         0.1233
     55 N6          2.8834    3.8027    4.9973 N.4       1 <0>        -0.4016
     56 H23         3.8908    3.6913    5.1615 H         1 <0>         0.4268
@<TRIPOS>BOND
     1    1   34 1
     2    1   35 1
     3    1   36 1
     4    1   55 1
     5    2    3 1
     6    2   37 1
     7    2   38 1
     8    2   55 1
     9    3    4 1
    10    3   39 1
    11    3   40 1
    12    4    5 1
    13    4    7 1
    14    5    6 1
    15    5   41 1
    16    5   42 1
    17    6   43 1
    18    6   44 1
    19    6   55 1
    20    7   16 ar
    21    7    8 ar
    22    8    9 ar
    23    9   14 ar
    24    9   10 ar
    25   10   11 ar
    26   10   45 1
    27   11   12 ar
    28   11   46 1
    29   12   13 ar
    30   12   47 1
    31   13   14 ar
    32   13   48 1
    33   14   15 ar
    34   15   16 ar
    35   15   17 1
    36   17   22 1
    37   17   18 2
    38   18   19 1
    39   18   24 1
    40   19   20 2
    41   19   21 am
    42   21   22 am
    43   21   49 1
    44   22   23 2
    45   24   29 1
    46   24   25 2
    47   25   26 1
    48   25   50 1
    49   26   27 1
    50   26   28 1
    51   28   33 ar
    52   28   29 ar
    53   29   30 ar
    54   30   31 ar
    55   30   51 1
    56   31   32 ar
    57   31   52 1
    58   32   33 ar
    59   32   53 1
    60   33   54 1
    61   55   56 1
@<TRIPOS>MOLECULE
ZINC03820040
   62    66     0     0     0
SMALL
USER_CHARGES
N-[4-[4-(4-methylpiperazin-1-yl)-6-[(5-methyl-2H-pyrazol-3-yl)amino]pyrimidin-2-yl]sulfanylphenyl]cyclopropanecarboxamide
@<TRIPOS>ATOM
      1 C1          1.8035   -7.6837    0.5070 C.3       1 <0>        -0.0779
      2 C2          2.3685   -6.3674    0.0389 C.2       1 <0>         0.0949
      3 C3          1.9325   -5.1020    0.4407 C.2       1 <0>        -0.2905
      4 C4          2.6904   -4.1743   -0.2066 C.2       1 <0>         0.3252
      5 N1          3.5799   -4.8447   -0.9836 N.pl3     1 <0>        -0.4853
      6 H1          4.2729   -4.4328   -1.5753 H         1 <0>         0.4473
      7 N2          3.3537   -6.2159   -0.8085 N.2       1 <0>        -0.2711
      8 N3          2.5778   -2.7905   -0.0888 N.pl3     1 <0>        -0.6296
      9 C5          1.3376   -2.2123    0.1391 C.ar      1 <0>         0.4706
     10 C6          0.1755   -2.9717    0.0343 C.ar      1 <0>        -0.2983
     11 C7         -1.0466   -2.3490    0.2714 C.ar      1 <0>         0.3791
     12 N4         -1.0643   -1.0564    0.5886 N.ar      1 <0>        -0.5664
     13 C8          0.0620   -0.3646    0.6795 C.ar      1 <0>         0.3511
     14 N5          1.2425   -0.9231    0.4557 N.ar      1 <0>        -0.5606
     15 S1         -0.0125    1.3444    1.1018 S.3       1 <0>         0.1303
     16 C9          1.7078    1.7032    1.2298 C.ar      1 <0>        -0.1638
     17 C10         2.3806    1.4637    2.4214 C.ar      1 <0>        -0.0284
     18 C11         3.7293    1.7409    2.5200 C.ar      1 <0>        -0.1315
     19 C12         4.4114    2.2681    1.4313 C.ar      1 <0>         0.1902
     20 C13         3.7379    2.5125    0.2417 C.ar      1 <0>        -0.1573
     21 C14         2.3903    2.2311    0.1410 C.ar      1 <0>        -0.0288
     22 N6          5.7793    2.5539    1.5333 N.am      1 <0>        -0.6744
     23 C15         6.5739    1.7808    2.2997 C.2       1 <0>         0.5466
     24 O1          6.1269    0.7811    2.8213 O.2       1 <0>        -0.5140
     25 C16         8.0178    2.1584    2.5086 C.3       1 <0>        -0.2022
     26 C17         9.0818    1.2604    1.8742 C.3       1 <0>        -0.1494
     27 C18         8.8679    1.2402    3.3890 C.3       1 <0>        -0.1425
     28 N7         -2.2296   -3.0657    0.1789 N.pl3     1 <0>        -0.4710
     29 C19        -2.3617   -3.6957   -1.1422 C.3       1 <0>         0.0277
     30 C20        -3.6379   -4.5399   -1.1765 C.3       1 <0>         0.0040
     31 C21        -4.6643   -3.0537    0.4349 C.3       1 <0>        -0.0004
     32 C22        -3.3881   -2.2095    0.4692 C.3       1 <0>         0.0347
     33 C23        -6.0501   -4.4431   -0.9842 C.3       1 <0>        -0.0407
     34 H2          2.3381   -8.0122    1.3982 H         1 <0>         0.0831
     35 H3          0.7460   -7.5623    0.7417 H         1 <0>         0.0784
     36 H4          1.9177   -8.4287   -0.2805 H         1 <0>         0.0774
     37 H5          1.1347   -4.8964    1.1389 H         1 <0>         0.1550
     38 H6          3.3667   -2.2314   -0.1662 H         1 <0>         0.4241
     39 H7          0.2211   -4.0192   -0.2246 H         1 <0>         0.1631
     40 H8          1.8494    1.0573    3.2693 H         1 <0>         0.1319
     41 H9          4.2533    1.5509    3.4451 H         1 <0>         0.1405
     42 H10         4.2686    2.9225   -0.6049 H         1 <0>         0.1339
     43 H11         1.8666    2.4209   -0.7843 H         1 <0>         0.1341
     44 H12         6.1543    3.3081    1.0523 H         1 <0>         0.4168
     45 H13         8.2224    3.2282    2.5520 H         1 <0>         0.1306
     46 H14         8.7374    0.3965    1.3057 H         1 <0>         0.0995
     47 H15         9.9866    1.7393    1.5000 H         1 <0>         0.1100
     48 H16         9.6320    1.7059    4.0114 H         1 <0>         0.1092
     49 H17         8.3827    0.3633    3.8175 H         1 <0>         0.1093
     50 H18        -2.4158   -2.9234   -1.9095 H         1 <0>         0.0737
     51 H19        -1.4982   -4.3342   -1.3286 H         1 <0>         0.1318
     52 H20        -3.5722   -5.3290   -0.4274 H         1 <0>         0.1439
     53 H21        -3.7533   -4.9852   -2.1646 H         1 <0>         0.1412
     54 H22        -4.6102   -3.8259    1.2022 H         1 <0>         0.1407
     55 H23        -5.5278   -2.4152    0.6217 H         1 <0>         0.1407
     56 H24        -3.2729   -1.7645    1.4575 H         1 <0>         0.1357
     57 H25        -3.4537   -1.4201   -0.2796 H         1 <0>         0.0793
     58 H26        -6.8948   -3.7714   -0.8313 H         1 <0>         0.1238
     59 H27        -6.1225   -4.8989   -1.9717 H         1 <0>         0.1230
     60 H28        -6.0632   -5.2226   -0.2224 H         1 <0>         0.1251
     61 N8         -4.7966   -3.6630   -0.9051 N.4       1 <0>        -0.4014
     62 H29        -4.8229   -2.9169   -1.6099 H         1 <0>         0.4281
@<TRIPOS>BOND
     1    1    2 1
     2    1   34 1
     3    1   35 1
     4    1   36 1
     5    2    7 2
     6    2    3 1
     7    3    4 2
     8    3   37 1
     9    4    5 1
    10    4    8 1
    11    5    6 1
    12    5    7 1
    13    8    9 1
    14    8   38 1
    15    9   14 ar
    16    9   10 ar
    17   10   11 ar
    18   10   39 1
    19   11   12 ar
    20   11   28 1
    21   12   13 ar
    22   13   14 ar
    23   13   15 1
    24   15   16 1
    25   16   21 ar
    26   16   17 ar
    27   17   18 ar
    28   17   40 1
    29   18   19 ar
    30   18   41 1
    31   19   20 ar
    32   19   22 1
    33   20   21 ar
    34   20   42 1
    35   21   43 1
    36   22   23 am
    37   22   44 1
    38   23   24 2
    39   23   25 1
    40   25   27 1
    41   25   26 1
    42   25   45 1
    43   26   27 1
    44   26   46 1
    45   26   47 1
    46   27   48 1
    47   27   49 1
    48   28   32 1
    49   28   29 1
    50   29   30 1
    51   29   50 1
    52   29   51 1
    53   30   52 1
    54   30   53 1
    55   30   61 1
    56   31   32 1
    57   31   54 1
    58   31   55 1
    59   31   61 1
    60   32   56 1
    61   32   57 1
    62   33   58 1
    63   33   59 1
    64   33   60 1
    65   33   61 1
    66   61   62 1
@<TRIPOS>MOLECULE
ZINC18825339
   59    62     0     0     0
SMALL
USER_CHARGES
5-[(Z)-(5-fluoro-2-oxo-indolin-3-ylidene)methyl]-N-[(2R)-2-hydroxy-3-morpholino-propyl]-2,4-dimethyl-1H-pyrrole-3-carboxamide
@<TRIPOS>ATOM
      1 C1          3.5607    0.7280    0.3667 C.3       1 <0>        -0.0956
      2 C2          2.0758    0.7165    0.1102 C.2       1 <0>        -0.0564
      3 C3          1.2591    1.8188   -0.0477 C.2       1 <0>        -0.0308
      4 N1         -0.0271    1.3691   -0.2640 N.pl3     1 <0>        -0.5068
      5 H1         -0.8436    2.0903   -0.4163 H         1 <0>         0.4494
      6 C4         -0.0354    0.0257   -0.2455 C.2       1 <0>         0.1277
      7 C5          1.2525   -0.4230   -0.0155 C.2       1 <0>        -0.2308
      8 C6          1.6847   -1.8291    0.0810 C.2       1 <0>         0.5980
      9 O1          2.0430   -2.4250   -0.9167 O.2       1 <0>        -0.5421
     10 N2          1.6827   -2.4542    1.2750 N.am      1 <0>        -0.7266
     11 C7          2.1121   -3.8516    1.3710 C.3       1 <0>         0.1299
     12 C8          2.0150   -4.3162    2.8255 C.3       1 <0>         0.1144
     13 H2          2.5334   -3.6206    3.5018 H         1 <0>         0.0568
     14 C9          2.5799   -5.7329    2.9471 C.3       1 <0>         0.0228
     15 N3          2.4867   -6.1790    4.3436 N.3       1 <0>        -0.5349
     16 C10         3.3671   -5.3829    5.2109 C.3       1 <0>         0.0083
     17 C11         3.1945   -5.8402    6.6618 C.3       1 <0>         0.0618
     18 O2          3.4694   -7.2408    6.7508 O.3       1 <0>        -0.3843
     19 C12         2.6296   -8.0463    5.9193 C.3       1 <0>         0.0614
     20 C13         2.7965   -7.6114    4.4609 C.3       1 <0>         0.0172
     21 O3          0.6463   -4.3123    3.2364 O.3       1 <0>        -0.5882
     22 C14        -1.2476   -0.8477   -0.4426 C.3       1 <0>        -0.0994
     23 C15         1.6686    3.1691    0.0027 C.2       1 <0>         0.0908
     24 C16         0.8216    4.1284    0.5209 C.2       1 <0>        -0.2125
     25 C17         1.0162    5.5955    0.5210 C.ar      1 <0>        -0.0684
     26 C18         2.0202    6.4240    0.0297 C.ar      1 <0>        -0.1043
     27 C19         1.9118    7.7937    0.1786 C.ar      1 <0>         0.0808
     28 C20         0.8031    8.3379    0.8097 C.ar      1 <0>        -0.1198
     29 C21        -0.2000    7.5233    1.2941 C.ar      1 <0>        -0.1061
     30 C22        -0.1080    6.1430    1.1533 C.ar      1 <0>         0.1250
     31 N4         -0.9593    5.1144    1.5420 N.am      1 <0>        -0.6604
     32 C23        -0.4649    3.9133    1.1971 C.2       1 <0>         0.5647
     33 O4         -0.9909    2.8351    1.4086 O.2       1 <0>        -0.5132
     34 F1          2.8866    8.6030   -0.2904 F         1 <0>        -0.1355
     35 H3          3.9167    1.7678    0.4131 H         1 <0>         0.0672
     36 H4          4.0776    0.1994   -0.4478 H         1 <0>         0.0746
     37 H5          3.7717    0.2252    1.3221 H         1 <0>         0.0710
     38 H6          1.3586   -1.9152    2.1775 H         1 <0>         0.4262
     39 H7          1.4633   -4.4786    0.7417 H         1 <0>         0.0750
     40 H8          3.1531   -3.9398    1.0266 H         1 <0>         0.0785
     41 H9          2.0023   -6.4143    2.3052 H         1 <0>         0.0900
     42 H10         3.6334   -5.7360    2.6307 H         1 <0>         0.0465
     43 H11         4.4130   -5.5254    4.9015 H         1 <0>         0.0459
     44 H12         3.1012   -4.3189    5.1257 H         1 <0>         0.0881
     45 H13         3.8925   -5.2859    7.3064 H         1 <0>         0.1001
     46 H14         2.1618   -5.6458    6.9871 H         1 <0>         0.0615
     47 H15         2.9156   -9.1033    6.0238 H         1 <0>         0.1009
     48 H16         1.5805   -7.9185    6.2243 H         1 <0>         0.0621
     49 H17         2.1104   -8.1883    3.8234 H         1 <0>         0.0898
     50 H18         3.8332   -7.7899    4.1393 H         1 <0>         0.0455
     51 H19         0.3780   -4.6185    4.2583 H         1 <0>         0.4136
     52 H20        -0.9523   -1.9052   -0.3757 H         1 <0>         0.0845
     53 H21        -1.6843   -0.6508   -1.4328 H         1 <0>         0.0777
     54 H22        -1.9909   -0.6245    0.3369 H         1 <0>         0.0809
     55 H23         2.6624    3.4568   -0.3709 H         1 <0>         0.1579
     56 H24         2.8828    5.9984   -0.4614 H         1 <0>         0.1409
     57 H25         0.7239    9.4091    0.9228 H         1 <0>         0.1443
     58 H26        -1.0583    7.9589    1.7840 H         1 <0>         0.1386
     59 H27        -1.9003    5.3463    2.0623 H         1 <0>         0.4455
@<TRIPOS>BOND
     1    1    2 1
     2    1   35 1
     3    1   36 1
     4    1   37 1
     5    2    7 1
     6    2    3 2
     7    3    4 1
     8    3   23 1
     9    4    5 1
    10    4    6 1
    11    6    7 2
    12    6   22 1
    13    7    8 1
    14    8    9 2
    15    8   10 am
    16   10   11 1
    17   10   38 1
    18   11   12 1
    19   11   39 1
    20   11   40 1
    21   12   13 1
    22   12   14 1
    23   12   21 1
    24   14   15 1
    25   14   41 1
    26   14   42 1
    27   15   20 1
    28   15   16 1
    29   16   17 1
    30   16   43 1
    31   16   44 1
    32   17   18 1
    33   17   45 1
    34   17   46 1
    35   18   19 1
    36   19   20 1
    37   19   47 1
    38   19   48 1
    39   20   49 1
    40   20   50 1
    41   21   51 1
    42   22   52 1
    43   22   53 1
    44   22   54 1
    45   23   24 2
    46   23   55 1
    47   24   32 1
    48   24   25 1
    49   25   30 ar
    50   25   26 ar
    51   26   27 ar
    52   26   56 1
    53   27   28 ar
    54   27   34 1
    55   28   29 ar
    56   28   57 1
    57   29   30 ar
    58   29   58 1
    59   30   31 1
    60   31   32 am
    61   31   59 1
    62   32   33 2
@<TRIPOS>MOLECULE
ZINC18825344
   59    62     0     0     0
SMALL
USER_CHARGES
5-[(Z)-(5-fluoro-2-oxo-indolin-3-ylidene)methyl]-N-[(2S)-2-hydroxy-3-morpholino-propyl]-2,4-dimethyl-1H-pyrrole-3-carboxamide
@<TRIPOS>ATOM
      1 C1          4.7056    0.6287    1.0117 C.3       1 <0>        -0.0968
      2 C2          3.2464    0.8378    0.6983 C.2       1 <0>        -0.0523
      3 C3          2.5980    2.0501    0.5678 C.2       1 <0>        -0.0327
      4 N1          1.2732    1.7961    0.2789 N.pl3     1 <0>        -0.5060
      5 H1          0.5720    2.6311    0.1339 H         1 <0>         0.4496
      6 C4          1.0783    0.4679    0.2258 C.2       1 <0>         0.1246
      7 C5          2.2801   -0.1676    0.4808 C.2       1 <0>        -0.2308
      8 C6          2.5088   -1.6234    0.5191 C.2       1 <0>         0.5976
      9 O1          2.8262   -2.2159   -0.4944 O.2       1 <0>        -0.5428
     10 N2          2.3662   -2.2977    1.6773 N.am      1 <0>        -0.7254
     11 C7          2.5935   -3.7444    1.7154 C.3       1 <0>         0.1298
     12 C8          2.3672   -4.2590    3.1384 C.3       1 <0>         0.1172
     13 H2          1.3599   -4.0040    3.4994 H         1 <0>         0.0560
     14 C9          2.6045   -5.7699    3.1781 C.3       1 <0>         0.0219
     15 N3          2.3382   -6.2720    4.5327 N.3       1 <0>        -0.5356
     16 C10         2.9762   -7.5793    4.7450 C.3       1 <0>         0.0168
     17 C11         2.7241   -8.0365    6.1842 C.3       1 <0>         0.0612
     18 O2          1.3152   -8.0759    6.4267 O.3       1 <0>        -0.3844
     19 C12         0.6618   -6.8191    6.2299 C.3       1 <0>         0.0617
     20 C13         0.8930   -6.3496    4.7911 C.3       1 <0>         0.0111
     21 O3          3.2765   -3.6103    4.0297 O.3       1 <0>        -0.5892
     22 C14        -0.2328   -0.2165   -0.0637 C.3       1 <0>        -0.0987
     23 C15         3.1876    3.3256    0.7056 C.2       1 <0>         0.0935
     24 C16         2.4515    4.3746    1.2192 C.2       1 <0>        -0.2157
     25 C17         2.8515    5.7966    1.3077 C.ar      1 <0>        -0.0669
     26 C18         3.9943    6.4912    0.9234 C.ar      1 <0>        -0.1048
     27 C19         4.0710    7.8545    1.1363 C.ar      1 <0>         0.0814
     28 C20         3.0098    8.5263    1.7247 C.ar      1 <0>        -0.1204
     29 C21         1.8704    7.8457    2.1029 C.ar      1 <0>        -0.1055
     30 C22         1.7753    6.4739    1.8965 C.ar      1 <0>         0.1237
     31 N4          0.7622    5.5637    2.1775 N.am      1 <0>        -0.6596
     32 C23         1.1039    4.3195    1.8021 C.2       1 <0>         0.5657
     33 O4          0.4171    3.3209    1.9242 O.2       1 <0>        -0.5153
     34 F1          5.1807    8.5334    0.7715 F         1 <0>        -0.1355
     35 H3          5.1994    1.6049    1.1269 H         1 <0>         0.0668
     36 H4          5.1808    0.0720    0.1906 H         1 <0>         0.0744
     37 H5          4.8016    0.0567    1.9464 H         1 <0>         0.0741
     38 H6          2.0791   -1.7617    2.5940 H         1 <0>         0.4273
     39 H7          1.8935   -4.2437    1.0293 H         1 <0>         0.0777
     40 H8          3.6268   -3.9615    1.4070 H         1 <0>         0.0736
     41 H9          1.9304   -6.2658    2.4641 H         1 <0>         0.0486
     42 H10         3.6486   -5.9844    2.9062 H         1 <0>         0.0884
     43 H11         2.5501   -8.3132    4.0451 H         1 <0>         0.0451
     44 H12         4.0587   -7.4917    4.5704 H         1 <0>         0.0900
     45 H13         3.1515   -9.0395    6.3305 H         1 <0>         0.1008
     46 H14         3.1986   -7.3305    6.8817 H         1 <0>         0.0620
     47 H15        -0.4170   -6.9344    6.4112 H         1 <0>         0.1000
     48 H16         1.0741   -6.0778    6.9303 H         1 <0>         0.0613
     49 H17         0.4415   -5.3564    4.6504 H         1 <0>         0.0873
     50 H18         0.4333   -7.0637    4.0920 H         1 <0>         0.0461
     51 H19         3.2627   -3.8533    5.1024 H         1 <0>         0.4141
     52 H20        -0.0899   -1.3070   -0.0417 H         1 <0>         0.0829
     53 H21        -0.5927    0.0862   -1.0581 H         1 <0>         0.0781
     54 H22        -0.9728    0.0718    0.6974 H         1 <0>         0.0803
     55 H23         4.2335    3.4835    0.4037 H         1 <0>         0.1584
     56 H24         4.8196    5.9664    0.4654 H         1 <0>         0.1411
     57 H25         3.0756    9.5918    1.8882 H         1 <0>         0.1443
     58 H26         1.0507    8.3797    2.5605 H         1 <0>         0.1385
     59 H27        -0.1701    5.9069    2.6497 H         1 <0>         0.4455
@<TRIPOS>BOND
     1    1    2 1
     2    1   35 1
     3    1   36 1
     4    1   37 1
     5    2    7 1
     6    2    3 2
     7    3    4 1
     8    3   23 1
     9    4    5 1
    10    4    6 1
    11    6    7 2
    12    6   22 1
    13    7    8 1
    14    8    9 2
    15    8   10 am
    16   10   11 1
    17   10   38 1
    18   11   12 1
    19   11   39 1
    20   11   40 1
    21   12   13 1
    22   12   14 1
    23   12   21 1
    24   14   15 1
    25   14   41 1
    26   14   42 1
    27   15   20 1
    28   15   16 1
    29   16   17 1
    30   16   43 1
    31   16   44 1
    32   17   18 1
    33   17   45 1
    34   17   46 1
    35   18   19 1
    36   19   20 1
    37   19   47 1
    38   19   48 1
    39   20   49 1
    40   20   50 1
    41   21   51 1
    42   22   52 1
    43   22   53 1
    44   22   54 1
    45   23   24 2
    46   23   55 1
    47   24   32 1
    48   24   25 1
    49   25   30 ar
    50   25   26 ar
    51   26   27 ar
    52   26   56 1
    53   27   28 ar
    54   27   34 1
    55   28   29 ar
    56   28   57 1
    57   29   30 ar
    58   29   58 1
    59   30   31 1
    60   31   32 am
    61   31   59 1
    62   32   33 2
@<TRIPOS>MOLECULE
ZINC23247639
   69    72     0     0     0
SMALL
USER_CHARGES
1-[4-[(4-ethylpiperazin-1-yl)methyl]-3-(trifluoromethyl)phenyl]-3-[4-(6-methylaminopyrimidin-4-yl)oxyphenyl]urea
@<TRIPOS>ATOM
      1 C1          8.9417    3.3719    8.2172 C.3       1 <0>        -0.1901
      2 C2         10.1498    2.9102    7.3997 C.3       1 <0>        -0.0070
      3 N1          9.9972    3.3533    6.0075 N.4       1 <0>        -0.4011
      4 C3         11.2367    3.1387    5.2477 C.3       1 <0>         0.0016
      5 C4         11.0629    3.6845    3.8284 C.3       1 <0>         0.0271
      6 N2          9.9288    3.0094    3.1822 N.3       1 <0>        -0.5300
      7 C5          8.6893    3.2240    3.9420 C.3       1 <0>         0.0232
      8 C6          8.8631    2.6781    5.3612 C.3       1 <0>        -0.0016
      9 C7          9.7762    3.4524    1.7899 C.3       1 <0>         0.0786
     10 C8          8.7879    2.5601    1.0842 C.ar      1 <0>        -0.0666
     11 C9          7.5022    3.0092    0.8434 C.ar      1 <0>        -0.0932
     12 C10         6.5958    2.1959    0.1923 C.ar      1 <0>        -0.0888
     13 C11         6.9731    0.9214   -0.2106 C.ar      1 <0>         0.1880
     14 C12         8.2646    0.4735    0.0326 C.ar      1 <0>        -0.1043
     15 C13         9.1683    1.2940    0.6793 C.ar      1 <0>        -0.1369
     16 C14        10.5702    0.8086    0.9441 C.3       1 <0>         0.5111
     17 F1         10.7250   -0.4786    0.4184 F         1 <0>        -0.1776
     18 F2         11.4860    1.6739    0.3362 F         1 <0>        -0.1774
     19 F3         10.8008    0.7797    2.3237 F         1 <0>        -0.1628
     20 N3          6.0552    0.0926   -0.8655 N.am      1 <0>        -0.6979
     21 C15         4.7513    0.1311   -0.5266 C.2       1 <0>         0.7117
     22 O1          4.3858    0.8194    0.4067 O.2       1 <0>        -0.5623
     23 N4          3.8526   -0.5934   -1.2222 N.am      1 <0>        -0.6900
     24 C16         2.4863   -0.4790   -0.9335 C.ar      1 <0>         0.1635
     25 C17         1.5516   -0.5518   -1.9576 C.ar      1 <0>        -0.1265
     26 C18         0.2052   -0.4394   -1.6724 C.ar      1 <0>        -0.0923
     27 C19        -0.2137   -0.2543   -0.3628 C.ar      1 <0>         0.0841
     28 C20         0.7198   -0.1815    0.6609 C.ar      1 <0>        -0.0957
     29 C21         2.0665   -0.2932    0.3769 C.ar      1 <0>        -0.1058
     30 O2         -1.5393   -0.1385   -0.0833 O.3       1 <0>        -0.2424
     31 C22        -2.3129   -1.2454   -0.1983 C.ar      1 <0>         0.3836
     32 C23        -3.6894   -1.1637   -0.0277 C.ar      1 <0>        -0.3134
     33 C24        -4.4409   -2.3284   -0.1601 C.ar      1 <0>         0.4631
     34 N5         -3.8165   -3.4721   -0.4341 N.ar      1 <0>        -0.5936
     35 C25        -2.5082   -3.5081   -0.5840 C.ar      1 <0>         0.3760
     36 N6         -1.7644   -2.4263   -0.4707 N.ar      1 <0>        -0.6039
     37 N7         -5.8178   -2.2988   -0.0034 N.pl3     1 <0>        -0.7218
     38 C26        -6.4937   -1.0344    0.2979 C.3       1 <0>         0.0891
     39 H1          9.0560    3.0401    9.2597 H         1 <0>         0.1066
     40 H2          8.0243    2.9380    7.7928 H         1 <0>         0.0798
     41 H3          8.8763    4.4695    8.1868 H         1 <0>         0.0803
     42 H4         11.0672    3.3441    7.8241 H         1 <0>         0.1306
     43 H5         10.2153    1.8126    7.4301 H         1 <0>         0.1269
     44 H6         12.0665    3.6630    5.7442 H         1 <0>         0.1361
     45 H7         11.4577    2.0621    5.2031 H         1 <0>         0.1357
     46 H8         10.8699    4.7665    3.8728 H         1 <0>         0.0625
     47 H9         11.9796    3.4990    3.2494 H         1 <0>         0.1239
     48 H10         8.4684    4.3007    3.9867 H         1 <0>         0.0621
     49 H11         7.8594    2.6998    3.4455 H         1 <0>         0.1239
     50 H12         9.0569    1.5962    5.3178 H         1 <0>         0.1351
     51 H13         7.9470    2.8635    5.9412 H         1 <0>         0.1359
     52 H14         9.4106    4.4897    1.7732 H         1 <0>         0.0663
     53 H15        10.7489    3.3982    1.2791 H         1 <0>         0.1073
     54 H16         7.2082    3.9988    1.1607 H         1 <0>         0.1358
     55 H17         5.5933    2.5489    0.0003 H         1 <0>         0.1466
     56 H18         8.5625   -0.5152   -0.2838 H         1 <0>         0.1447
     57 H19         6.3979   -0.5903   -1.6569 H         1 <0>         0.4387
     58 H20         4.1917   -1.2745   -2.0166 H         1 <0>         0.4355
     59 H21         1.8775   -0.6959   -2.9771 H         1 <0>         0.1334
     60 H22        -0.5220   -0.4960   -2.4689 H         1 <0>         0.1303
     61 H23         0.3932   -0.0371    1.6801 H         1 <0>         0.1327
     62 H24         2.7931   -0.2369    1.1740 H         1 <0>         0.1442
     63 H25        -4.1646   -0.2205    0.1982 H         1 <0>         0.1466
     64 H26        -2.0315   -4.4515   -0.8058 H         1 <0>         0.2000
     65 H27        -6.4030   -3.2246   -0.1053 H         1 <0>         0.4376
     66 H28        -7.5762   -1.2091    0.3856 H         1 <0>         0.0864
     67 H29        -6.3028   -0.3146   -0.5117 H         1 <0>         0.0603
     68 H30        -6.1096   -0.6302    1.2461 H         1 <0>         0.0599
     69 H31         9.7882    4.4332    6.0188 H         1 <0>         0.4364
@<TRIPOS>BOND
     1    1    2 1
     2    1   39 1
     3    1   40 1
     4    1   41 1
     5    2    3 1
     6    2   42 1
     7    2   43 1
     8    3    8 1
     9    3    4 1
    10    3   69 1
    11    4    5 1
    12    4   44 1
    13    4   45 1
    14    5    6 1
    15    5   46 1
    16    5   47 1
    17    6    7 1
    18    6    9 1
    19    7    8 1
    20    7   48 1
    21    7   49 1
    22    8   50 1
    23    8   51 1
    24    9   10 1
    25    9   52 1
    26    9   53 1
    27   10   15 ar
    28   10   11 ar
    29   11   12 ar
    30   11   54 1
    31   12   13 ar
    32   12   55 1
    33   13   14 ar
    34   13   20 1
    35   14   15 ar
    36   14   56 1
    37   15   16 1
    38   16   17 1
    39   16   18 1
    40   16   19 1
    41   20   21 am
    42   20   57 1
    43   21   22 2
    44   21   23 am
    45   23   24 1
    46   23   58 1
    47   24   29 ar
    48   24   25 ar
    49   25   26 ar
    50   25   59 1
    51   26   27 ar
    52   26   60 1
    53   27   28 ar
    54   27   30 1
    55   28   29 ar
    56   28   61 1
    57   29   62 1
    58   30   31 1
    59   31   36 ar
    60   31   32 ar
    61   32   33 ar
    62   32   63 1
    63   33   34 ar
    64   33   37 1
    65   34   35 ar
    66   35   36 ar
    67   35   64 1
    68   37   38 1
    69   37   65 1
    70   38   66 1
    71   38   67 1
    72   38   68 1
@<TRIPOS>MOLECULE
ZINC23247639
   69    72     0     0     0
SMALL
USER_CHARGES
1-[4-[(4-ethylpiperazin-1-yl)methyl]-3-(trifluoromethyl)phenyl]-3-[4-(6-methylaminopyrimidin-4-yl)oxyphenyl]urea
@<TRIPOS>ATOM
      1 C1          8.9417    3.3719    8.2172 C.3       1 <0>        -0.1569
      2 C2         10.1498    2.9102    7.3997 C.3       1 <0>         0.0486
      3 N1          9.9972    3.3533    6.0075 N.3       1 <0>        -0.5379
      4 C3         11.2367    3.1387    5.2477 C.3       1 <0>         0.0250
      5 C4         11.0629    3.6845    3.8284 C.3       1 <0>         0.0004
      6 N2          9.9288    3.0094    3.1822 N.4       1 <0>        -0.4202
      7 C5          8.6893    3.2240    3.9420 C.3       1 <0>        -0.0009
      8 C6          8.8631    2.6781    5.3612 C.3       1 <0>         0.0222
      9 C7          9.7762    3.4524    1.7899 C.3       1 <0>         0.0266
     10 C8          8.7879    2.5601    1.0842 C.ar      1 <0>        -0.1272
     11 C9          7.5022    3.0092    0.8434 C.ar      1 <0>        -0.0630
     12 C10         6.5958    2.1959    0.1923 C.ar      1 <0>        -0.0846
     13 C11         6.9731    0.9214   -0.2106 C.ar      1 <0>         0.2154
     14 C12         8.2646    0.4735    0.0326 C.ar      1 <0>        -0.0955
     15 C13         9.1683    1.2940    0.6793 C.ar      1 <0>        -0.1507
     16 C14        10.5702    0.8086    0.9441 C.3       1 <0>         0.5109
     17 F1         10.7250   -0.4786    0.4184 F         1 <0>        -0.1491
     18 F2         11.4860    1.6739    0.3362 F         1 <0>        -0.1584
     19 F3         10.8008    0.7797    2.3237 F         1 <0>        -0.1724
     20 N3          6.0552    0.0926   -0.8655 N.am      1 <0>        -0.6988
     21 C15         4.7513    0.1311   -0.5266 C.2       1 <0>         0.7114
     22 O1          4.3858    0.8194    0.4067 O.2       1 <0>        -0.5584
     23 N4          3.8526   -0.5934   -1.2222 N.am      1 <0>        -0.6858
     24 C16         2.4863   -0.4790   -0.9335 C.ar      1 <0>         0.1577
     25 C17         1.5516   -0.5518   -1.9576 C.ar      1 <0>        -0.1240
     26 C18         0.2052   -0.4394   -1.6724 C.ar      1 <0>        -0.0926
     27 C19        -0.2137   -0.2543   -0.3628 C.ar      1 <0>         0.0883
     28 C20         0.7198   -0.1815    0.6609 C.ar      1 <0>        -0.0957
     29 C21         2.0665   -0.2932    0.3769 C.ar      1 <0>        -0.1046
     30 O2         -1.5393   -0.1385   -0.0833 O.3       1 <0>        -0.2426
     31 C22        -2.3129   -1.2454   -0.1983 C.ar      1 <0>         0.3832
     32 C23        -3.6894   -1.1637   -0.0277 C.ar      1 <0>        -0.3126
     33 C24        -4.4409   -2.3284   -0.1601 C.ar      1 <0>         0.4635
     34 N5         -3.8165   -3.4721   -0.4341 N.ar      1 <0>        -0.5931
     35 C25        -2.5082   -3.5081   -0.5840 C.ar      1 <0>         0.3762
     36 N6         -1.7644   -2.4263   -0.4707 N.ar      1 <0>        -0.6049
     37 N7         -5.8178   -2.2988   -0.0034 N.pl3     1 <0>        -0.7212
     38 C26        -6.4937   -1.0344    0.2979 C.3       1 <0>         0.0887
     39 H1          9.0560    3.0401    9.2597 H         1 <0>         0.0714
     40 H2          8.0243    2.9380    7.7928 H         1 <0>         0.0562
     41 H3          8.8763    4.4695    8.1868 H         1 <0>         0.0696
     42 H4         11.0672    3.3441    7.8241 H         1 <0>         0.0895
     43 H5         10.2153    1.8126    7.4301 H         1 <0>         0.0455
     44 H6         12.0665    3.6630    5.7442 H         1 <0>         0.1253
     45 H7         11.4577    2.0621    5.2031 H         1 <0>         0.0582
     46 H8         10.8699    4.7665    3.8728 H         1 <0>         0.1369
     47 H9         11.9796    3.4990    3.2494 H         1 <0>         0.1329
     48 H10         8.4684    4.3007    3.9867 H         1 <0>         0.1355
     49 H11         7.8594    2.6998    3.4455 H         1 <0>         0.1312
     50 H12         9.0569    1.5962    5.3178 H         1 <0>         0.0572
     51 H13         7.9470    2.8635    5.9412 H         1 <0>         0.1266
     52 H14         9.4106    4.4897    1.7732 H         1 <0>         0.1472
     53 H15        10.7489    3.3982    1.2791 H         1 <0>         0.1420
     54 H16         7.2082    3.9988    1.1607 H         1 <0>         0.1512
     55 H17         5.5933    2.5489    0.0003 H         1 <0>         0.1583
     56 H18         8.5625   -0.5152   -0.2838 H         1 <0>         0.1556
     57 H19         6.3979   -0.5903   -1.6569 H         1 <0>         0.4440
     58 H20         4.1917   -1.2745   -2.0166 H         1 <0>         0.4371
     59 H21         1.8775   -0.6959   -2.9771 H         1 <0>         0.1338
     60 H22        -0.5220   -0.4960   -2.4689 H         1 <0>         0.1313
     61 H23         0.3932   -0.0371    1.6801 H         1 <0>         0.1341
     62 H24         2.7931   -0.2369    1.1740 H         1 <0>         0.1440
     63 H25        -4.1646   -0.2205    0.1982 H         1 <0>         0.1470
     64 H26        -2.0315   -4.4515   -0.8058 H         1 <0>         0.2001
     65 H27        -6.4030   -3.2246   -0.1053 H         1 <0>         0.4380
     66 H28        -7.5762   -1.2091    0.3856 H         1 <0>         0.0868
     67 H29        -6.3028   -0.3146   -0.5117 H         1 <0>         0.0604
     68 H30        -6.1096   -0.6302    1.2461 H         1 <0>         0.0603
     69 H31        10.1379    1.9295    3.1711 H         1 <0>         0.4253
@<TRIPOS>BOND
     1    1    2 1
     2    1   39 1
     3    1   40 1
     4    1   41 1
     5    2    3 1
     6    2   42 1
     7    2   43 1
     8    3    8 1
     9    3    4 1
    10    4    5 1
    11    4   44 1
    12    4   45 1
    13    5    6 1
    14    5   46 1
    15    5   47 1
    16    6    7 1
    17    6    9 1
    18    6   69 1
    19    7    8 1
    20    7   48 1
    21    7   49 1
    22    8   50 1
    23    8   51 1
    24    9   10 1
    25    9   52 1
    26    9   53 1
    27   10   15 ar
    28   10   11 ar
    29   11   12 ar
    30   11   54 1
    31   12   13 ar
    32   12   55 1
    33   13   14 ar
    34   13   20 1
    35   14   15 ar
    36   14   56 1
    37   15   16 1
    38   16   17 1
    39   16   18 1
    40   16   19 1
    41   20   21 am
    42   20   57 1
    43   21   22 2
    44   21   23 am
    45   23   24 1
    46   23   58 1
    47   24   29 ar
    48   24   25 ar
    49   25   26 ar
    50   25   59 1
    51   26   27 ar
    52   26   60 1
    53   27   28 ar
    54   27   30 1
    55   28   29 ar
    56   28   61 1
    57   29   62 1
    58   30   31 1
    59   31   36 ar
    60   31   32 ar
    61   32   33 ar
    62   32   63 1
    63   33   34 ar
    64   33   37 1
    65   34   35 ar
    66   35   36 ar
    67   35   64 1
    68   37   38 1
    69   37   65 1
    70   38   66 1
    71   38   67 1
    72   38   68 1
@<TRIPOS>MOLECULE
ZINC23247639
   68    71     0     0     0
SMALL
USER_CHARGES
1-[4-[(4-ethylpiperazin-1-yl)methyl]-3-(trifluoromethyl)phenyl]-3-[4-(6-methylaminopyrimidin-4-yl)oxyphenyl]urea
@<TRIPOS>ATOM
      1 C1          8.9417    3.3719    8.2172 C.3       1 <0>        -0.1510
      2 C2         10.1498    2.9102    7.3997 C.3       1 <0>         0.0499
      3 N1          9.9972    3.3533    6.0075 N.3       1 <0>        -0.5402
      4 C3         11.2367    3.1387    5.2477 C.3       1 <0>         0.0569
      5 C4         11.0629    3.6845    3.8284 C.3       1 <0>         0.0590
      6 N2          9.9288    3.0094    3.1822 N.3       1 <0>        -0.5268
      7 C5          8.6893    3.2240    3.9420 C.3       1 <0>         0.0561
      8 C6          8.8631    2.6781    5.3612 C.3       1 <0>         0.0550
      9 C7          9.7762    3.4524    1.7899 C.3       1 <0>         0.0729
     10 C8          8.7879    2.5601    1.0842 C.ar      1 <0>        -0.0447
     11 C9          7.5022    3.0092    0.8434 C.ar      1 <0>        -0.0942
     12 C10         6.5958    2.1959    0.1923 C.ar      1 <0>        -0.0884
     13 C11         6.9731    0.9214   -0.2106 C.ar      1 <0>         0.1720
     14 C12         8.2646    0.4735    0.0326 C.ar      1 <0>        -0.1038
     15 C13         9.1683    1.2940    0.6793 C.ar      1 <0>        -0.1404
     16 C14        10.5702    0.8086    0.9441 C.3       1 <0>         0.5095
     17 F1         10.7250   -0.4786    0.4184 F         1 <0>        -0.1841
     18 F2         11.4860    1.6739    0.3362 F         1 <0>        -0.1795
     19 F3         10.8008    0.7797    2.3237 F         1 <0>        -0.1519
     20 N3          6.0552    0.0926   -0.8655 N.am      1 <0>        -0.6948
     21 C15         4.7513    0.1311   -0.5266 C.2       1 <0>         0.7096
     22 O1          4.3858    0.8194    0.4067 O.2       1 <0>        -0.5587
     23 N4          3.8526   -0.5934   -1.2222 N.am      1 <0>        -0.6930
     24 C16         2.4863   -0.4790   -0.9335 C.ar      1 <0>         0.1697
     25 C17         1.5516   -0.5518   -1.9576 C.ar      1 <0>        -0.1297
     26 C18         0.2052   -0.4394   -1.6724 C.ar      1 <0>        -0.0930
     27 C19        -0.2137   -0.2543   -0.3628 C.ar      1 <0>         0.0783
     28 C20         0.7198   -0.1815    0.6609 C.ar      1 <0>        -0.0936
     29 C21         2.0665   -0.2932    0.3769 C.ar      1 <0>        -0.1059
     30 O2         -1.5393   -0.1385   -0.0833 O.3       1 <0>        -0.2412
     31 C22        -2.3129   -1.2454   -0.1983 C.ar      1 <0>         0.3851
     32 C23        -3.6894   -1.1637   -0.0277 C.ar      1 <0>        -0.3141
     33 C24        -4.4409   -2.3284   -0.1601 C.ar      1 <0>         0.4620
     34 N5         -3.8165   -3.4721   -0.4341 N.ar      1 <0>        -0.5954
     35 C25        -2.5082   -3.5081   -0.5840 C.ar      1 <0>         0.3753
     36 N6         -1.7644   -2.4263   -0.4707 N.ar      1 <0>        -0.6017
     37 N7         -5.8178   -2.2988   -0.0034 N.pl3     1 <0>        -0.7231
     38 C26        -6.4937   -1.0344    0.2979 C.3       1 <0>         0.0898
     39 H1          9.0560    3.0401    9.2597 H         1 <0>         0.0595
     40 H2          8.0243    2.9380    7.7928 H         1 <0>         0.0547
     41 H3          8.8763    4.4695    8.1868 H         1 <0>         0.0631
     42 H4         11.0672    3.3441    7.8241 H         1 <0>         0.0746
     43 H5         10.2153    1.8126    7.4301 H         1 <0>         0.0335
     44 H6         12.0665    3.6630    5.7442 H         1 <0>         0.0800
     45 H7         11.4577    2.0621    5.2031 H         1 <0>         0.0441
     46 H8         10.8699    4.7665    3.8728 H         1 <0>         0.0445
     47 H9         11.9796    3.4990    3.2494 H         1 <0>         0.0809
     48 H10         8.4684    4.3007    3.9867 H         1 <0>         0.0435
     49 H11         7.8594    2.6998    3.4455 H         1 <0>         0.0808
     50 H12         9.0569    1.5962    5.3178 H         1 <0>         0.0425
     51 H13         7.9470    2.8635    5.9412 H         1 <0>         0.0819
     52 H14         9.4106    4.4897    1.7732 H         1 <0>         0.0550
     53 H15        10.7489    3.3982    1.2791 H         1 <0>         0.0962
     54 H16         7.2082    3.9988    1.1607 H         1 <0>         0.1355
     55 H17         5.5933    2.5489    0.0003 H         1 <0>         0.1427
     56 H18         8.5625   -0.5152   -0.2838 H         1 <0>         0.1409
     57 H19         6.3979   -0.5903   -1.6569 H         1 <0>         0.4343
     58 H20         4.1917   -1.2745   -2.0166 H         1 <0>         0.4332
     59 H21         1.8775   -0.6959   -2.9771 H         1 <0>         0.1323
     60 H22        -0.5220   -0.4960   -2.4689 H         1 <0>         0.1282
     61 H23         0.3932   -0.0371    1.6801 H         1 <0>         0.1328
     62 H24         2.7931   -0.2369    1.1740 H         1 <0>         0.1466
     63 H25        -4.1646   -0.2205    0.1982 H         1 <0>         0.1463
     64 H26        -2.0315   -4.4515   -0.8058 H         1 <0>         0.1996
     65 H27        -6.4030   -3.2246   -0.1053 H         1 <0>         0.4362
     66 H28        -7.5762   -1.2091    0.3856 H         1 <0>         0.0851
     67 H29        -6.3028   -0.3146   -0.5117 H         1 <0>         0.0598
     68 H30        -6.1096   -0.6302    1.2461 H         1 <0>         0.0599
@<TRIPOS>BOND
     1    1    2 1
     2    1   39 1
     3    1   40 1
     4    1   41 1
     5    2    3 1
     6    2   42 1
     7    2   43 1
     8    3    8 1
     9    3    4 1
    10    4    5 1
    11    4   44 1
    12    4   45 1
    13    5    6 1
    14    5   46 1
    15    5   47 1
    16    6    7 1
    17    6    9 1
    18    7    8 1
    19    7   48 1
    20    7   49 1
    21    8   50 1
    22    8   51 1
    23    9   10 1
    24    9   52 1
    25    9   53 1
    26   10   15 ar
    27   10   11 ar
    28   11   12 ar
    29   11   54 1
    30   12   13 ar
    31   12   55 1
    32   13   14 ar
    33   13   20 1
    34   14   15 ar
    35   14   56 1
    36   15   16 1
    37   16   17 1
    38   16   18 1
    39   16   19 1
    40   20   21 am
    41   20   57 1
    42   21   22 2
    43   21   23 am
    44   23   24 1
    45   23   58 1
    46   24   29 ar
    47   24   25 ar
    48   25   26 ar
    49   25   59 1
    50   26   27 ar
    51   26   60 1
    52   27   28 ar
    53   27   30 1
    54   28   29 ar
    55   28   61 1
    56   29   62 1
    57   30   31 1
    58   31   36 ar
    59   31   32 ar
    60   32   33 ar
    61   32   63 1
    62   33   34 ar
    63   33   37 1
    64   34   35 ar
    65   35   36 ar
    66   35   64 1
    67   37   38 1
    68   37   65 1
    69   38   66 1
    70   38   67 1
    71   38   68 1
@<TRIPOS>MOLECULE
ZINC00602803
   57    59     0     0     0
SMALL
USER_CHARGES

@<TRIPOS>ATOM
      1 C1         -1.3402   -4.8618    1.2145 C.3       1 <0>        -0.1534
      2 C2         -0.8181   -3.6495    0.4408 C.3       1 <0>         0.0511
      3 O1         -0.7742   -2.5142    1.3074 O.3       1 <0>        -0.3148
      4 C3         -0.3304   -1.3470    0.7727 C.ar      1 <0>         0.1525
      5 C4          0.0498   -1.3049   -0.5488 C.ar      1 <0>        -0.1831
      6 C5          0.5092   -0.1023   -1.1071 C.ar      1 <0>         0.1876
      7 C6          0.5748    1.0570   -0.2965 C.ar      1 <0>        -0.1304
      8 C7          0.1883    0.9932    1.0499 C.ar      1 <0>        -0.0592
      9 C8         -0.2650   -0.1967    1.5740 C.ar      1 <0>         0.1185
     10 N1         -0.6575   -0.2608    2.9161 N.am      1 <0>        -0.6449
     11 C9         -0.1566    0.6173    3.8075 C.2       1 <0>         0.5328
     12 O2          0.7152    1.3957    3.4703 O.2       1 <0>        -0.5071
     13 C10        -0.6641    0.6344    5.1877 C.2       1 <0>        -0.1271
     14 C11        -0.1697    1.5011    6.0673 C.2       1 <0>        -0.1492
     15 C12        -0.6897    1.5186    7.4817 C.3       1 <0>         0.0302
     16 C13         1.3312    2.5206    8.3617 C.3       1 <0>        -0.0486
     17 C14        -0.0528    1.1357    9.7861 C.3       1 <0>        -0.0433
     18 C15         1.0386    2.2666   -0.8642 C.ar      1 <0>         0.2844
     19 C16         1.4144    2.2536   -2.2161 C.ar      1 <0>        -0.1029
     20 C17         1.3165    1.0573   -2.9447 C.ar      1 <0>         0.2010
     21 N2          0.8834   -0.0478   -2.3940 N.ar      1 <0>        -0.4743
     22 C18         1.8922    3.4476   -2.8459 C.1       1 <0>         0.2469
     23 N3          2.2712    4.3948   -3.3456 N.1       1 <0>        -0.3851
     24 N4          1.1194    3.4219   -0.1130 N.pl3     1 <0>        -0.6979
     25 C19         2.3677    3.9814    0.1773 C.ar      1 <0>         0.1846
     26 C20         3.4715    3.1592    0.3659 C.ar      1 <0>        -0.1231
     27 C21         4.7048    3.7137    0.6463 C.ar      1 <0>        -0.1069
     28 C22         4.8398    5.0877    0.7520 C.ar      1 <0>         0.0844
     29 C23         3.7394    5.9099    0.5700 C.ar      1 <0>        -0.0407
     30 C24         2.5044    5.3592    0.2831 C.ar      1 <0>        -0.1222
     31 Cl1         3.9119    7.6322    0.7020 Cl        1 <0>        -0.0373
     32 F1          6.0462    5.6274    1.0324 F         1 <0>        -0.1244
     33 H1         -2.3423   -4.6506    1.5877 H         1 <0>         0.0676
     34 H2         -1.3737   -5.7279    0.5535 H         1 <0>         0.0859
     35 H3         -0.6765   -5.0706    2.0536 H         1 <0>         0.0665
     36 H4         -1.4818   -3.4407   -0.3983 H         1 <0>         0.0727
     37 H5          0.1840   -3.8607    0.0676 H         1 <0>         0.0719
     38 H6         -0.0049   -2.1965   -1.1558 H         1 <0>         0.1557
     39 H7          0.2375    1.8756    1.6707 H         1 <0>         0.1646
     40 H8         -1.2900   -0.9373    3.2047 H         1 <0>         0.4221
     41 H9         -1.4381   -0.0567    5.4870 H         1 <0>         0.1454
     42 H10         0.6043    2.1922    5.7680 H         1 <0>         0.1533
     43 H11        -1.1915    2.4672    7.6726 H         1 <0>         0.1468
     44 H12        -1.3959    0.6999    7.6193 H         1 <0>         0.1366
     45 H13         0.7789    3.4221    8.6269 H         1 <0>         0.1257
     46 H14         2.1523    2.3777    9.0642 H         1 <0>         0.1250
     47 H15         1.7302    2.6227    7.3524 H         1 <0>         0.1232
     48 H16        -0.6601    0.2309    9.8124 H         1 <0>         0.1226
     49 H17         0.7976    1.0222   10.4584 H         1 <0>         0.1252
     50 H18        -0.6553    1.9870   10.1029 H         1 <0>         0.1250
     51 H19         1.6056    1.0492   -3.9853 H         1 <0>         0.1765
     52 H20         0.3102    3.8456    0.2136 H         1 <0>         0.4201
     53 H21         3.3660    2.0871    0.2888 H         1 <0>         0.1375
     54 H22         5.5639    3.0747    0.7881 H         1 <0>         0.1500
     55 H23         1.6466    6.0000    0.1416 H         1 <0>         0.1457
     56 N5          0.4465    1.3376    8.4096 N.4       1 <0>        -0.3970
     57 H24         0.9816    0.5092    8.1241 H         1 <0>         0.4334
@<TRIPOS>BOND
     1    1    2 1
     2    1   33 1
     3    1   34 1
     4    1   35 1
     5    2    3 1
     6    2   36 1
     7    2   37 1
     8    3    4 1
     9    4    9 ar
    10    4    5 ar
    11    5    6 ar
    12    5   38 1
    13    6   21 ar
    14    6    7 ar
    15    7    8 ar
    16    7   18 ar
    17    8    9 ar
    18    8   39 1
    19    9   10 1
    20   10   11 am
    21   10   40 1
    22   11   12 2
    23   11   13 1
    24   13   14 2
    25   13   41 1
    26   14   15 1
    27   14   42 1
    28   15   43 1
    29   15   44 1
    30   15   56 1
    31   16   45 1
    32   16   46 1
    33   16   47 1
    34   16   56 1
    35   17   48 1
    36   17   49 1
    37   17   50 1
    38   17   56 1
    39   18   19 ar
    40   18   24 1
    41   19   20 ar
    42   19   22 1
    43   20   21 ar
    44   20   51 1
    45   22   23 3
    46   24   25 1
    47   24   52 1
    48   25   30 ar
    49   25   26 ar
    50   26   27 ar
    51   26   53 1
    52   27   28 ar
    53   27   54 1
    54   28   29 ar
    55   28   32 1
    56   29   30 ar
    57   29   31 1
    58   30   55 1
    59   56   57 1
@<TRIPOS>MOLECULE
ZINC04335977
   25    28     0     0     0
SMALL
USER_CHARGES

@<TRIPOS>ATOM
      1 C1         -0.0166    1.3742    0.0096 C.ar      1 <0>        -0.0830
      2 C2          1.1706    2.0916    0.0021 C.ar      1 <0>        -0.1243
      3 C3          2.3823    1.4397   -0.0153 C.ar      1 <0>        -0.0569
      4 C4          2.4281    0.0410   -0.0258 C.ar      1 <0>        -0.1454
      5 C5          1.2170   -0.6851   -0.0143 C.ar      1 <0>         0.0500
      6 C6          0.0021   -0.0041    0.0020 C.ar      1 <0>        -0.1088
      7 C7          1.2506   -2.1591   -0.0199 C.2       1 <0>         0.0730
      8 C8          2.5639   -2.7742   -0.0443 C.ar      1 <0>        -0.1429
      9 C9          3.7793   -2.1038   -0.0604 C.ar      1 <0>        -0.1081
     10 C10         4.9294   -2.8876   -0.0855 C.ar      1 <0>        -0.0580
     11 C11         4.7889   -4.2709   -0.0911 C.ar      1 <0>        -0.1027
     12 C12         3.5603   -4.9095   -0.0724 C.ar      1 <0>        -0.0703
     13 C13         2.3922   -4.1530   -0.0476 C.ar      1 <0>         0.0737
     14 N1          1.0342   -4.3134   -0.0236 N.pl3     1 <0>        -0.4208
     15 H1          0.5868   -5.1740   -0.0178 H         1 <0>         0.4498
     16 N2          0.4180   -3.1700   -0.0087 N.2       1 <0>        -0.2006
     17 C14         3.7440   -0.6349   -0.0491 C.2       1 <0>         0.4424
     18 O1          4.7754    0.0120   -0.0592 O.2       1 <0>        -0.4413
     19 H2         -0.9607    1.8984    0.0260 H         1 <0>         0.1352
     20 H3          1.1437    3.1712    0.0097 H         1 <0>         0.1350
     21 H4          3.3001    2.0089   -0.0212 H         1 <0>         0.1415
     22 H5         -0.9260   -0.5563    0.0084 H         1 <0>         0.1375
     23 H6          5.9084   -2.4317   -0.1006 H         1 <0>         0.1458
     24 H7          5.6823   -4.8774   -0.1113 H         1 <0>         0.1405
     25 H8          3.5088   -5.9882   -0.0775 H         1 <0>         0.1387
@<TRIPOS>BOND
     1    1    6 ar
     2    1    2 ar
     3    1   19 1
     4    2    3 ar
     5    2   20 1
     6    3    4 ar
     7    3   21 1
     8    4   17 1
     9    4    5 ar
    10    5    6 ar
    11    5    7 1
    12    6   22 1
    13    7   16 2
    14    7    8 1
    15    8   13 ar
    16    8    9 ar
    17    9   10 ar
    18    9   17 1
    19   10   11 ar
    20   10   23 1
    21   11   12 ar
    22   11   24 1
    23   12   13 ar
    24   12   25 1
    25   13   14 1
    26   14   15 1
    27   14   16 1
    28   17   18 2
@<TRIPOS>MOLECULE
ZINC04335977
   25    28     0     0     0
SMALL
USER_CHARGES

@<TRIPOS>ATOM
      1 C1         -0.0168    1.3856    0.0097 C.ar      1 <0>        -0.1427
      2 C2          1.1170    2.1945    0.0032 C.ar      1 <0>        -0.0217
      3 C3          2.3711    1.6150   -0.0018 C.ar      1 <0>        -0.1545
      4 C4          2.3811    0.2055    0.0219 C.ar      1 <0>        -0.1284
      5 C5          1.2547   -0.6338   -0.0010 C.ar      1 <0>        -0.0019
      6 C6          0.0021   -0.0041    0.0020 C.ar      1 <0>        -0.0002
      7 N1          1.7529   -1.8663   -0.0388 N.2       1 <0>        -0.2064
      8 N2          3.0585   -1.8827   -0.0212 N.2       1 <0>        -0.1750
      9 C7          3.5637   -0.6566    0.0553 C.2       1 <0>        -0.0804
     10 C8          4.8090   -0.0488    0.2082 C.2       1 <0>         0.1832
     11 C9          5.9893   -0.7697    0.0663 C.2       1 <0>        -0.1794
     12 C10         7.1922   -0.1305    0.0279 C.2       1 <0>         0.0175
     13 C11         7.2645    1.2786    0.0514 C.2       1 <0>        -0.1580
     14 C12         6.1810    2.0262    0.2746 C.2       1 <0>        -0.0648
     15 C13         4.8472    1.4205    0.5359 C.3       1 <0>        -0.1143
     16 H1          4.7113    1.4792    1.6158 H         1 <0>         0.1756
     17 C14         3.7065    2.2205   -0.0350 C.2       1 <0>         0.4372
     18 O1          3.8852    3.3247   -0.5044 O.2       1 <0>        -0.4218
     19 H2         -0.9802    1.8735    0.0262 H         1 <0>         0.1380
     20 H3          1.0162    3.2698    0.0017 H         1 <0>         0.1414
     21 H4         -0.9134   -0.5771   -0.0011 H         1 <0>         0.1493
     22 H5          5.9525   -1.8461   -0.0139 H         1 <0>         0.1574
     23 H6          8.1023   -0.7101   -0.0209 H         1 <0>         0.1503
     24 H7          8.2158    1.7622   -0.1141 H         1 <0>         0.1476
     25 H8          6.2755    3.1020    0.2656 H         1 <0>         0.1520
@<TRIPOS>BOND
     1    1    6 ar
     2    1    2 ar
     3    1   19 1
     4    2    3 ar
     5    2   20 1
     6    3   17 1
     7    3    4 ar
     8    4    9 1
     9    4    5 ar
    10    5    6 ar
    11    5    7 1
    12    6   21 1
    13    7    8 2
    14    8    9 1
    15    9   10 2
    16   10   15 1
    17   10   11 1
    18   11   12 2
    19   11   22 1
    20   12   13 1
    21   12   23 1
    22   13   14 2
    23   13   24 1
    24   14   15 1
    25   14   25 1
    26   15   16 1
    27   15   17 1
    28   17   18 2
@<TRIPOS>MOLECULE
ZINC04335977
   25    28     0     0     0
SMALL
USER_CHARGES

@<TRIPOS>ATOM
      1 C1         -0.0164    1.3596    0.0095 C.ar      1 <0>        -0.0576
      2 C2          1.1713    2.0855    0.0021 C.ar      1 <0>        -0.1347
      3 C3          2.3768    1.4549   -0.0120 C.ar      1 <0>        -0.0679
      4 C4          2.4386    0.0472   -0.0213 C.ar      1 <0>        -0.1308
      5 C5          1.2221   -0.6871   -0.0140 C.ar      1 <0>         0.1082
      6 C6          0.0021   -0.0041    0.0020 C.ar      1 <0>        -0.1288
      7 C7          1.2623   -2.1488   -0.0253 C.ar      1 <0>        -0.0283
      8 C8          2.5333   -2.7124   -0.0445 C.ar      1 <0>        -0.1739
      9 C9          3.7767   -1.9860   -0.0536 C.ar      1 <0>        -0.1204
     10 C10         3.7083   -0.5824   -0.0381 C.ar      1 <0>         0.2929
     11 O1          4.8379    0.1571   -0.0391 O.3       1 <0>        -0.4795
     12 C11         4.9469   -2.7593   -0.0757 C.ar      1 <0>         0.0289
     13 C12         4.8276   -4.1389   -0.0827 C.ar      1 <0>        -0.1839
     14 C13         3.6180   -4.8159   -0.0703 C.ar      1 <0>         0.1011
     15 C14         2.4158   -4.1083   -0.0517 C.ar      1 <0>        -0.0377
     16 N1          1.0921   -4.3196   -0.0378 N.2       1 <0>        -0.2189
     17 N2          0.4367   -3.1958   -0.0225 N.2       1 <0>        -0.1913
     18 H1         -0.9619    1.8814    0.0259 H         1 <0>         0.1383
     19 H2          1.1354    3.1649    0.0072 H         1 <0>         0.1360
     20 H3          3.2881    2.0345   -0.0163 H         1 <0>         0.1414
     21 H4         -0.9259   -0.5566    0.0089 H         1 <0>         0.1451
     22 H5          5.9191   -2.2892   -0.0875 H         1 <0>         0.1508
     23 H6          5.7348   -4.7247   -0.0991 H         1 <0>         0.1453
     24 H7          3.6062   -5.8959   -0.0754 H         1 <0>         0.1485
     25 H8          5.1739    0.3631    0.8439 H         1 <0>         0.4170
@<TRIPOS>BOND
     1    1    6 ar
     2    1    2 ar
     3    1   18 1
     4    2    3 ar
     5    2   19 1
     6    3    4 ar
     7    3   20 1
     8    4   10 ar
     9    4    5 ar
    10    5    6 ar
    11    5    7 ar
    12    6   21 1
    13    7   17 1
    14    7    8 ar
    15    8   15 ar
    16    8    9 ar
    17    9   10 ar
    18    9   12 ar
    19   10   11 1
    20   11   25 1
    21   12   13 ar
    22   12   22 1
    23   13   14 ar
    24   13   23 1
    25   14   15 ar
    26   14   24 1
    27   15   16 1
    28   16   17 2
@<TRIPOS>MOLECULE
ZINC04335977
   25    28     0     0     0
SMALL
USER_CHARGES

@<TRIPOS>ATOM
      1 C1         -0.0166    1.3716    0.0096 C.ar      1 <0>        -0.0800
      2 C2          1.1708    2.0918    0.0021 C.ar      1 <0>        -0.1245
      3 C3          2.3828    1.4428   -0.0127 C.ar      1 <0>        -0.0544
      4 C4          2.4320    0.0434   -0.0205 C.ar      1 <0>        -0.1405
      5 C5          1.2210   -0.6886   -0.0124 C.ar      1 <0>         0.0405
      6 C6          0.0021   -0.0041    0.0020 C.ar      1 <0>        -0.1261
      7 C7          1.2457   -2.1536   -0.0208 C.2       1 <0>         0.0504
      8 C8          2.4853   -2.7488   -0.0355 C.ar      1 <0>        -0.1585
      9 C9          3.7667   -2.0921   -0.0444 C.ar      1 <0>        -0.1299
     10 C10         4.8847   -2.9128   -0.0585 C.ar      1 <0>        -0.0238
     11 C11         4.7118   -4.2966   -0.0633 C.ar      1 <0>        -0.1212
     12 C12         3.5050   -4.9362   -0.0556 C.ar      1 <0>        -0.0231
     13 C13         2.3094   -4.1914   -0.0406 C.ar      1 <0>         0.0660
     14 N1          0.9988   -4.3425   -0.0297 N.2       1 <0>        -0.2551
     15 H1         -0.5846   -3.1031   -0.0098 H         1 <0>         0.4487
     16 N2          0.3807   -3.1981   -0.0186 N.pl3     1 <0>        -0.3308
     17 C14         3.7519   -0.6254   -0.0360 C.2       1 <0>         0.4405
     18 O1          4.7871    0.0179   -0.0431 O.2       1 <0>        -0.4447
     19 H2         -0.9611    1.8950    0.0259 H         1 <0>         0.1352
     20 H3          1.1418    3.1714    0.0076 H         1 <0>         0.1359
     21 H4          3.2994    2.0140   -0.0187 H         1 <0>         0.1430
     22 H5         -0.9262   -0.5560    0.0082 H         1 <0>         0.1296
     23 H6          5.8766   -2.4856   -0.0660 H         1 <0>         0.1446
     24 H7          5.6007   -4.9099   -0.0744 H         1 <0>         0.1377
     25 H8          3.4673   -6.0156   -0.0604 H         1 <0>         0.1406
@<TRIPOS>BOND
     1    1    6 ar
     2    1    2 ar
     3    1   19 1
     4    2    3 ar
     5    2   20 1
     6    3    4 ar
     7    3   21 1
     8    4   17 1
     9    4    5 ar
    10    5    6 ar
    11    5    7 1
    12    6   22 1
    13    7    8 2
    14    7   16 1
    15    8    9 ar
    16    8   13 ar
    17    9   10 ar
    18    9   17 1
    19   10   11 ar
    20   10   23 1
    21   11   12 ar
    22   11   24 1
    23   12   13 ar
    24   12   25 1
    25   13   14 2
    26   14   16 1
    27   15   16 1
    28   17   18 2
@<TRIPOS>MOLECULE
ZINC03874586
   26    28     0     0     0
SMALL
USER_CHARGES
(3Z)-3-(1H-pyrrol-2-ylmethylene)indolin-2-one
@<TRIPOS>ATOM
      1 C1          7.0447    1.1800   -0.4427 C.ar      1 <0>        -0.1433
      2 C2          7.6417    2.4276   -0.5186 C.ar      1 <0>        -0.0761
      3 C3          6.8792    3.5765   -0.4637 C.ar      1 <0>        -0.1404
      4 C4          5.4975    3.4914   -0.3312 C.ar      1 <0>         0.1515
      5 C5          4.8971    2.2272   -0.2552 C.ar      1 <0>        -0.1173
      6 C6          5.6749    1.0750   -0.3114 C.ar      1 <0>        -0.0565
      7 C7          3.4426    2.4639   -0.1215 C.2       1 <0>        -0.1358
      8 C8          2.4433    1.5157   -0.0127 C.2       1 <0>         0.0467
      9 C9          1.1118    1.9181    0.2193 C.2       1 <0>        -0.0015
     10 C10         0.1329    2.1100   -0.7436 C.2       1 <0>        -0.1517
     11 C11        -1.0261    2.5088   -0.0753 C.2       1 <0>        -0.1986
     12 C12        -0.7515    2.5460    1.2525 C.2       1 <0>         0.0006
     13 N1          0.5443    2.1928    1.4450 N.pl3     1 <0>        -0.5342
     14 H1          0.9957    2.1416    2.3021 H         1 <0>         0.4138
     15 C13         3.2904    3.9244   -0.1359 C.2       1 <0>         0.5524
     16 O1          2.2396    4.5354   -0.0532 O.2       1 <0>        -0.4793
     17 N2          4.5133    4.4689   -0.2532 N.am      1 <0>        -0.6582
     18 H2          7.6521    0.2880   -0.4867 H         1 <0>         0.1321
     19 H3          8.7142    2.5019   -0.6212 H         1 <0>         0.1333
     20 H4          7.3563    4.5435   -0.5243 H         1 <0>         0.1293
     21 H5          5.2087    0.1026   -0.2529 H         1 <0>         0.1304
     22 H6          2.6820    0.4665   -0.1053 H         1 <0>         0.1464
     23 H7          0.2468    1.9801   -1.8097 H         1 <0>         0.1362
     24 H8         -1.9750    2.7438   -0.5344 H         1 <0>         0.1371
     25 H9         -1.4501    2.8169    2.0303 H         1 <0>         0.1648
     26 H10         4.6864    5.4228   -0.2844 H         1 <0>         0.4184
@<TRIPOS>BOND
     1    1    6 ar
     2    1    2 ar
     3    1   18 1
     4    2    3 ar
     5    2   19 1
     6    3    4 ar
     7    3   20 1
     8    4   17 1
     9    4    5 ar
    10    5    6 ar
    11    5    7 1
    12    6   21 1
    13    7    8 2
    14    7   15 1
    15    8    9 1
    16    8   22 1
    17    9   13 1
    18    9   10 2
    19   10   11 1
    20   10   23 1
    21   11   12 2
    22   11   24 1
    23   12   13 1
    24   12   25 1
    25   13   14 1
    26   15   16 2
    27   15   17 am
    28   17   26 1
@<TRIPOS>MOLECULE
ZINC03812168
   64    69     0     0     0
SMALL
USER_CHARGES
dimethylaminomethylBLAHdione
@<TRIPOS>ATOM
      1 C1         -3.6591   -3.4932   -0.5238 C.3       1 <0>        -0.0551
      2 C2         -2.4926   -2.9550   -2.5762 C.3       1 <0>        -0.0445
      3 C3         -2.6578   -1.3072   -0.8098 C.3       1 <0>        -0.0358
      4 C4         -2.4673   -1.1012    0.6860 C.3       1 <0>         0.0654
      5 H1         -3.1645   -1.7751    1.2185 H         1 <0>         0.0947
      6 C5         -2.7230    0.3270    1.1457 C.3       1 <0>        -0.1345
      7 C6         -2.5225    1.3892    0.0793 C.3       1 <0>         0.1021
      8 N1         -1.1339    1.8402    0.0096 N.pl3     1 <0>        -0.4782
      9 C7         -0.0126    1.0747    0.0080 C.2       1 <0>         0.0759
     10 C8          1.1009    1.8532    0.0015 C.2       1 <0>        -0.1124
     11 C9          0.6150    3.2557   -0.0375 C.ar      1 <0>        -0.0829
     12 C10        -0.7846    3.1777   -0.0610 C.ar      1 <0>         0.0902
     13 C11        -1.5354    4.3459   -0.1576 C.ar      1 <0>        -0.1369
     14 C12        -0.9089    5.5725   -0.1941 C.ar      1 <0>        -0.0870
     15 C13         0.4756    5.6497   -0.1263 C.ar      1 <0>        -0.1387
     16 C14         1.2312    4.5008   -0.0317 C.ar      1 <0>        -0.0542
     17 C15         2.5293    1.4989    0.0288 C.2       1 <0>        -0.0575
     18 C16         3.2121    0.4058    0.5546 C.2       1 <0>        -0.0318
     19 C17         2.7061   -0.7744    1.2787 C.2       1 <0>        -0.1258
     20 C18         1.4206   -1.0272    1.6582 C.2       1 <0>         0.1002
     21 N2          1.3169   -2.2819    2.1682 N.pl3     1 <0>        -0.4767
     22 C19         2.5720   -2.8515    2.2654 C.ar      1 <0>         0.0850
     23 C20         3.5031   -1.9214    1.7684 C.ar      1 <0>        -0.0774
     24 C21         4.8560   -2.2219    1.8708 C.ar      1 <0>        -0.0704
     25 C22         5.2705   -3.4529    2.3343 C.ar      1 <0>        -0.1401
     26 C23         4.3436   -4.3996    2.7389 C.ar      1 <0>        -0.0882
     27 C24         3.0009   -4.0952    2.7142 C.ar      1 <0>        -0.1389
     28 C25         0.0751   -2.9597    2.5494 C.3       1 <0>         0.1083
     29 C26        -0.9464   -2.8428    1.4151 C.3       1 <0>         0.0261
     30 O1         -1.1329   -1.4683    1.0718 O.3       1 <0>        -0.3787
     31 C27         4.6407    0.6399    0.2297 C.2       1 <0>         0.5576
     32 O2          5.5801   -0.0982    0.4313 O.2       1 <0>        -0.4501
     33 N3          4.7726    1.8285   -0.3761 N.am      1 <0>        -0.6884
     34 C28         3.5684    2.3701   -0.5773 C.2       1 <0>         0.5496
     35 O3          3.3676    3.4021   -1.1909 O.2       1 <0>        -0.4507
     36 H2         -4.6064   -3.1194   -0.9125 H         1 <0>         0.1320
     37 H3         -3.5558   -4.5494   -0.7723 H         1 <0>         0.1292
     38 H4         -3.6371   -3.3709    0.5591 H         1 <0>         0.1176
     39 H5         -1.6226   -2.4415   -2.9853 H         1 <0>         0.1242
     40 H6         -2.4140   -4.0227   -2.7812 H         1 <0>         0.1266
     41 H7         -3.3976   -2.5618   -3.0392 H         1 <0>         0.1281
     42 H8         -3.6420   -0.9427   -1.1043 H         1 <0>         0.1512
     43 H9         -1.8892   -0.7576   -1.3530 H         1 <0>         0.1401
     44 H10        -3.7581    0.3948    1.5248 H         1 <0>         0.1133
     45 H11        -2.0693    0.5478    1.9998 H         1 <0>         0.1111
     46 H12        -2.8851    1.1097   -0.8943 H         1 <0>         0.0847
     47 H13        -3.1227    2.2722    0.3811 H         1 <0>         0.1001
     48 H14         0.0021   -0.0041    0.0020 H         1 <0>         0.1790
     49 H15        -2.6150    4.2937   -0.2077 H         1 <0>         0.1188
     50 H16        -1.4958    6.4773   -0.2780 H         1 <0>         0.1308
     51 H17         0.9608    6.6157   -0.1385 H         1 <0>         0.1284
     52 H18         2.3072    4.5814    0.0562 H         1 <0>         0.1320
     53 H19         0.6104   -0.3170    1.5917 H         1 <0>         0.1871
     54 H20         5.6126   -1.4944    1.6337 H         1 <0>         0.1514
     55 H21         6.3257   -3.6782    2.3787 H         1 <0>         0.1280
     56 H22         4.6724   -5.3687    3.0799 H         1 <0>         0.1300
     57 H23         2.2783   -4.8297    3.0422 H         1 <0>         0.1175
     58 H24         0.2774   -4.0129    2.7458 H         1 <0>         0.1169
     59 H25        -0.3264   -2.4933    3.4522 H         1 <0>         0.0971
     60 H26        -0.5876   -3.3893    0.5423 H         1 <0>         0.0664
     61 H27        -1.8985   -3.2659    1.7424 H         1 <0>         0.0864
     62 H28         5.6204    2.2247   -0.6318 H         1 <0>         0.4332
     63 N4         -2.5268   -2.7479   -1.1131 N.4       1 <0>        -0.4048
     64 H29        -1.6507   -3.0961   -0.7064 H         1 <0>         0.4232
@<TRIPOS>BOND
     1    1   36 1
     2    1   37 1
     3    1   38 1
     4    1   63 1
     5    2   39 1
     6    2   40 1
     7    2   41 1
     8    2   63 1
     9    3    4 1
    10    3   42 1
    11    3   43 1
    12    3   63 1
    13    4    5 1
    14    4   30 1
    15    4    6 1
    16    6    7 1
    17    6   44 1
    18    6   45 1
    19    7    8 1
    20    7   46 1
    21    7   47 1
    22    8   12 1
    23    8    9 1
    24    9   10 2
    25    9   48 1
    26   10   11 1
    27   10   17 1
    28   11   16 ar
    29   11   12 ar
    30   12   13 ar
    31   13   14 ar
    32   13   49 1
    33   14   15 ar
    34   14   50 1
    35   15   16 ar
    36   15   51 1
    37   16   52 1
    38   17   34 1
    39   17   18 2
    40   18   19 1
    41   18   31 1
    42   19   23 1
    43   19   20 2
    44   20   21 1
    45   20   53 1
    46   21   22 1
    47   21   28 1
    48   22   27 ar
    49   22   23 ar
    50   23   24 ar
    51   24   25 ar
    52   24   54 1
    53   25   26 ar
    54   25   55 1
    55   26   27 ar
    56   26   56 1
    57   27   57 1
    58   28   29 1
    59   28   58 1
    60   28   59 1
    61   29   30 1
    62   29   60 1
    63   29   61 1
    64   31   32 2
    65   31   33 am
    66   33   34 am
    67   33   62 1
    68   34   35 2
    69   63   64 1
