@<TRIPOS>MOLECULE
ZINC03814434
   62    69     0     0     0
SMALL
USER_CHARGES

@<TRIPOS>ATOM
      1 C1         -0.1295    1.5952   -0.2973 C.3       1 <0>        -0.1687
      2 C2         -0.0862    0.0696   -0.1900 C.3       1 <0>         0.3342
      3 C3          0.5692   -0.4501   -1.4637 C.3       1 <0>         0.0405
      4 H1          1.4796    0.1159   -1.6612 H         1 <0>         0.1372
      5 C4          0.9167   -1.9328   -1.2889 C.3       1 <0>        -0.0061
      6 H2          1.3963   -2.3075   -2.1932 H         1 <0>         0.1555
      7 C5          1.8785   -2.0596   -0.1021 C.3       1 <0>        -0.1827
      8 C6          1.2061   -1.5198    1.1541 C.3       1 <0>         0.2999
      9 H3          1.9797   -1.4243    1.9161 H         1 <0>         0.1550
     10 O1          0.6555   -0.2442    0.9666 O.3       1 <0>        -0.3234
     11 N1          0.2189   -2.4746    1.6600 N.pl3     1 <0>        -0.5366
     12 C7          0.4705   -3.5508    2.4739 C.ar      1 <0>         0.1469
     13 C8          1.6649   -4.0152    3.0240 C.ar      1 <0>        -0.1522
     14 C9          1.5948   -5.1456    3.8201 C.ar      1 <0>        -0.0582
     15 C10         0.4006   -5.7997    4.0696 C.ar      1 <0>        -0.1457
     16 C11        -0.7984   -5.3597    3.5358 C.ar      1 <0>        -0.0280
     17 C12        -0.7487   -4.2198    2.7307 C.ar      1 <0>        -0.1131
     18 C13        -1.7893   -3.4830    2.0197 C.ar      1 <0>         0.0276
     19 C14        -1.1442   -2.4197    1.3841 C.ar      1 <0>         0.0376
     20 C15        -1.8806   -1.5095    0.6175 C.ar      1 <0>         0.0894
     21 N2         -1.4718   -0.3951   -0.1095 N.pl3     1 <0>        -0.5183
     22 C16        -2.5611    0.1913   -0.7090 C.ar      1 <0>         0.1618
     23 C17        -2.6521    1.3277   -1.5118 C.ar      1 <0>        -0.1305
     24 C18        -3.9109    1.6745   -1.9733 C.ar      1 <0>        -0.0737
     25 C19        -5.0393    0.9368   -1.6616 C.ar      1 <0>        -0.1358
     26 C20        -4.9745   -0.1955   -0.8662 C.ar      1 <0>        -0.0503
     27 C21        -3.7147   -0.5596   -0.3919 C.ar      1 <0>        -0.1042
     28 C22        -3.2693   -1.6660    0.4845 C.ar      1 <0>        -0.0360
     29 C23        -3.9084   -2.7313    1.1102 C.ar      1 <0>        -0.0288
     30 C24        -3.1873   -3.6421    1.8754 C.ar      1 <0>        -0.1255
     31 C25        -4.1221   -4.6480    2.4030 C.2       1 <0>         0.5632
     32 O2         -3.8062   -5.5851    3.1110 O.2       1 <0>        -0.5106
     33 N3         -5.3744   -4.3851    1.9926 N.am      1 <0>        -0.7162
     34 C26        -5.3495   -3.1771    1.1601 C.3       1 <0>         0.1358
     35 N4         -0.3067   -2.7008   -1.0216 N.4       1 <0>        -0.5252
     36 C27         0.0145   -4.1336   -0.9773 C.3       1 <0>        -0.0497
     37 O3         -0.3340   -0.2979   -2.5607 O.3       1 <0>        -0.3614
     38 C28         0.3101   -0.0933   -3.8198 C.3       1 <0>         0.0162
     39 H4          0.8261    2.0094    0.0240 H         1 <0>         0.0984
     40 H5         -0.3202    1.8814   -1.3317 H         1 <0>         0.1036
     41 H6         -0.9255    1.9818    0.3392 H         1 <0>         0.0921
     42 H7          2.1370   -3.1081    0.0458 H         1 <0>         0.1233
     43 H8          2.7835   -1.4869   -0.3048 H         1 <0>         0.1455
     44 H9          2.6036   -3.5149    2.8368 H         1 <0>         0.1365
     45 H10         2.5026   -5.5304    4.2610 H         1 <0>         0.1359
     46 H11         0.4045   -6.6780    4.6980 H         1 <0>         0.1352
     47 H12        -1.7278   -5.8736    3.7323 H         1 <0>         0.1600
     48 H13        -1.7792    1.9122   -1.7624 H         1 <0>         0.1440
     49 H14        -4.0153    2.5500   -2.5970 H         1 <0>         0.1336
     50 H15        -5.9967    1.2527   -2.0488 H         1 <0>         0.1332
     51 H16        -5.8575   -0.7687   -0.6249 H         1 <0>         0.1415
     52 H17        -6.1628   -4.9065    2.2103 H         1 <0>         0.4348
     53 H18        -5.9671   -2.3994    1.6094 H         1 <0>         0.1115
     54 H19        -5.7060   -3.4063    0.1559 H         1 <0>         0.1103
     55 H20        -0.6958   -2.4158   -0.1353 H         1 <0>         0.4186
     56 H21         0.4349   -4.4415   -1.9347 H         1 <0>         0.1256
     57 H22         0.7403   -4.3189   -0.1854 H         1 <0>         0.1191
     58 H23        -0.8932   -4.7035   -0.7789 H         1 <0>         0.1256
     59 H24         0.9168    0.8112   -3.7748 H         1 <0>         0.0633
     60 H25         0.9482   -0.9479   -4.0446 H         1 <0>         0.0514
     61 H26        -0.4433    0.0130   -4.6003 H         1 <0>         0.1100
     62 H27        -0.9785   -2.5293   -1.7546 H         1 <0>         0.4274
@<TRIPOS>BOND
     1    1    2 1
     2    1   39 1
     3    1   40 1
     4    1   41 1
     5    2   10 1
     6    2   21 1
     7    2    3 1
     8    3    4 1
     9    3    5 1
    10    3   37 1
    11    5    6 1
    12    5    7 1
    13    5   35 1
    14    7    8 1
    15    7   42 1
    16    7   43 1
    17    8    9 1
    18    8   10 1
    19    8   11 1
    20   11   19 1
    21   11   12 1
    22   12   17 ar
    23   12   13 ar
    24   13   14 ar
    25   13   44 1
    26   14   15 ar
    27   14   45 1
    28   15   16 ar
    29   15   46 1
    30   16   17 ar
    31   16   47 1
    32   17   18 1
    33   18   30 ar
    34   18   19 ar
    35   19   20 ar
    36   20   28 ar
    37   20   21 1
    38   21   22 1
    39   22   27 ar
    40   22   23 ar
    41   23   24 ar
    42   23   48 1
    43   24   25 ar
    44   24   49 1
    45   25   26 ar
    46   25   50 1
    47   26   27 ar
    48   26   51 1
    49   27   28 1
    50   28   29 ar
    51   29   34 1
    52   29   30 ar
    53   30   31 1
    54   31   32 2
    55   31   33 am
    56   33   34 1
    57   33   52 1
    58   34   53 1
    59   34   54 1
    60   35   36 1
    61   35   55 1
    62   35   62 1
    63   36   56 1
    64   36   57 1
    65   36   58 1
    66   37   38 1
    67   38   59 1
    68   38   60 1
    69   38   61 1
@<TRIPOS>MOLECULE
ZINC02560264
   37    42     0     0     0
SMALL
USER_CHARGES

@<TRIPOS>ATOM
      1 C1         -0.0166    1.3740    0.0096 C.ar      1 <0>        -0.1440
      2 C2          1.1716    2.0886    0.0021 C.ar      1 <0>        -0.0817
      3 C3          2.3839    1.4333   -0.0130 C.ar      1 <0>        -0.1381
      4 C4          2.4234    0.0421   -0.0208 C.ar      1 <0>         0.1368
      5 C5          1.2204   -0.6789   -0.0132 C.ar      1 <0>        -0.0962
      6 C6          0.0021   -0.0041    0.0020 C.ar      1 <0>        -0.0609
      7 C7          1.5891   -2.1077   -0.0244 C.ar      1 <0>        -0.0649
      8 C8          0.8454   -3.2819   -0.0236 C.ar      1 <0>        -0.0450
      9 C9          1.4816   -4.5185   -0.0365 C.ar      1 <0>        -0.1358
     10 C10         2.8940   -4.5714   -0.0501 C.ar      1 <0>        -0.0059
     11 C11         3.8569   -5.6841   -0.0662 C.ar      1 <0>        -0.1090
     12 C12         3.7202   -7.0720   -0.0736 C.ar      1 <0>        -0.0448
     13 C13         4.8431   -7.8694   -0.0897 C.ar      1 <0>        -0.1554
     14 C14         6.1070   -7.2977   -0.0979 C.ar      1 <0>        -0.0739
     15 C15         6.2575   -5.9282   -0.0907 C.ar      1 <0>        -0.1504
     16 C16         5.1356   -5.1043   -0.0750 C.ar      1 <0>         0.1441
     17 N1          4.9880   -3.7311   -0.0653 N.pl3     1 <0>        -0.6105
     18 H1          5.7195   -3.0941   -0.0687 H         1 <0>         0.4165
     19 C17         3.6443   -3.3949   -0.0504 C.ar      1 <0>         0.1138
     20 C18         2.9910   -2.1538   -0.0381 C.ar      1 <0>         0.1603
     21 N2          3.4713   -0.8601   -0.0356 N.pl3     1 <0>        -0.6071
     22 H2          4.4105   -0.6179   -0.0435 H         1 <0>         0.4182
     23 C19         0.4534   -5.5701   -0.0322 C.2       1 <0>         0.5671
     24 O1          0.6821   -6.7645   -0.0405 O.2       1 <0>        -0.5235
     25 N3         -0.7748   -5.0244   -0.0172 N.am      1 <0>        -0.7239
     26 C20        -0.6370   -3.5635   -0.0107 C.3       1 <0>         0.1438
     27 H3         -0.9602    1.8992    0.0259 H         1 <0>         0.1299
     28 H4          1.1469    3.1683    0.0077 H         1 <0>         0.1312
     29 H5          3.3035    1.9995   -0.0190 H         1 <0>         0.1253
     30 H6         -0.9246   -0.5587    0.0075 H         1 <0>         0.1280
     31 H7          2.7375   -7.5198   -0.0665 H         1 <0>         0.1456
     32 H8          4.7391   -8.9443   -0.0955 H         1 <0>         0.1286
     33 H9          6.9811   -7.9319   -0.1098 H         1 <0>         0.1300
     34 H10         7.2462   -5.4938   -0.0972 H         1 <0>         0.1240
     35 H11        -1.6120   -5.5143   -0.0117 H         1 <0>         0.4271
     36 H12        -1.0897   -3.1483    0.8897 H         1 <0>         0.1004
     37 H13        -1.1071   -3.1386   -0.8976 H         1 <0>         0.1004
@<TRIPOS>BOND
     1    1    6 ar
     2    1    2 ar
     3    1   27 1
     4    2    3 ar
     5    2   28 1
     6    3    4 ar
     7    3   29 1
     8    4   21 1
     9    4    5 ar
    10    5    6 ar
    11    5    7 1
    12    6   30 1
    13    7   20 ar
    14    7    8 ar
    15    8   26 1
    16    8    9 ar
    17    9   10 ar
    18    9   23 1
    19   10   19 ar
    20   10   11 1
    21   11   16 ar
    22   11   12 ar
    23   12   13 ar
    24   12   31 1
    25   13   14 ar
    26   13   32 1
    27   14   15 ar
    28   14   33 1
    29   15   16 ar
    30   15   34 1
    31   16   17 1
    32   17   18 1
    33   17   19 1
    34   19   20 ar
    35   20   21 1
    36   21   22 1
    37   23   24 2
    38   23   25 am
    39   25   26 1
    40   25   35 1
    41   26   36 1
    42   26   37 1
@<TRIPOS>MOLECULE
ZINC02560260
   60    65     0     0     0
SMALL
USER_CHARGES
3-(1H-indol-3-yl)-4-[1-[2-(1-methylpyrrolidin-2-yl)ethyl]indol-3-yl]-pyrrole-2,5-dione
@<TRIPOS>ATOM
      1 C1         -0.8041    1.9482   -1.0558 C.3       1 <0>        -0.0495
      2 C2          0.0560   -0.0390    0.0376 C.3       1 <0>        -0.0114
      3 C3          1.5436   -0.4453   -0.0204 C.3       1 <0>        -0.1416
      4 C4          2.2696    0.8052    0.5419 C.3       1 <0>        -0.1378
      5 C5          1.3887    1.9533   -0.0108 C.3       1 <0>         0.0302
      6 H1          1.6601    2.1769   -1.0426 H         1 <0>         0.1463
      7 C6          1.5322    3.2021    0.8615 C.3       1 <0>        -0.1624
      8 C7          0.6503    4.3197    0.3011 C.3       1 <0>         0.0996
      9 N1          0.8829    5.5517    1.0590 N.pl3     1 <0>        -0.4818
     10 C8          0.1284    5.9719    2.1110 C.2       1 <0>         0.0839
     11 C9          0.6203    7.1515    2.5869 C.2       1 <0>        -0.1088
     12 C10         1.7791    7.4933    1.7434 C.ar      1 <0>        -0.0761
     13 C11         1.8944    6.4546    0.8045 C.ar      1 <0>         0.0963
     14 C12         2.9135    6.4997   -0.1409 C.ar      1 <0>        -0.1320
     15 C13         3.7967    7.5578   -0.1501 C.ar      1 <0>        -0.0898
     16 C14         3.6819    8.5825    0.7778 C.ar      1 <0>        -0.1327
     17 C15         2.6794    8.5560    1.7227 C.ar      1 <0>        -0.0674
     18 C16         0.0925    7.9337    3.7174 C.2       1 <0>        -0.0445
     19 C17         0.2333    7.6469    5.0701 C.2       1 <0>        -0.0167
     20 C18        -0.4701    8.7265    5.7931 C.2       1 <0>         0.5521
     21 O1         -0.5685    8.8241    7.0000 O.2       1 <0>        -0.4393
     22 N2         -0.9836    9.5821    4.8931 N.am      1 <0>        -0.6897
     23 C19        -0.6884    9.1859    3.6434 C.2       1 <0>         0.5566
     24 O2         -1.0128    9.7596    2.6229 O.2       1 <0>        -0.4462
     25 C20         0.9401    6.4990    5.6628 C.2       1 <0>        -0.1427
     26 C21         2.2904    6.3308    5.7534 C.2       1 <0>         0.1061
     27 N3          2.5648    5.1473    6.3673 N.pl3     1 <0>        -0.5846
     28 H2          3.4562    4.8097    6.5471 H         1 <0>         0.4219
     29 C22         1.3941    4.4936    6.6915 C.ar      1 <0>         0.0931
     30 C23         0.3271    5.3037    6.2685 C.ar      1 <0>        -0.0759
     31 C24        -0.9871    4.8881    6.4693 C.ar      1 <0>        -0.0760
     32 C25        -1.2341    3.6799    7.0843 C.ar      1 <0>        -0.1375
     33 C26        -0.1815    2.8789    7.5021 C.ar      1 <0>        -0.0990
     34 C27         1.1237    3.2773    7.3094 C.ar      1 <0>        -0.1255
     35 H3         -1.7900    1.4838   -1.0321 H         1 <0>         0.1272
     36 H4         -0.9091    3.0289   -0.9601 H         1 <0>         0.1206
     37 H5         -0.3144    1.7130   -2.0007 H         1 <0>         0.1257
     38 H6         -0.4021   -0.4374    0.9429 H         1 <0>         0.1308
     39 H7         -0.4685   -0.4165   -0.8402 H         1 <0>         0.1346
     40 H8          1.7305   -1.3151    0.6094 H         1 <0>         0.1138
     41 H9          1.8495   -0.6422   -1.0479 H         1 <0>         0.1001
     42 H10         2.2668    0.8011    1.6319 H         1 <0>         0.1002
     43 H11         3.2868    0.8725    0.1563 H         1 <0>         0.1181
     44 H12         1.2222    2.9710    1.8806 H         1 <0>         0.0975
     45 H13         2.5728    3.5266    0.8630 H         1 <0>         0.1209
     46 H14         0.8971    4.4861   -0.7475 H         1 <0>         0.0996
     47 H15        -0.3978    4.0330    0.3866 H         1 <0>         0.0876
     48 H16        -0.7281    5.4488    2.5103 H         1 <0>         0.1733
     49 H17         3.0123    5.7069   -0.8675 H         1 <0>         0.1170
     50 H18         4.5863    7.5889   -0.8862 H         1 <0>         0.1300
     51 H19         4.3815    9.4052    0.7593 H         1 <0>         0.1297
     52 H20         2.5918    9.3555    2.4436 H         1 <0>         0.1237
     53 H21        -1.4923   10.3777    5.1148 H         1 <0>         0.4318
     54 H22         3.0299    7.0317    5.3952 H         1 <0>         0.1771
     55 H23        -1.8085    5.5098    6.1450 H         1 <0>         0.1194
     56 H24        -2.2520    3.3550    7.2414 H         1 <0>         0.1255
     57 H25        -0.3868    1.9337    7.9827 H         1 <0>         0.1279
     58 H26         1.9358    2.6456    7.6379 H         1 <0>         0.1224
     59 N4          0.0101    1.4317    0.0752 N.4       1 <0>        -0.3996
     60 H27        -0.4137    1.7358    0.9596 H         1 <0>         0.4281
@<TRIPOS>BOND
     1    1   35 1
     2    1   36 1
     3    1   37 1
     4    1   59 1
     5    2    3 1
     6    2   38 1
     7    2   39 1
     8    2   59 1
     9    3    4 1
    10    3   40 1
    11    3   41 1
    12    4    5 1
    13    4   42 1
    14    4   43 1
    15    5    6 1
    16    5    7 1
    17    5   59 1
    18    7    8 1
    19    7   44 1
    20    7   45 1
    21    8    9 1
    22    8   46 1
    23    8   47 1
    24    9   13 1
    25    9   10 1
    26   10   11 2
    27   10   48 1
    28   11   12 1
    29   11   18 1
    30   12   17 ar
    31   12   13 ar
    32   13   14 ar
    33   14   15 ar
    34   14   49 1
    35   15   16 ar
    36   15   50 1
    37   16   17 ar
    38   16   51 1
    39   17   52 1
    40   18   23 1
    41   18   19 2
    42   19   20 1
    43   19   25 1
    44   20   21 2
    45   20   22 am
    46   22   23 am
    47   22   53 1
    48   23   24 2
    49   25   30 1
    50   25   26 2
    51   26   27 1
    52   26   54 1
    53   27   28 1
    54   27   29 1
    55   29   34 ar
    56   29   30 ar
    57   30   31 ar
    58   31   32 ar
    59   31   55 1
    60   32   33 ar
    61   32   56 1
    62   33   34 ar
    63   33   57 1
    64   34   58 1
    65   59   60 1
@<TRIPOS>MOLECULE
ZINC03871740
   60    65     0     0     0
SMALL
USER_CHARGES
3-(1H-indol-3-yl)-4-[1-[2-(1-methylpyrrolidin-2-yl)ethyl]indol-3-yl]-pyrrole-2,5-dione
@<TRIPOS>ATOM
      1 C1          0.8983   10.5816    1.1587 C.3       1 <0>        -0.0458
      2 C2          1.1526   11.1064    3.5167 C.3       1 <0>        -0.0094
      3 C3          1.9633   10.4192    4.6438 C.3       1 <0>        -0.1436
      4 C4          2.3563    9.0766    3.9732 C.3       1 <0>        -0.1411
      5 C5          2.5904    9.4784    2.5017 C.3       1 <0>         0.0261
      6 H1          3.6538    9.6373    2.3229 H         1 <0>         0.1407
      7 C6          2.0649    8.3820    1.5729 C.3       1 <0>        -0.1620
      8 C7          2.9006    7.1137    1.7569 C.3       1 <0>         0.1166
      9 N1          2.4769    6.1042    0.7835 N.pl3     1 <0>        -0.4805
     10 C8          1.5707    5.1188    1.0295 C.2       1 <0>         0.0910
     11 C9          1.4077    4.3553   -0.0887 C.2       1 <0>        -0.1154
     12 C10         2.3007    4.9199   -1.1159 C.ar      1 <0>        -0.0755
     13 C11         2.9394    6.0166   -0.5132 C.ar      1 <0>         0.0950
     14 C12         3.8530    6.7630   -1.2496 C.ar      1 <0>        -0.1332
     15 C13         4.1297    6.4179   -2.5550 C.ar      1 <0>        -0.0915
     16 C14         3.4956    5.3371   -3.1500 C.ar      1 <0>        -0.1343
     17 C15         2.5841    4.5876   -2.4386 C.ar      1 <0>        -0.0671
     18 C16         0.5184    3.1911   -0.2384 C.2       1 <0>        -0.0399
     19 C17        -0.8645    3.2084   -0.3775 C.2       1 <0>        -0.0215
     20 C18        -1.2816    1.7960   -0.4979 C.2       1 <0>         0.5528
     21 O1         -2.4226    1.4036   -0.6393 O.2       1 <0>        -0.4406
     22 N2         -0.1887    1.0178   -0.4220 N.am      1 <0>        -0.6897
     23 C19         0.9156    1.7683   -0.2715 C.2       1 <0>         0.5558
     24 O2          2.0514    1.3473   -0.1789 O.2       1 <0>        -0.4450
     25 C20        -1.7368    4.3944   -0.4047 C.2       1 <0>        -0.1380
     26 C21        -1.8832    5.2758   -1.4350 C.2       1 <0>         0.1028
     27 N3         -2.7789    6.2406   -1.0891 N.pl3     1 <0>        -0.5861
     28 H2         -3.0483    6.9771   -1.6599 H         1 <0>         0.4206
     29 C22        -3.2444    6.0247    0.1914 C.ar      1 <0>         0.0923
     30 C23        -2.6180    4.8653    0.6785 C.ar      1 <0>        -0.0762
     31 C24        -2.9022    4.4052    1.9621 C.ar      1 <0>        -0.0738
     32 C25        -3.7998    5.0925    2.7500 C.ar      1 <0>        -0.1369
     33 C26        -4.4190    6.2373    2.2704 C.ar      1 <0>        -0.0979
     34 C27        -4.1473    6.7041    1.0023 C.ar      1 <0>        -0.1281
     35 H3          0.1997    9.7762    1.3855 H         1 <0>         0.1231
     36 H4          0.3479   11.5127    1.0237 H         1 <0>         0.1234
     37 H5          1.4413   10.3447    0.2438 H         1 <0>         0.1234
     38 H6          1.1634   12.1885    3.6472 H         1 <0>         0.1354
     39 H7          0.1274   10.7365    3.5048 H         1 <0>         0.1328
     40 H8          2.8483   11.0019    4.8991 H         1 <0>         0.1001
     41 H9          1.3424   10.2493    5.5234 H         1 <0>         0.1182
     42 H10         1.5435    8.3545    4.0508 H         1 <0>         0.1013
     43 H11         3.2702    8.6786    4.4141 H         1 <0>         0.1152
     44 H12         2.1364    8.7173    0.5382 H         1 <0>         0.0972
     45 H13         1.0236    8.1693    1.8147 H         1 <0>         0.0967
     46 H14         2.7577    6.7278    2.7663 H         1 <0>         0.1022
     47 H15         3.9541    7.3473    1.6030 H         1 <0>         0.0970
     48 H16         1.0588    4.9647    1.9679 H         1 <0>         0.1743
     49 H17         4.3535    7.6054   -0.7955 H         1 <0>         0.1154
     50 H18         4.8424    6.9983   -3.1220 H         1 <0>         0.1288
     51 H19         3.7171    5.0820   -4.1758 H         1 <0>         0.1289
     52 H20         2.0920    3.7464   -2.9041 H         1 <0>         0.1233
     53 H21        -0.1957    0.0491   -0.4730 H         1 <0>         0.4318
     54 H22        -1.3685    5.2160   -2.3826 H         1 <0>         0.1768
     55 H23        -2.4218    3.5139    2.3378 H         1 <0>         0.1203
     56 H24        -4.0219    4.7383    3.7458 H         1 <0>         0.1262
     57 H25        -5.1206    6.7683    2.8967 H         1 <0>         0.1277
     58 H26        -4.6347    7.5967    0.6389 H         1 <0>         0.1212
     59 N4          1.8648   10.7391    2.2766 N.4       1 <0>        -0.3945
     60 H27         2.5355   11.4790    2.0381 H         1 <0>         0.4331
@<TRIPOS>BOND
     1    1   35 1
     2    1   36 1
     3    1   37 1
     4    1   59 1
     5    2    3 1
     6    2   38 1
     7    2   39 1
     8    2   59 1
     9    3    4 1
    10    3   40 1
    11    3   41 1
    12    4    5 1
    13    4   42 1
    14    4   43 1
    15    5    6 1
    16    5    7 1
    17    5   59 1
    18    7    8 1
    19    7   44 1
    20    7   45 1
    21    8    9 1
    22    8   46 1
    23    8   47 1
    24    9   13 1
    25    9   10 1
    26   10   11 2
    27   10   48 1
    28   11   12 1
    29   11   18 1
    30   12   17 ar
    31   12   13 ar
    32   13   14 ar
    33   14   15 ar
    34   14   49 1
    35   15   16 ar
    36   15   50 1
    37   16   17 ar
    38   16   51 1
    39   17   52 1
    40   18   23 1
    41   18   19 2
    42   19   20 1
    43   19   25 1
    44   20   21 2
    45   20   22 am
    46   22   23 am
    47   22   53 1
    48   23   24 2
    49   25   30 1
    50   25   26 2
    51   26   27 1
    52   26   54 1
    53   27   28 1
    54   27   29 1
    55   29   34 ar
    56   29   30 ar
    57   30   31 ar
    58   31   32 ar
    59   31   55 1
    60   32   33 ar
    61   32   56 1
    62   33   34 ar
    63   33   57 1
    64   34   58 1
    65   59   60 1
@<TRIPOS>MOLECULE
ZINC12355112
   41    43     0     0     0
SMALL
USER_CHARGES

@<TRIPOS>ATOM
      1 C1         -0.1028    1.0961   -0.3671 C.ar      1 <0>        -0.0514
      2 C2          0.1939    0.2453    0.6818 C.ar      1 <0>        -0.1484
      3 C3          1.4264   -0.3800    0.7402 C.ar      1 <0>         0.1639
      4 C4          2.3673   -0.1521   -0.2572 C.ar      1 <0>         0.0453
      5 C5          2.0653    0.7038   -1.3099 C.ar      1 <0>         0.1303
      6 C6          0.8305    1.3253   -1.3612 C.ar      1 <0>        -0.1508
      7 F1          2.9766    0.9287   -2.2816 F         1 <0>        -0.1242
      8 N1          3.6170   -0.7832   -0.2014 N.pl3     1 <0>        -0.5829
      9 C7          3.7027   -2.0774    0.1649 C.2       1 <0>         0.5287
     10 S1          2.2783   -2.9758    0.4732 S.2       1 <0>        -0.4610
     11 N2          4.9096   -2.6643    0.2886 N.pl3     1 <0>        -0.3704
     12 C8          5.1565   -3.9777    0.5555 C.2       1 <0>         0.6130
     13 N3          6.4609   -4.1414    0.5939 N.2       1 <0>        -0.5881
     14 C9          7.0702   -2.9726    0.3596 C.2       1 <0>         0.5344
     15 N4          6.1641   -2.0459    0.1621 N.2       1 <0>        -0.3900
     16 N5          8.4494   -2.7737    0.3248 N.pl3     1 <0>        -0.6253
     17 C10         9.3156   -3.8654    0.4276 C.ar      1 <0>         0.2308
     18 C11         8.9430   -5.1006   -0.0877 C.ar      1 <0>        -0.1475
     19 C12         9.8015   -6.1774    0.0157 C.ar      1 <0>         0.0049
     20 C13        11.0306   -6.0273    0.6313 C.ar      1 <0>        -0.6997
     21 C14        11.4044   -4.7993    1.1458 C.ar      1 <0>         0.0107
     22 C15        10.5534   -3.7167    1.0403 C.ar      1 <0>        -0.1718
     23 S2         12.1228   -7.4039    0.7609 S.o2      1 <0>         2.7036
     24 O1         12.9813   -7.1389    1.8619 O.2       1 <0>        -0.9640
     25 O2         11.3155   -8.5710    0.6881 O.2       1 <0>        -0.9611
     26 N6         13.0757   -7.4022   -0.5934 N.pl3     1 <0>        -1.2489
     27 N7          4.2074   -4.9604    0.7511 N.pl3     1 <0>        -0.7789
     28 F2          1.7155   -1.2107    1.7657 F         1 <0>        -0.0889
     29 H1         -1.0676    1.5793   -0.4122 H         1 <0>         0.1524
     30 H2         -0.5376    0.0691    1.4566 H         1 <0>         0.1538
     31 H3          0.5950    1.9905   -2.1789 H         1 <0>         0.1534
     32 H4          4.4206   -0.2887   -0.4264 H         1 <0>         0.4283
     33 H5          8.8079   -1.8774    0.2293 H         1 <0>         0.4322
     34 H6          7.9831   -5.2186   -0.5683 H         1 <0>         0.1467
     35 H7          9.5123   -7.1380   -0.3844 H         1 <0>         0.1464
     36 H8         12.3649   -4.6855    1.6262 H         1 <0>         0.1476
     37 H9         10.8481   -2.7567    1.4378 H         1 <0>         0.1386
     38 H10        13.9781   -7.7554   -0.5519 H         1 <0>         0.4215
     39 H11        12.7314   -7.0480   -1.4282 H         1 <0>         0.4170
     40 H12         3.2665   -4.7264    0.7830 H         1 <0>         0.4323
     41 H13         4.4811   -5.8849    0.8567 H         1 <0>         0.4174
@<TRIPOS>BOND
     1    1    6 ar
     2    1    2 ar
     3    1   29 1
     4    2    3 ar
     5    2   30 1
     6    3    4 ar
     7    3   28 1
     8    4    5 ar
     9    4    8 1
    10    5    6 ar
    11    5    7 1
    12    6   31 1
    13    8    9 1
    14    8   32 1
    15    9   10 2
    16    9   11 1
    17   11   15 1
    18   11   12 1
    19   12   13 2
    20   12   27 1
    21   13   14 1
    22   14   15 2
    23   14   16 1
    24   16   17 1
    25   16   33 1
    26   17   22 ar
    27   17   18 ar
    28   18   19 ar
    29   18   34 1
    30   19   20 ar
    31   19   35 1
    32   20   21 ar
    33   20   23 1
    34   21   22 ar
    35   21   36 1
    36   22   37 1
    37   23   24 2
    38   23   25 2
    39   23   26 1
    40   26   38 1
    41   26   39 1
    42   27   40 1
    43   27   41 1
@<TRIPOS>MOLECULE
ZINC02560262
   38    42     0     0     0
SMALL
USER_CHARGES
3,4-bis(1H-indol-3-yl)pyrrole-2,5-dione
@<TRIPOS>ATOM
      1 C1          2.3783    1.4372   -0.0129 C.ar      1 <0>        -0.1378
      2 C2          2.3986    0.0500   -0.0201 C.ar      1 <0>        -0.0992
      3 C3          1.2234   -0.6696   -0.0130 C.ar      1 <0>        -0.1252
      4 C4          0.0021   -0.0041    0.0020 C.ar      1 <0>         0.0932
      5 C5         -0.0170    1.4005    0.0097 C.ar      1 <0>        -0.0762
      6 C6          1.1790    2.1150    0.0022 C.ar      1 <0>        -0.0746
      7 C7         -1.4387    1.7873    0.0313 C.2       1 <0>        -0.1393
      8 C8         -2.1564    0.6276    0.0268 C.2       1 <0>         0.1036
      9 N1         -1.3078   -0.4365    0.0127 N.pl3     1 <0>        -0.5847
     10 H1         -1.5846   -1.3661    0.0104 H         1 <0>         0.4208
     11 C9         -1.9786    3.1572    0.0460 C.2       1 <0>        -0.0287
     12 C10        -2.5428    3.8215    1.1288 C.2       1 <0>        -0.0283
     13 C11        -2.9252    5.1602    0.6339 C.2       1 <0>         0.5560
     14 O1         -3.4500    6.0359    1.2924 O.2       1 <0>        -0.4468
     15 N2         -2.6005    5.2457   -0.6672 N.am      1 <0>        -0.6911
     16 C12        -2.0361    4.1015   -1.0890 C.2       1 <0>         0.5560
     17 O2         -1.6390    3.8805   -2.2156 O.2       1 <0>        -0.4469
     18 C13        -2.7216    3.2977    2.4934 C.2       1 <0>        -0.1393
     19 C14        -1.7506    3.1292    3.4361 C.2       1 <0>         0.1037
     20 N3         -2.3001    2.6255    4.5750 N.pl3     1 <0>        -0.5848
     21 H2         -1.8075    2.4236    5.3858 H         1 <0>         0.4208
     22 C15        -3.6566    2.4375    4.4094 C.ar      1 <0>         0.0933
     23 C16        -3.9836    2.8469    3.1061 C.ar      1 <0>        -0.0762
     24 C17        -5.3006    2.7671    2.6589 C.ar      1 <0>        -0.0746
     25 C18        -6.2790    2.2863    3.5014 C.ar      1 <0>        -0.1378
     26 C19        -5.9574    1.8812    4.7888 C.ar      1 <0>        -0.0992
     27 C20        -4.6588    1.9542    5.2442 C.ar      1 <0>        -0.1252
     28 H3          3.3071    1.9883   -0.0193 H         1 <0>         0.1249
     29 H4          3.3446   -0.4710   -0.0317 H         1 <0>         0.1271
     30 H5          1.2506   -1.7492   -0.0194 H         1 <0>         0.1217
     31 H6          1.1660    3.1949    0.0080 H         1 <0>         0.1195
     32 H7         -3.2345    0.5634    0.0366 H         1 <0>         0.1766
     33 H8         -2.7524    6.0250   -1.2244 H         1 <0>         0.4287
     34 H9         -0.7049    3.3627    3.3006 H         1 <0>         0.1766
     35 H10        -5.5536    3.0819    1.6573 H         1 <0>         0.1194
     36 H11        -7.3010    2.2242    3.1580 H         1 <0>         0.1249
     37 H12        -6.7323    1.5052    5.4404 H         1 <0>         0.1271
     38 H13        -4.4196    1.6368    6.2484 H         1 <0>         0.1217
@<TRIPOS>BOND
     1    1    6 ar
     2    1    2 ar
     3    1   28 1
     4    2    3 ar
     5    2   29 1
     6    3    4 ar
     7    3   30 1
     8    4    9 1
     9    4    5 ar
    10    5    6 ar
    11    5    7 1
    12    6   31 1
    13    7    8 2
    14    7   11 1
    15    8    9 1
    16    8   32 1
    17    9   10 1
    18   11   16 1
    19   11   12 2
    20   12   13 1
    21   12   18 1
    22   13   14 2
    23   13   15 am
    24   15   16 am
    25   15   33 1
    26   16   17 2
    27   18   23 1
    28   18   19 2
    29   19   20 1
    30   19   34 1
    31   20   21 1
    32   20   22 1
    33   22   27 ar
    34   22   23 ar
    35   23   24 ar
    36   24   25 ar
    37   24   35 1
    38   25   26 ar
    39   25   36 1
    40   26   27 ar
    41   26   37 1
    42   27   38 1
@<TRIPOS>MOLECULE
ZINC12354940
   36    41     0     0     0
SMALL
USER_CHARGES

@<TRIPOS>ATOM
      1 C1         -0.0166    1.3735    0.0096 C.ar      1 <0>        -0.1479
      2 C2          1.1715    2.0889    0.0021 C.ar      1 <0>        -0.0724
      3 C3          2.3842    1.4344   -0.0130 C.ar      1 <0>        -0.1443
      4 C4          2.4249    0.0433   -0.0208 C.ar      1 <0>         0.1440
      5 C5          1.2217   -0.6796   -0.0132 C.ar      1 <0>        -0.1070
      6 C6          0.0021   -0.0041    0.0020 C.ar      1 <0>        -0.0471
      7 C7          1.5900   -2.1053   -0.0244 C.ar      1 <0>        -0.0113
      8 C8          0.8450   -3.2914   -0.0236 C.ar      1 <0>        -0.1089
      9 C9          1.5048   -4.5329   -0.0368 C.ar      1 <0>        -0.1090
     10 C10         2.9047   -4.5788   -0.0507 C.ar      1 <0>        -0.0113
     11 C11         3.8802   -5.6817   -0.0671 C.ar      1 <0>        -0.1071
     12 C12         3.7578   -7.0705   -0.0742 C.ar      1 <0>        -0.0471
     13 C13         4.8890   -7.8567   -0.0904 C.ar      1 <0>        -0.1479
     14 C14         6.1466   -7.2721   -0.0996 C.ar      1 <0>        -0.0724
     15 C15         6.2826   -5.9007   -0.0927 C.ar      1 <0>        -0.1443
     16 C16         5.1525   -5.0888   -0.0765 C.ar      1 <0>         0.1440
     17 N1          4.9928   -3.7159   -0.0666 N.pl3     1 <0>        -0.6062
     18 H1          5.7195   -3.0734   -0.0704 H         1 <0>         0.4202
     19 C17         3.6507   -3.3893   -0.0512 C.ar      1 <0>         0.1470
     20 C18         2.9933   -2.1524   -0.0381 C.ar      1 <0>         0.1470
     21 N2          3.4735   -0.8571   -0.0356 N.pl3     1 <0>        -0.6063
     22 H2          4.4125   -0.6141   -0.0429 H         1 <0>         0.4202
     23 C19         0.4437   -5.5556   -0.0320 C.2       1 <0>         0.5841
     24 O1          0.6177   -6.7581   -0.0399 O.2       1 <0>        -0.4586
     25 N3         -0.7498   -4.9352   -0.0170 N.am      1 <0>        -0.6811
     26 C20        -0.5964   -3.5989   -0.0112 C.2       1 <0>         0.5840
     27 O2         -1.4957   -2.7819    0.0023 O.2       1 <0>        -0.4587
     28 H3         -0.9603    1.8985    0.0259 H         1 <0>         0.1315
     29 H4          1.1462    3.1686    0.0077 H         1 <0>         0.1328
     30 H5          3.3035    2.0013   -0.0190 H         1 <0>         0.1270
     31 H6         -0.9246   -0.5587    0.0082 H         1 <0>         0.1419
     32 H7          2.7797   -7.5284   -0.0668 H         1 <0>         0.1419
     33 H8          4.7961   -8.9327   -0.0956 H         1 <0>         0.1315
     34 H9          7.0273   -7.8971   -0.1119 H         1 <0>         0.1328
     35 H10         7.2667   -5.4559   -0.0996 H         1 <0>         0.1270
     36 H11        -1.6062   -5.3906   -0.0108 H         1 <0>         0.4318
@<TRIPOS>BOND
     1    1    6 ar
     2    1    2 ar
     3    1   28 1
     4    2    3 ar
     5    2   29 1
     6    3    4 ar
     7    3   30 1
     8    4   21 1
     9    4    5 ar
    10    5    6 ar
    11    5    7 1
    12    6   31 1
    13    7   20 ar
    14    7    8 ar
    15    8   26 1
    16    8    9 ar
    17    9   10 ar
    18    9   23 1
    19   10   19 ar
    20   10   11 1
    21   11   16 ar
    22   11   12 ar
    23   12   13 ar
    24   12   32 1
    25   13   14 ar
    26   13   33 1
    27   14   15 ar
    28   14   34 1
    29   15   16 ar
    30   15   35 1
    31   16   17 1
    32   17   18 1
    33   17   19 1
    34   19   20 ar
    35   20   21 1
    36   21   22 1
    37   23   24 2
    38   23   25 am
    39   25   26 am
    40   25   36 1
    41   26   27 2
@<TRIPOS>MOLECULE
ZINC02011710
   53    57     0     0     0
SMALL
USER_CHARGES
3-[1-(3-aminopropyl)indol-3-yl]-4-(1-methylindol-3-yl)-pyrrole-2,5-dione
@<TRIPOS>ATOM
      1 C1          2.9798    0.0203   -0.0236 C.3       1 <0>         0.0761
      2 N1          2.5076    1.4071   -0.0132 N.pl3     1 <0>        -0.4787
      3 C2          3.3143    2.5034   -0.0147 C.2       1 <0>         0.1022
      4 C3          2.5522    3.6343   -0.0023 C.2       1 <0>        -0.1392
      5 C4          1.1465    3.1926    0.0078 C.ar      1 <0>        -0.0760
      6 C5          1.1819    1.7882    0.0004 C.ar      1 <0>         0.0933
      7 C6         -0.0126    1.0758    0.0080 C.ar      1 <0>        -0.1271
      8 C7         -1.2150    1.7493    0.0173 C.ar      1 <0>        -0.0984
      9 C8         -1.2485    3.1361    0.0277 C.ar      1 <0>        -0.1377
     10 C9         -0.0761    3.8600    0.0215 C.ar      1 <0>        -0.0733
     11 C10         3.0388    5.0242    0.0008 C.2       1 <0>        -0.0188
     12 C11         3.5826    5.7216   -1.0715 C.2       1 <0>        -0.0422
     13 C12         3.9090    7.0690   -0.5604 C.2       1 <0>         0.5562
     14 O1          4.4020    7.9719   -1.2067 O.2       1 <0>        -0.4454
     15 N2          3.5747    7.1276    0.7397 N.am      1 <0>        -0.6896
     16 C13         3.0535    5.9576    1.1461 C.2       1 <0>         0.5526
     17 O2          2.6594    5.7089    2.2681 O.2       1 <0>        -0.4403
     18 C14         3.7889    5.2201   -2.4406 C.2       1 <0>        -0.1134
     19 C15         2.8311    5.0306   -3.3928 C.2       1 <0>         0.0897
     20 N3          3.4049    4.5552   -4.5318 N.pl3     1 <0>        -0.4822
     21 C16         4.7667    4.4174   -4.3604 C.ar      1 <0>         0.0946
     22 C17         5.0715    4.8307   -3.0527 C.ar      1 <0>        -0.0755
     23 C18         6.3872    4.7911   -2.5969 C.ar      1 <0>        -0.0673
     24 C19         7.3878    4.3564   -3.4386 C.ar      1 <0>        -0.1340
     25 C20         7.0891    3.9536   -4.7319 C.ar      1 <0>        -0.0917
     26 C21         5.7911    3.9820   -5.1942 C.ar      1 <0>        -0.1329
     27 C22         2.6797    4.2352   -5.7638 C.3       1 <0>         0.1173
     28 C23         2.3404    2.7434   -5.7830 C.3       1 <0>        -0.1765
     29 C24         1.5830    2.4091   -7.0697 C.3       1 <0>        -0.0009
     30 H1          3.0878   -0.3191   -1.0537 H         1 <0>         0.0686
     31 H2          3.9440   -0.0390    0.4814 H         1 <0>         0.0882
     32 H3          2.2591   -0.6128    0.4939 H         1 <0>         0.0854
     33 H4          4.3940    2.4811   -0.0246 H         1 <0>         0.1741
     34 H5          0.0021   -0.0041    0.0020 H         1 <0>         0.1196
     35 H6         -2.1401    1.1920    0.0190 H         1 <0>         0.1275
     36 H7         -2.1979    3.6507    0.0383 H         1 <0>         0.1261
     37 H8         -0.1049    4.9396    0.0275 H         1 <0>         0.1203
     38 H9          3.6926    7.9062    1.3060 H         1 <0>         0.4317
     39 H10         1.7773    5.2283   -3.2629 H         1 <0>         0.1750
     40 H11         6.6225    5.1042   -1.5905 H         1 <0>         0.1234
     41 H12         8.4096    4.3296   -3.0898 H         1 <0>         0.1291
     42 H13         7.8814    3.6147   -5.3830 H         1 <0>         0.1292
     43 H14         5.5696    3.6668   -6.2032 H         1 <0>         0.1160
     44 H15         1.7593    4.8176   -5.8054 H         1 <0>         0.1030
     45 H16         3.3022    4.4773   -6.6252 H         1 <0>         0.0987
     46 H17         3.2608    2.1609   -5.7414 H         1 <0>         0.0951
     47 H18         1.7179    2.5012   -4.9217 H         1 <0>         0.0964
     48 H19         0.6627    2.9916   -7.1113 H         1 <0>         0.1395
     49 H20         2.2055    2.6513   -7.9311 H         1 <0>         0.1361
     50 H21         0.7348    0.7142   -6.2659 H         1 <0>         0.4385
     51 H22         0.7564    0.7307   -7.9288 H         1 <0>         0.4432
     52 N4          1.2807    0.9670   -7.0880 N.4       1 <0>        -0.6464
     53 H23         2.1604    0.4376   -7.0818 H         1 <0>         0.4406
@<TRIPOS>BOND
     1    1    2 1
     2    1   30 1
     3    1   31 1
     4    1   32 1
     5    2    6 1
     6    2    3 1
     7    3    4 2
     8    3   33 1
     9    4    5 1
    10    4   11 1
    11    5   10 ar
    12    5    6 ar
    13    6    7 ar
    14    7    8 ar
    15    7   34 1
    16    8    9 ar
    17    8   35 1
    18    9   10 ar
    19    9   36 1
    20   10   37 1
    21   11   16 1
    22   11   12 2
    23   12   13 1
    24   12   18 1
    25   13   14 2
    26   13   15 am
    27   15   16 am
    28   15   38 1
    29   16   17 2
    30   18   22 1
    31   18   19 2
    32   19   20 1
    33   19   39 1
    34   20   21 1
    35   20   27 1
    36   21   26 ar
    37   21   22 ar
    38   22   23 ar
    39   23   24 ar
    40   23   40 1
    41   24   25 ar
    42   24   41 1
    43   25   26 ar
    44   25   42 1
    45   26   43 1
    46   27   28 1
    47   27   44 1
    48   27   45 1
    49   28   29 1
    50   28   46 1
    51   28   47 1
    52   29   48 1
    53   29   49 1
    54   29   52 1
    55   50   52 1
    56   51   52 1
    57   52   53 1
@<TRIPOS>MOLECULE
ZINC03776578
   56    63     0     0     0
SMALL
USER_CHARGES
methyl hydroxy-methyl-oxo-BLAHcarboxylate
@<TRIPOS>ATOM
      1 C1          4.6411   -0.1552   -1.5714 C.3       1 <0>        -0.1724
      2 C2          4.4710    1.3091   -1.1615 C.3       1 <0>         0.3586
      3 C3          5.8472    1.9657   -0.9322 C.3       1 <0>         0.1093
      4 C4          5.6918    2.7845    0.3660 C.3       1 <0>        -0.1926
      5 C5          4.2338    2.5571    0.8137 C.3       1 <0>         0.3158
      6 H1          4.1890    2.3795    1.8883 H         1 <0>         0.1542
      7 O1          3.7815    1.4144    0.0850 O.3       1 <0>        -0.3341
      8 N1          3.4363    3.7347    0.4570 N.pl3     1 <0>        -0.5142
      9 C6          3.0900    4.7819    1.2719 C.ar      1 <0>         0.1513
     10 C7          3.4566    5.0737    2.5852 C.ar      1 <0>        -0.1538
     11 C8          2.9047    6.2060    3.1589 C.ar      1 <0>        -0.0734
     12 C9          2.0254    7.0269    2.4737 C.ar      1 <0>        -0.1590
     13 C10         1.6490    6.7645    1.1680 C.ar      1 <0>        -0.0355
     14 C11         2.1977    5.6288    0.5690 C.ar      1 <0>        -0.1059
     15 C12         2.0390    5.0598   -0.7658 C.ar      1 <0>         0.0013
     16 C13         2.8485    3.9253   -0.7871 C.ar      1 <0>         0.1057
     17 C14         2.9848    3.1753   -1.9604 C.ar      1 <0>         0.1613
     18 N2          3.7535    2.0503   -2.2040 N.pl3     1 <0>        -0.4850
     19 C15         3.6695    1.7360   -3.5382 C.ar      1 <0>         0.1607
     20 C16         4.2932    0.7313   -4.2764 C.ar      1 <0>        -0.1427
     21 C17         3.9828    0.6508   -5.6236 C.ar      1 <0>        -0.0834
     22 C18         3.0908    1.5188   -6.2276 C.ar      1 <0>        -0.1490
     23 C19         2.4592    2.5264   -5.5176 C.ar      1 <0>        -0.0558
     24 C20         2.7650    2.6286   -4.1610 C.ar      1 <0>        -0.0939
     25 C21         2.3180    3.5661   -3.1293 C.ar      1 <0>        -0.0589
     26 C22         1.4700    4.6682   -3.0944 C.ar      1 <0>        -0.0412
     27 C23         1.3181    5.4163   -1.9294 C.ar      1 <0>        -0.1369
     28 C24         0.3653    6.5044   -2.1982 C.2       1 <0>         0.5681
     29 O2          0.0084    7.3316   -1.3812 O.2       1 <0>        -0.5250
     30 N3         -0.0544    6.4563   -3.4736 N.am      1 <0>        -0.7236
     31 C25         0.5947    5.3204   -4.1370 C.3       1 <0>         0.1440
     32 C26         6.9085    0.9097   -0.7607 C.2       1 <0>         0.4485
     33 O3          7.1677    0.4870    0.3412 O.2       1 <0>        -0.4814
     34 O4          7.5660    0.4387   -1.8319 O.3       1 <0>        -0.3416
     35 C27         8.5751   -0.5773   -1.5919 C.3       1 <0>         0.0291
     36 O5          6.1766    2.8260   -2.0247 O.3       1 <0>        -0.5068
     37 H2          5.4271   -0.2333   -2.3224 H         1 <0>         0.1044
     38 H3          4.9129   -0.7478   -0.6979 H         1 <0>         0.0943
     39 H4          3.7042   -0.5276   -1.9859 H         1 <0>         0.0974
     40 H5          5.8665    3.8423    0.1694 H         1 <0>         0.1167
     41 H6          6.3822    2.4214    1.1273 H         1 <0>         0.1245
     42 H7          4.1421    4.4429    3.1316 H         1 <0>         0.1297
     43 H8          3.1693    6.4579    4.1753 H         1 <0>         0.1262
     44 H9          1.6218    7.8959    2.9719 H         1 <0>         0.1254
     45 H10         0.9627    7.4078    0.6374 H         1 <0>         0.1521
     46 H11         4.9893    0.0450   -3.8172 H         1 <0>         0.1354
     47 H12         4.4524   -0.1154   -6.2226 H         1 <0>         0.1258
     48 H13         2.8815    1.4079   -7.2813 H         1 <0>         0.1249
     49 H14         1.7657    3.2040   -5.9934 H         1 <0>         0.1353
     50 H15        -0.6822    7.0698   -3.8866 H         1 <0>         0.4268
     51 H16         1.2029    5.6709   -4.9708 H         1 <0>         0.1005
     52 H17        -0.1554    4.6137   -4.4918 H         1 <0>         0.1004
     53 H18         8.1114   -1.4473   -1.1270 H         1 <0>         0.0685
     54 H19         9.0287   -0.8699   -2.5389 H         1 <0>         0.1101
     55 H20         9.3429   -0.1775   -0.9295 H         1 <0>         0.0678
     56 H21         7.0129    3.2989   -1.9146 H         1 <0>         0.3918
@<TRIPOS>BOND
     1    1    2 1
     2    1   37 1
     3    1   38 1
     4    1   39 1
     5    2    7 1
     6    2   18 1
     7    2    3 1
     8    3    4 1
     9    3   32 1
    10    3   36 1
    11    4    5 1
    12    4   40 1
    13    4   41 1
    14    5    6 1
    15    5    7 1
    16    5    8 1
    17    8   16 1
    18    8    9 1
    19    9   14 ar
    20    9   10 ar
    21   10   11 ar
    22   10   42 1
    23   11   12 ar
    24   11   43 1
    25   12   13 ar
    26   12   44 1
    27   13   14 ar
    28   13   45 1
    29   14   15 1
    30   15   27 ar
    31   15   16 ar
    32   16   17 ar
    33   17   25 ar
    34   17   18 1
    35   18   19 1
    36   19   24 ar
    37   19   20 ar
    38   20   21 ar
    39   20   46 1
    40   21   22 ar
    41   21   47 1
    42   22   23 ar
    43   22   48 1
    44   23   24 ar
    45   23   49 1
    46   24   25 1
    47   25   26 ar
    48   26   31 1
    49   26   27 ar
    50   27   28 1
    51   28   29 2
    52   28   30 am
    53   30   31 1
    54   30   50 1
    55   31   51 1
    56   31   52 1
    57   32   33 2
    58   32   34 1
    59   34   35 1
    60   35   53 1
    61   35   54 1
    62   35   55 1
    63   36   56 1
@<TRIPOS>MOLECULE
ZINC01494900
   69    75     0     0     0
SMALL
USER_CHARGES
3-(1-methylindol-3-yl)-4-[1-[1-(2-pyridylmethyl)-4-piperidyl]indol-3-yl]-pyrrole-2,5-dione
@<TRIPOS>ATOM
      1 C1          3.1861    6.2356   -1.5397 C.3       1 <0>         0.0734
      2 N1          2.6240    5.2024   -0.6664 N.pl3     1 <0>        -0.4763
      3 C2          2.3262    3.9326   -1.0557 C.2       1 <0>         0.1066
      4 C3          1.8214    3.2346    0.0016 C.2       1 <0>        -0.1460
      5 C4          1.8014    4.1628    1.1458 C.ar      1 <0>        -0.0749
      6 C5          2.3214    5.3774    0.6681 C.ar      1 <0>         0.0944
      7 C6          2.4318    6.4599    1.5343 C.ar      1 <0>        -0.1231
      8 C7          2.0384    6.3316    2.8490 C.ar      1 <0>        -0.0993
      9 C8          1.5310    5.1299    3.3210 C.ar      1 <0>        -0.1377
     10 C9          1.4133    4.0459    2.4785 C.ar      1 <0>        -0.0770
     11 C10         1.3774    1.8305   -0.0013 C.2       1 <0>        -0.0122
     12 C11         2.1845    0.6989   -0.0150 C.2       1 <0>        -0.0486
     13 C12         1.2664   -0.4588   -0.0125 C.2       1 <0>         0.5575
     14 O1          1.5993   -1.6272   -0.0219 O.2       1 <0>        -0.4481
     15 N2          0.0021   -0.0041    0.0020 N.am      1 <0>        -0.6899
     16 C13        -0.0161    1.3395    0.0094 C.2       1 <0>         0.5514
     17 O2         -1.0124    2.0347    0.0181 O.2       1 <0>        -0.4386
     18 C14         3.6565    0.6615   -0.0300 C.2       1 <0>        -0.1044
     19 C15         4.4896    0.9175    1.0189 C.2       1 <0>         0.0813
     20 N3          5.7839    0.7834    0.6195 N.pl3     1 <0>        -0.4773
     21 C16         5.8397    0.4327   -0.7135 C.ar      1 <0>         0.0995
     22 C17         4.5181    0.3339   -1.1797 C.ar      1 <0>        -0.0763
     23 C18         4.2699   -0.0030   -2.5083 C.ar      1 <0>        -0.0676
     24 C19         5.3261   -0.2494   -3.3583 C.ar      1 <0>        -0.1328
     25 C20         6.6314   -0.1579   -2.8978 C.ar      1 <0>        -0.0892
     26 C21         6.8918    0.1798   -1.5872 C.ar      1 <0>        -0.1316
     27 C22         6.9511    0.9825    1.4822 C.3       1 <0>         0.1368
     28 C23         6.8909    0.0040    2.6584 C.3       1 <0>        -0.1605
     29 C24         8.0798    0.2577    3.5881 C.3       1 <0>        -0.0021
     30 C25         8.1380    2.5998    2.9687 C.3       1 <0>         0.0042
     31 C26         6.9509    2.4160    2.0205 C.3       1 <0>        -0.1610
     32 C27         9.0806    1.8809    5.0795 C.3       1 <0>         0.0614
     33 C28         8.7995    1.0523    6.3064 C.ar      1 <0>         0.0502
     34 C29         9.4029   -0.1831    6.4495 C.ar      1 <0>        -0.1466
     35 C30         9.1380   -0.9372    7.5821 C.ar      1 <0>        -0.0672
     36 C31         8.2721   -0.4183    8.5328 C.ar      1 <0>        -0.1343
     37 C32         7.7061    0.8244    8.3212 C.ar      1 <0>         0.1118
     38 N4          7.9850    1.5164    7.2336 N.ar      1 <0>        -0.4666
     39 H1          2.3765    6.7929   -2.0110 H         1 <0>         0.0768
     40 H2          3.7999    6.9159   -0.9494 H         1 <0>         0.0840
     41 H3          3.8002    5.7667   -2.3087 H         1 <0>         0.0868
     42 H4          2.4678    3.5378   -2.0509 H         1 <0>         0.1742
     43 H5          2.8251    7.4001    1.1771 H         1 <0>         0.1209
     44 H6          2.1256    7.1749    3.5180 H         1 <0>         0.1275
     45 H7          1.2266    5.0436    4.3536 H         1 <0>         0.1248
     46 H8          1.0176    3.1115    2.8484 H         1 <0>         0.1183
     47 H9         -0.7876   -0.5673    0.0062 H         1 <0>         0.4314
     48 H10         4.1708    1.1856    2.0153 H         1 <0>         0.1699
     49 H11         3.2546   -0.0756   -2.8691 H         1 <0>         0.1234
     50 H12         5.1368   -0.5153   -4.3877 H         1 <0>         0.1294
     51 H13         7.4516   -0.3534   -3.5728 H         1 <0>         0.1302
     52 H14         7.9119    0.2482   -1.2391 H         1 <0>         0.1177
     53 H15         7.8617    0.8088    0.9089 H         1 <0>         0.1153
     54 H16         5.9612    0.1521    3.2078 H         1 <0>         0.0957
     55 H17         6.9338   -1.0186    2.2836 H         1 <0>         0.1224
     56 H18         9.0090    0.0960    3.0418 H         1 <0>         0.1377
     57 H19         8.0320   -0.4279    4.4341 H         1 <0>         0.1320
     58 H20         9.0670    2.4271    2.4253 H         1 <0>         0.1369
     59 H21         8.1324    3.6152    3.3650 H         1 <0>         0.1389
     60 H22         7.0367    3.1166    1.1900 H         1 <0>         0.1216
     61 H23         6.0218    2.6022    2.5593 H         1 <0>         0.0976
     62 H24        10.0499    1.6015    4.6666 H         1 <0>         0.1459
     63 H25         9.0911    2.9370    5.3489 H         1 <0>         0.1462
     64 H26        10.0726   -0.5559    5.6886 H         1 <0>         0.1443
     65 H27         9.5948   -1.9060    7.7206 H         1 <0>         0.1501
     66 H28         8.0432   -0.9782    9.4276 H         1 <0>         0.1516
     67 H29         7.0307    1.2356    9.0569 H         1 <0>         0.1723
     68 N5          8.0079    1.6460    4.0909 N.4       1 <0>        -0.3947
     69 H30         7.0984    1.7888    4.5456 H         1 <0>         0.4319
@<TRIPOS>BOND
     1    1    2 1
     2    1   39 1
     3    1   40 1
     4    1   41 1
     5    2    6 1
     6    2    3 1
     7    3    4 2
     8    3   42 1
     9    4    5 1
    10    4   11 1
    11    5   10 ar
    12    5    6 ar
    13    6    7 ar
    14    7    8 ar
    15    7   43 1
    16    8    9 ar
    17    8   44 1
    18    9   10 ar
    19    9   45 1
    20   10   46 1
    21   11   16 1
    22   11   12 2
    23   12   13 1
    24   12   18 1
    25   13   14 2
    26   13   15 am
    27   15   16 am
    28   15   47 1
    29   16   17 2
    30   18   22 1
    31   18   19 2
    32   19   20 1
    33   19   48 1
    34   20   21 1
    35   20   27 1
    36   21   26 ar
    37   21   22 ar
    38   22   23 ar
    39   23   24 ar
    40   23   49 1
    41   24   25 ar
    42   24   50 1
    43   25   26 ar
    44   25   51 1
    45   26   52 1
    46   27   31 1
    47   27   28 1
    48   27   53 1
    49   28   29 1
    50   28   54 1
    51   28   55 1
    52   29   56 1
    53   29   57 1
    54   29   68 1
    55   30   31 1
    56   30   58 1
    57   30   59 1
    58   30   68 1
    59   31   60 1
    60   31   61 1
    61   32   33 1
    62   32   62 1
    63   32   63 1
    64   32   68 1
    65   33   38 ar
    66   33   34 ar
    67   34   35 ar
    68   34   64 1
    69   35   36 ar
    70   35   65 1
    71   36   37 ar
    72   36   66 1
    73   37   38 ar
    74   37   67 1
    75   68   69 1
@<TRIPOS>MOLECULE
ZINC02572833
   60    65     0     0     0
SMALL
USER_CHARGES
3-(1H-indol-3-yl)-4-[1-[2-(2-piperidyl)ethyl]indol-3-yl]-pyrrole-2,5-dione
@<TRIPOS>ATOM
      1 C1         -5.7005    8.2507    4.3413 C.ar      1 <0>        -0.1358
      2 C2         -4.7036    8.0214    5.2788 C.ar      1 <0>        -0.0976
      3 C3         -3.4284    8.5038    5.0800 C.ar      1 <0>        -0.1256
      4 C4         -3.1316    9.2284    3.9301 C.ar      1 <0>         0.0927
      5 C5         -4.1433    9.4652    2.9850 C.ar      1 <0>        -0.0759
      6 C6         -5.4269    8.9662    3.1964 C.ar      1 <0>        -0.0757
      7 C7         -3.5140   10.2419    1.9024 C.2       1 <0>        -0.1429
      8 C8         -2.2108   10.4228    2.2615 C.2       1 <0>         0.1043
      9 N1         -1.9791    9.8245    3.4619 N.pl3     1 <0>        -0.5847
     10 H1         -1.1255    9.8183    3.9225 H         1 <0>         0.4213
     11 C9         -4.1658   10.7319    0.6762 C.2       1 <0>        -0.0145
     12 C10        -4.0230   10.2196   -0.6080 C.2       1 <0>        -0.0465
     13 C11        -4.8725   11.0573   -1.4798 C.2       1 <0>         0.5572
     14 O1         -5.0074   10.9220   -2.6795 O.2       1 <0>        -0.4471
     15 N2         -5.4743   11.9911   -0.7237 N.am      1 <0>        -0.6896
     16 C12        -5.1044   11.8674    0.5622 C.2       1 <0>         0.5519
     17 O2         -5.4793   12.5717    1.4783 O.2       1 <0>        -0.4388
     18 C13        -3.1890    9.0773   -1.0178 C.2       1 <0>        -0.1102
     19 C14        -3.4569    7.7561   -0.8112 C.2       1 <0>         0.0910
     20 N3         -2.4516    6.9983   -1.3287 N.pl3     1 <0>        -0.4813
     21 C15        -1.4910    7.8048   -1.9028 C.ar      1 <0>         0.0941
     22 C16        -1.9041    9.1372   -1.7367 C.ar      1 <0>        -0.0746
     23 C17        -1.1177   10.1780   -2.2250 C.ar      1 <0>        -0.0639
     24 C18         0.0658    9.8937   -2.8708 C.ar      1 <0>        -0.1344
     25 C19         0.4750    8.5785   -3.0356 C.ar      1 <0>        -0.0898
     26 C20        -0.2929    7.5388   -2.5572 C.ar      1 <0>        -0.1363
     27 C21        -2.4003    5.5348   -1.2874 C.3       1 <0>         0.1029
     28 C22        -1.5736    5.0873   -0.0803 C.3       1 <0>        -0.1687
     29 C23        -1.5200    3.5588   -0.0372 C.3       1 <0>         0.0379
     30 H2         -2.5342    3.1596   -0.0419 H         1 <0>         0.1429
     31 C24        -0.8011    3.1098    1.2370 C.3       1 <0>        -0.1388
     32 C25        -0.7310    1.5804    1.2666 C.3       1 <0>        -0.1389
     33 C26        -0.0127    1.0858    0.0080 C.3       1 <0>        -0.1481
     34 C27        -0.7544    1.5936   -1.2306 C.3       1 <0>        -0.0025
     35 H3         -6.6957    7.8666    4.5101 H         1 <0>         0.1262
     36 H4         -4.9295    7.4597    6.1732 H         1 <0>         0.1284
     37 H5         -2.6600    8.3199    5.8164 H         1 <0>         0.1222
     38 H6         -6.2049    9.1439    2.4686 H         1 <0>         0.1197
     39 H7         -1.4744   10.9592    1.6814 H         1 <0>         0.1764
     40 H8         -6.0864   12.6640   -1.0602 H         1 <0>         0.4317
     41 H9         -4.3326    7.3699   -0.3107 H         1 <0>         0.1763
     42 H10        -1.4338   11.2029   -2.0977 H         1 <0>         0.1245
     43 H11         0.6780   10.6985   -3.2502 H         1 <0>         0.1298
     44 H12         1.4045    8.3672   -3.5434 H         1 <0>         0.1291
     45 H13         0.0352    6.5185   -2.6906 H         1 <0>         0.1102
     46 H14        -1.9395    5.1614   -2.2020 H         1 <0>         0.0790
     47 H15        -3.4120    5.1380   -1.2021 H         1 <0>         0.1063
     48 H16        -2.0343    5.4606    0.8342 H         1 <0>         0.1210
     49 H17        -0.5619    5.4840   -0.1656 H         1 <0>         0.0967
     50 H18         0.2087    3.5200    1.2489 H         1 <0>         0.0892
     51 H19        -1.3496    3.4659    2.1090 H         1 <0>         0.1125
     52 H20        -1.7406    1.1705    1.2946 H         1 <0>         0.0829
     53 H21        -0.1811    1.2574    2.1505 H         1 <0>         0.0960
     54 H22         0.0021   -0.0041    0.0020 H         1 <0>         0.1135
     55 H23         1.0097    1.4637    0.0003 H         1 <0>         0.0883
     56 H24        -0.2368    1.2551   -2.1281 H         1 <0>         0.1336
     57 H25        -1.7723    1.2035   -1.2296 H         1 <0>         0.1311
     58 N4         -0.7879    3.0685   -1.2206 N.4       1 <0>        -0.5191
     59 H26         0.1734    3.4285   -1.1966 H         1 <0>         0.4310
     60 H27        -1.2571    3.4020   -2.0707 H         1 <0>         0.4295
@<TRIPOS>BOND
     1    1    6 ar
     2    1    2 ar
     3    1   35 1
     4    2    3 ar
     5    2   36 1
     6    3    4 ar
     7    3   37 1
     8    4    9 1
     9    4    5 ar
    10    5    6 ar
    11    5    7 1
    12    6   38 1
    13    7    8 2
    14    7   11 1
    15    8    9 1
    16    8   39 1
    17    9   10 1
    18   11   16 1
    19   11   12 2
    20   12   13 1
    21   12   18 1
    22   13   14 2
    23   13   15 am
    24   15   16 am
    25   15   40 1
    26   16   17 2
    27   18   22 1
    28   18   19 2
    29   19   20 1
    30   19   41 1
    31   20   21 1
    32   20   27 1
    33   21   26 ar
    34   21   22 ar
    35   22   23 ar
    36   23   24 ar
    37   23   42 1
    38   24   25 ar
    39   24   43 1
    40   25   26 ar
    41   25   44 1
    42   26   45 1
    43   27   28 1
    44   27   46 1
    45   27   47 1
    46   28   29 1
    47   28   48 1
    48   28   49 1
    49   29   30 1
    50   29   31 1
    51   29   58 1
    52   31   32 1
    53   31   50 1
    54   31   51 1
    55   32   33 1
    56   32   52 1
    57   32   53 1
    58   33   34 1
    59   33   54 1
    60   33   55 1
    61   34   56 1
    62   34   57 1
    63   34   58 1
    64   58   59 1
    65   58   60 1
@<TRIPOS>MOLECULE
ZINC03871741
   60    65     0     0     0
SMALL
USER_CHARGES
3-(1H-indol-3-yl)-4-[1-[2-(2-piperidyl)ethyl]indol-3-yl]-pyrrole-2,5-dione
@<TRIPOS>ATOM
      1 C1         -5.3940   -5.2773   -2.2459 C.ar      1 <0>        -0.1377
      2 C2         -4.9833   -5.6669   -0.9790 C.ar      1 <0>        -0.0992
      3 C3         -5.6400   -5.2110    0.1431 C.ar      1 <0>        -0.1253
      4 C4         -6.7260   -4.3517    0.0108 C.ar      1 <0>         0.0929
      5 C5         -7.1408   -3.9582   -1.2721 C.ar      1 <0>        -0.0760
      6 C6         -6.4671   -4.4271   -2.3980 C.ar      1 <0>        -0.0761
      7 C7         -8.2939   -3.0634   -1.0696 C.2       1 <0>        -0.1425
      8 C8         -8.4859   -2.9768    0.2778 C.2       1 <0>         0.1060
      9 N1         -7.5633   -3.7424    0.9223 N.pl3     1 <0>        -0.5845
     10 H1         -7.5010   -3.8423    1.8851 H         1 <0>         0.4219
     11 C9         -9.0805   -2.3898   -2.1164 C.2       1 <0>        -0.0173
     12 C10        -9.0308   -1.0448   -2.4637 C.2       1 <0>        -0.0443
     13 C11        -9.9987   -0.8706   -3.5665 C.2       1 <0>         0.5565
     14 O1        -10.2369    0.1723   -4.1423 O.2       1 <0>        -0.4459
     15 N2        -10.5720   -2.0579   -3.8260 N.am      1 <0>        -0.6896
     16 C12       -10.0845   -3.0061   -3.0082 C.2       1 <0>         0.5521
     17 O2        -10.4113   -4.1762   -3.0057 O.2       1 <0>        -0.4394
     18 C13        -8.1811   -0.0052   -1.8592 C.2       1 <0>        -0.1083
     19 C14        -6.8414    0.1655   -2.0491 C.2       1 <0>         0.0829
     20 N3         -6.4079    1.2325   -1.3236 N.pl3     1 <0>        -0.4814
     21 C15        -7.4567    1.7952   -0.6262 C.ar      1 <0>         0.0969
     22 C16        -8.6115    1.0551   -0.9308 C.ar      1 <0>        -0.0764
     23 C17        -9.8347    1.4053   -0.3639 C.ar      1 <0>        -0.0675
     24 C18        -9.9037    2.4743    0.5029 C.ar      1 <0>        -0.1326
     25 C19        -8.7650    3.2079    0.8019 C.ar      1 <0>        -0.0896
     26 C20        -7.5490    2.8755    0.2448 C.ar      1 <0>        -0.1318
     27 C21        -5.0239    1.7112   -1.2840 C.3       1 <0>         0.1030
     28 C22        -4.3079    1.1022   -0.0767 C.3       1 <0>        -0.1690
     29 C23        -2.8625    1.6020   -0.0354 C.3       1 <0>         0.0379
     30 H2         -2.8550    2.6920   -0.0415 H         1 <0>         0.1423
     31 C24        -2.1837    1.0946    1.2388 C.3       1 <0>        -0.1390
     32 C25        -0.7310    1.5804    1.2666 C.3       1 <0>        -0.1388
     33 C26        -0.0127    1.0858    0.0080 C.3       1 <0>        -0.1482
     34 C27        -0.7544    1.5936   -1.2306 C.3       1 <0>        -0.0025
     35 H3         -4.8697   -5.6422   -3.1167 H         1 <0>         0.1255
     36 H4         -4.1404   -6.3336   -0.8715 H         1 <0>         0.1279
     37 H5         -5.3122   -5.5208    1.1245 H         1 <0>         0.1224
     38 H6         -6.7850   -4.1258   -3.3852 H         1 <0>         0.1194
     39 H7         -9.2550   -2.3918    0.7602 H         1 <0>         0.1772
     40 H8        -11.2439   -2.2095   -4.5090 H         1 <0>         0.4319
     41 H9         -6.2189   -0.4521   -2.6794 H         1 <0>         0.1732
     42 H10       -10.7225    0.8351   -0.5941 H         1 <0>         0.1238
     43 H11       -10.8501    2.7463    0.9464 H         1 <0>         0.1297
     44 H12        -8.8319    4.0475    1.4780 H         1 <0>         0.1302
     45 H13        -6.6687    3.4537    0.4841 H         1 <0>         0.1175
     46 H14        -5.0175    2.7979   -1.2000 H         1 <0>         0.1018
     47 H15        -4.5105    1.4145   -2.1986 H         1 <0>         0.0832
     48 H16        -4.3143    0.0154   -0.1607 H         1 <0>         0.0976
     49 H17        -4.8213    1.3989    0.8379 H         1 <0>         0.1200
     50 H18        -2.7126    1.4792    2.1108 H         1 <0>         0.1121
     51 H19        -2.2037    0.0048    1.2526 H         1 <0>         0.0895
     52 H20        -0.2306    1.1853    2.1506 H         1 <0>         0.0960
     53 H21        -0.7119    2.6699    1.2925 H         1 <0>         0.0827
     54 H22         0.0021   -0.0041    0.0020 H         1 <0>         0.0886
     55 H23         1.0097    1.4637    0.0003 H         1 <0>         0.1134
     56 H24        -0.7568    2.6836   -1.2310 H         1 <0>         0.1309
     57 H25        -0.2531    1.2312   -2.1281 H         1 <0>         0.1338
     58 N4         -2.1426    1.0939   -1.2187 N.4       1 <0>        -0.5187
     59 H26        -2.6234    1.4107   -2.0689 H         1 <0>         0.4295
     60 H27        -2.1324    0.0675   -1.1936 H         1 <0>         0.4315
@<TRIPOS>BOND
     1    1    6 ar
     2    1    2 ar
     3    1   35 1
     4    2    3 ar
     5    2   36 1
     6    3    4 ar
     7    3   37 1
     8    4    9 1
     9    4    5 ar
    10    5    6 ar
    11    5    7 1
    12    6   38 1
    13    7    8 2
    14    7   11 1
    15    8    9 1
    16    8   39 1
    17    9   10 1
    18   11   16 1
    19   11   12 2
    20   12   13 1
    21   12   18 1
    22   13   14 2
    23   13   15 am
    24   15   16 am
    25   15   40 1
    26   16   17 2
    27   18   22 1
    28   18   19 2
    29   19   20 1
    30   19   41 1
    31   20   21 1
    32   20   27 1
    33   21   26 ar
    34   21   22 ar
    35   22   23 ar
    36   23   24 ar
    37   23   42 1
    38   24   25 ar
    39   24   43 1
    40   25   26 ar
    41   25   44 1
    42   26   45 1
    43   27   28 1
    44   27   46 1
    45   27   47 1
    46   28   29 1
    47   28   48 1
    48   28   49 1
    49   29   30 1
    50   29   31 1
    51   29   58 1
    52   31   32 1
    53   31   50 1
    54   31   51 1
    55   32   33 1
    56   32   52 1
    57   32   53 1
    58   33   34 1
    59   33   54 1
    60   33   55 1
    61   34   56 1
    62   34   57 1
    63   34   58 1
    64   58   59 1
    65   58   60 1
@<TRIPOS>MOLECULE
ZINC03812168
   64    69     0     0     0
SMALL
USER_CHARGES
dimethylaminomethylBLAHdione
@<TRIPOS>ATOM
      1 C1         -3.6591   -3.4932   -0.5238 C.3       1 <0>        -0.0551
      2 C2         -2.4926   -2.9550   -2.5762 C.3       1 <0>        -0.0445
      3 C3         -2.6578   -1.3072   -0.8098 C.3       1 <0>        -0.0358
      4 C4         -2.4673   -1.1012    0.6860 C.3       1 <0>         0.0654
      5 H1         -3.1645   -1.7751    1.2185 H         1 <0>         0.0947
      6 C5         -2.7230    0.3270    1.1457 C.3       1 <0>        -0.1345
      7 C6         -2.5225    1.3892    0.0793 C.3       1 <0>         0.1021
      8 N1         -1.1339    1.8402    0.0096 N.pl3     1 <0>        -0.4782
      9 C7         -0.0126    1.0747    0.0080 C.2       1 <0>         0.0759
     10 C8          1.1009    1.8532    0.0015 C.2       1 <0>        -0.1124
     11 C9          0.6150    3.2557   -0.0375 C.ar      1 <0>        -0.0829
     12 C10        -0.7846    3.1777   -0.0610 C.ar      1 <0>         0.0902
     13 C11        -1.5354    4.3459   -0.1576 C.ar      1 <0>        -0.1369
     14 C12        -0.9089    5.5725   -0.1941 C.ar      1 <0>        -0.0870
     15 C13         0.4756    5.6497   -0.1263 C.ar      1 <0>        -0.1387
     16 C14         1.2312    4.5008   -0.0317 C.ar      1 <0>        -0.0542
     17 C15         2.5293    1.4989    0.0288 C.2       1 <0>        -0.0575
     18 C16         3.2121    0.4058    0.5546 C.2       1 <0>        -0.0318
     19 C17         2.7061   -0.7744    1.2787 C.2       1 <0>        -0.1258
     20 C18         1.4206   -1.0272    1.6582 C.2       1 <0>         0.1002
     21 N2          1.3169   -2.2819    2.1682 N.pl3     1 <0>        -0.4767
     22 C19         2.5720   -2.8515    2.2654 C.ar      1 <0>         0.0850
     23 C20         3.5031   -1.9214    1.7684 C.ar      1 <0>        -0.0774
     24 C21         4.8560   -2.2219    1.8708 C.ar      1 <0>        -0.0704
     25 C22         5.2705   -3.4529    2.3343 C.ar      1 <0>        -0.1401
     26 C23         4.3436   -4.3996    2.7389 C.ar      1 <0>        -0.0882
     27 C24         3.0009   -4.0952    2.7142 C.ar      1 <0>        -0.1389
     28 C25         0.0751   -2.9597    2.5494 C.3       1 <0>         0.1083
     29 C26        -0.9464   -2.8428    1.4151 C.3       1 <0>         0.0261
     30 O1         -1.1329   -1.4683    1.0718 O.3       1 <0>        -0.3787
     31 C27         4.6407    0.6399    0.2297 C.2       1 <0>         0.5576
     32 O2          5.5801   -0.0982    0.4313 O.2       1 <0>        -0.4501
     33 N3          4.7726    1.8285   -0.3761 N.am      1 <0>        -0.6884
     34 C28         3.5684    2.3701   -0.5773 C.2       1 <0>         0.5496
     35 O3          3.3676    3.4021   -1.1909 O.2       1 <0>        -0.4507
     36 H2         -4.6064   -3.1194   -0.9125 H         1 <0>         0.1320
     37 H3         -3.5558   -4.5494   -0.7723 H         1 <0>         0.1292
     38 H4         -3.6371   -3.3709    0.5591 H         1 <0>         0.1176
     39 H5         -1.6226   -2.4415   -2.9853 H         1 <0>         0.1242
     40 H6         -2.4140   -4.0227   -2.7812 H         1 <0>         0.1266
     41 H7         -3.3976   -2.5618   -3.0392 H         1 <0>         0.1281
     42 H8         -3.6420   -0.9427   -1.1043 H         1 <0>         0.1512
     43 H9         -1.8892   -0.7576   -1.3530 H         1 <0>         0.1401
     44 H10        -3.7581    0.3948    1.5248 H         1 <0>         0.1133
     45 H11        -2.0693    0.5478    1.9998 H         1 <0>         0.1111
     46 H12        -2.8851    1.1097   -0.8943 H         1 <0>         0.0847
     47 H13        -3.1227    2.2722    0.3811 H         1 <0>         0.1001
     48 H14         0.0021   -0.0041    0.0020 H         1 <0>         0.1790
     49 H15        -2.6150    4.2937   -0.2077 H         1 <0>         0.1188
     50 H16        -1.4958    6.4773   -0.2780 H         1 <0>         0.1308
     51 H17         0.9608    6.6157   -0.1385 H         1 <0>         0.1284
     52 H18         2.3072    4.5814    0.0562 H         1 <0>         0.1320
     53 H19         0.6104   -0.3170    1.5917 H         1 <0>         0.1871
     54 H20         5.6126   -1.4944    1.6337 H         1 <0>         0.1514
     55 H21         6.3257   -3.6782    2.3787 H         1 <0>         0.1280
     56 H22         4.6724   -5.3687    3.0799 H         1 <0>         0.1300
     57 H23         2.2783   -4.8297    3.0422 H         1 <0>         0.1175
     58 H24         0.2774   -4.0129    2.7458 H         1 <0>         0.1169
     59 H25        -0.3264   -2.4933    3.4522 H         1 <0>         0.0971
     60 H26        -0.5876   -3.3893    0.5423 H         1 <0>         0.0664
     61 H27        -1.8985   -3.2659    1.7424 H         1 <0>         0.0864
     62 H28         5.6204    2.2247   -0.6318 H         1 <0>         0.4332
     63 N4         -2.5268   -2.7479   -1.1131 N.4       1 <0>        -0.4048
     64 H29        -1.6507   -3.0961   -0.7064 H         1 <0>         0.4232
@<TRIPOS>BOND
     1    1   36 1
     2    1   37 1
     3    1   38 1
     4    1   63 1
     5    2   39 1
     6    2   40 1
     7    2   41 1
     8    2   63 1
     9    3    4 1
    10    3   42 1
    11    3   43 1
    12    3   63 1
    13    4    5 1
    14    4   30 1
    15    4    6 1
    16    6    7 1
    17    6   44 1
    18    6   45 1
    19    7    8 1
    20    7   46 1
    21    7   47 1
    22    8   12 1
    23    8    9 1
    24    9   10 2
    25    9   48 1
    26   10   11 1
    27   10   17 1
    28   11   16 ar
    29   11   12 ar
    30   12   13 ar
    31   13   14 ar
    32   13   49 1
    33   14   15 ar
    34   14   50 1
    35   15   16 ar
    36   15   51 1
    37   16   52 1
    38   17   34 1
    39   17   18 2
    40   18   19 1
    41   18   31 1
    42   19   23 1
    43   19   20 2
    44   20   21 1
    45   20   53 1
    46   21   22 1
    47   21   28 1
    48   22   27 ar
    49   22   23 ar
    50   23   24 ar
    51   24   25 ar
    52   24   54 1
    53   25   26 ar
    54   25   55 1
    55   26   27 ar
    56   26   56 1
    57   27   57 1
    58   28   29 1
    59   28   58 1
    60   28   59 1
    61   29   30 1
    62   29   60 1
    63   29   61 1
    64   31   32 2
    65   31   33 am
    66   33   34 am
    67   33   62 1
    68   34   35 2
    69   63   64 1
@<TRIPOS>MOLECULE
ZINC22028948
   62    67     0     0     0
SMALL
USER_CHARGES
3-(1H-indol-3-yl)-4-[1-(3-piperazin-1-ylpropyl)indol-3-yl]pyrrole-2,5-dione
@<TRIPOS>ATOM
      1 C1          3.9565    0.3451   -3.3387 C.ar      1 <0>        -0.1413
      2 C2          5.2413    0.0942   -2.8784 C.ar      1 <0>        -0.1013
      3 C3          5.5816    0.3553   -1.5691 C.ar      1 <0>        -0.1300
      4 C4          4.6322    0.8761   -0.6957 C.ar      1 <0>         0.0868
      5 C5          3.3323    1.1301   -1.1630 C.ar      1 <0>        -0.0780
      6 C6          3.0022    0.8609   -2.4896 C.ar      1 <0>        -0.0718
      7 C7          2.5851    1.6686   -0.0128 C.2       1 <0>        -0.1394
      8 C8          3.4587    1.7070    1.0338 C.2       1 <0>         0.1146
      9 N1          4.6712    1.2331    0.6362 N.pl3     1 <0>        -0.5979
     10 H1          5.6015    1.1130    1.2108 H         1 <0>         0.4465
     11 C9          1.1739    2.0888    0.0021 C.2       1 <0>        -0.0301
     12 C10         0.6900    3.3918    0.0132 C.2       1 <0>        -0.0354
     13 C11        -0.7834    3.2814    0.0263 C.2       1 <0>         0.5502
     14 O1         -1.5637    4.2124    0.0377 O.2       1 <0>        -0.4491
     15 N2         -1.1164    1.9796    0.0175 N.am      1 <0>        -0.7046
     16 C12        -0.0144    1.2107    0.0087 C.2       1 <0>         0.5616
     17 O2          0.0021   -0.0041    0.0020 O.2       1 <0>        -0.4483
     18 C13         1.4849    4.6314    0.0125 C.2       1 <0>        -0.1257
     19 C14         2.1535    5.1710   -1.0467 C.2       1 <0>         0.0939
     20 N3          2.7719    6.3205   -0.6608 N.pl3     1 <0>        -0.4763
     21 C15         2.5261    6.5719    0.6731 C.ar      1 <0>         0.0976
     22 C16         1.7088    5.5354    1.1544 C.ar      1 <0>        -0.0763
     23 C17         1.3036    5.5276    2.4870 C.ar      1 <0>        -0.0711
     24 C18         1.7001    6.5458    3.3266 C.ar      1 <0>        -0.1362
     25 C19         2.5026    7.5726    2.8514 C.ar      1 <0>        -0.0954
     26 C20         2.9151    7.5905    1.5365 C.ar      1 <0>        -0.1277
     27 C21         3.5828    7.1696   -1.5370 C.3       1 <0>         0.1094
     28 C22         5.0583    6.7928   -1.3892 C.3       1 <0>        -0.1440
     29 C23         5.9052    7.6795   -2.3043 C.3       1 <0>         0.0559
     30 N4          7.3219    7.3178   -2.1625 N.3       1 <0>        -0.5372
     31 C24         7.5001    5.8598   -2.2070 C.3       1 <0>         0.0139
     32 C25         8.9749    5.5215   -1.9767 C.3       1 <0>         0.0026
     33 N5          9.7923    6.1808   -3.0048 N.4       1 <0>        -0.5383
     34 C26         9.6141    7.6388   -2.9603 C.3       1 <0>         0.0009
     35 C27         8.1393    7.9770   -3.1905 C.3       1 <0>         0.0215
     36 H2          3.7036    0.1353   -4.3675 H         1 <0>         0.1240
     37 H3          5.9816   -0.3101   -3.5530 H         1 <0>         0.1246
     38 H4          6.5843    0.1556   -1.2211 H         1 <0>         0.1188
     39 H5          2.0031    1.0555   -2.8505 H         1 <0>         0.1187
     40 H6          3.2236    2.0580    2.0277 H         1 <0>         0.1746
     41 H7         -2.1756    1.6828    0.0182 H         1 <0>         0.4602
     42 H8          2.1869    4.7504   -2.0408 H         1 <0>         0.1707
     43 H9          0.6788    4.7293    2.8596 H         1 <0>         0.1207
     44 H10         1.3843    6.5445    4.3594 H         1 <0>         0.1267
     45 H11         2.8067    8.3659    3.5182 H         1 <0>         0.1275
     46 H12         3.5395    8.3950    1.1768 H         1 <0>         0.1177
     47 H13         3.2698    7.0234   -2.5814 H         1 <0>         0.0941
     48 H14         3.4438    8.2242   -1.2568 H         1 <0>         0.0940
     49 H15         5.3712    6.9390   -0.3448 H         1 <0>         0.0855
     50 H16         5.1973    5.7382   -1.6694 H         1 <0>         0.0742
     51 H17         5.5922    7.5333   -3.3486 H         1 <0>         0.0508
     52 H18         5.7662    8.7341   -2.0241 H         1 <0>         0.0955
     53 H19         6.8885    5.3915   -1.4217 H         1 <0>         0.1256
     54 H20         7.1855    5.4818   -3.1909 H         1 <0>         0.0608
     55 H21         9.2810    5.8750   -0.9810 H         1 <0>         0.1355
     56 H22         9.1152    4.4322   -2.0381 H         1 <0>         0.1367
     57 H23        10.8538    5.9487   -2.8337 H         1 <0>         0.4572
     58 H24         9.9287    8.0168   -1.9764 H         1 <0>         0.1359
     59 H25        10.2256    8.1071   -3.7456 H         1 <0>         0.1384
     60 H26         7.8320    7.6233   -4.1857 H         1 <0>         0.0610
     61 H27         7.9979    9.0661   -3.1287 H         1 <0>         0.1229
     62 H28         9.4933    5.8180   -3.9993 H         1 <0>         0.4474
@<TRIPOS>BOND
     1    1    6 ar
     2    1    2 ar
     3    1   36 1
     4    2    3 ar
     5    2   37 1
     6    3    4 ar
     7    3   38 1
     8    4    9 1
     9    4    5 ar
    10    5    6 ar
    11    5    7 1
    12    6   39 1
    13    7    8 2
    14    7   11 1
    15    8    9 1
    16    8   40 1
    17    9   10 1
    18   11   16 1
    19   11   12 2
    20   12   13 1
    21   12   18 1
    22   13   14 2
    23   13   15 am
    24   15   16 am
    25   15   41 1
    26   16   17 2
    27   18   22 1
    28   18   19 2
    29   19   20 1
    30   19   42 1
    31   20   21 1
    32   20   27 1
    33   21   26 ar
    34   21   22 ar
    35   22   23 ar
    36   23   24 ar
    37   23   43 1
    38   24   25 ar
    39   24   44 1
    40   25   26 ar
    41   25   45 1
    42   26   46 1
    43   27   28 1
    44   27   47 1
    45   27   48 1
    46   28   29 1
    47   28   49 1
    48   28   50 1
    49   29   30 1
    50   29   51 1
    51   29   52 1
    52   30   35 1
    53   30   31 1
    54   31   32 1
    55   31   53 1
    56   31   54 1
    57   32   33 1
    58   32   55 1
    59   32   56 1
    60   33   34 1
    61   33   57 1
    62   33   62 1
    63   34   35 1
    64   34   58 1
    65   34   59 1
    66   35   60 1
    67   35   61 1
@<TRIPOS>MOLECULE
ZINC03964325
   57    59     0     0     0
SMALL
USER_CHARGES

@<TRIPOS>ATOM
      1 C1          0.1489    2.0884    0.1150 C.3       1 <0>        -0.1876
      2 C2          0.1348    0.5603    0.1888 C.3       1 <0>        -0.0191
      3 N1         -1.2520    0.0881    0.2979 N.4       1 <0>        -0.3822
      4 C3         -1.9779    0.4111   -0.9377 C.3       1 <0>        -0.0142
      5 C4         -3.4549    0.0484   -0.7712 C.3       1 <0>        -0.1895
      6 C5         -1.2593   -1.3663    0.5041 C.3       1 <0>        -0.0265
      7 C6         -0.6131   -1.6936    1.8518 C.3       1 <0>         0.0952
      8 N2         -0.6203   -3.1440    2.0575 N.am      1 <0>        -0.7289
      9 C7         -0.0988   -3.6675    3.1846 C.2       1 <0>         0.6111
     10 O1          0.3779   -2.9358    4.0309 O.2       1 <0>        -0.5184
     11 C8         -0.1061   -5.1270    3.3915 C.2       1 <0>        -0.2420
     12 C9          0.9071   -6.0320    3.0089 C.2       1 <0>        -0.0577
     13 C10         0.4868   -7.2892    3.3960 C.2       1 <0>        -0.0075
     14 N3         -0.7476   -7.1595    3.9982 N.pl3     1 <0>        -0.4910
     15 H1         -1.2731   -7.8879    4.3645 H         1 <0>         0.4270
     16 C11        -1.1044   -5.8642    4.0022 C.2       1 <0>         0.1158
     17 C12        -2.3825   -5.3072    4.5743 C.3       1 <0>        -0.0999
     18 C13         1.1957   -8.4957    3.2079 C.2       1 <0>         0.0729
     19 C14         0.5100   -9.6674    2.9570 C.2       1 <0>        -0.1889
     20 C15         1.0648  -11.0377    2.8871 C.ar      1 <0>        -0.0736
     21 C16         2.3472  -11.5557    3.0375 C.ar      1 <0>        -0.1000
     22 C17         2.5553  -12.9162    2.9116 C.ar      1 <0>         0.0861
     23 C18         1.4888  -13.7593    2.6366 C.ar      1 <0>        -0.1139
     24 C19         0.2139  -13.2531    2.4856 C.ar      1 <0>        -0.1021
     25 C20        -0.0144  -11.8871    2.6092 C.ar      1 <0>         0.1282
     26 N4         -1.1765  -11.1301    2.5069 N.am      1 <0>        -0.6466
     27 C21        -0.9294   -9.8245    2.7079 C.2       1 <0>         0.5595
     28 O2         -1.7538   -8.9280    2.6842 O.2       1 <0>        -0.5156
     29 F1          3.7984  -13.4252    3.0561 F         1 <0>        -0.1318
     30 C22         2.1990   -5.6919    2.3116 C.3       1 <0>        -0.0931
     31 H2          1.1793    2.4435    0.1331 H         1 <0>         0.1076
     32 H3         -0.3308    2.4121   -0.8087 H         1 <0>         0.0811
     33 H4         -0.3916    2.4984    0.9682 H         1 <0>         0.0809
     34 H5          0.5888    0.1488   -0.7126 H         1 <0>         0.1317
     35 H6          0.6996    0.2334    1.0619 H         1 <0>         0.1337
     36 H7         -1.8867    1.4775   -1.1444 H         1 <0>         0.1351
     37 H8         -1.5554   -0.1571   -1.7664 H         1 <0>         0.1307
     38 H9         -3.5537   -1.0316   -0.6617 H         1 <0>         0.0802
     39 H10        -3.8523    0.5414    0.1160 H         1 <0>         0.0808
     40 H11        -4.0109    0.3769   -1.6492 H         1 <0>         0.1074
     41 H12        -2.2871   -1.7292    0.4963 H         1 <0>         0.1397
     42 H13        -0.6973   -1.8494   -0.2952 H         1 <0>         0.1376
     43 H14         0.4147   -1.3306    1.8596 H         1 <0>         0.0893
     44 H15        -1.1751   -1.2105    2.6511 H         1 <0>         0.0890
     45 H16        -1.0005   -3.7277    1.3824 H         1 <0>         0.4099
     46 H17        -3.1529   -5.3000    3.8032 H         1 <0>         0.0840
     47 H18        -2.7087   -5.9289    5.4080 H         1 <0>         0.0782
     48 H19        -2.2103   -4.2898    4.9254 H         1 <0>         0.0840
     49 H20         2.2744   -8.5020    3.2604 H         1 <0>         0.1589
     50 H21         3.1765  -10.8977    3.2512 H         1 <0>         0.1436
     51 H22         1.6578  -14.8215    2.5394 H         1 <0>         0.1485
     52 H23        -0.6084  -13.9196    2.2712 H         1 <0>         0.1415
     53 H24        -2.0541  -11.4980    2.3189 H         1 <0>         0.4217
     54 H25         2.9686   -5.4822    3.0545 H         1 <0>         0.0785
     55 H26         2.5107   -6.5337    1.6932 H         1 <0>         0.0726
     56 H27         2.0522   -4.8138    1.6827 H         1 <0>         0.0634
     57 H28        -1.7009    0.5410    1.0799 H         1 <0>         0.4247
@<TRIPOS>BOND
     1    1    2 1
     2    1   31 1
     3    1   32 1
     4    1   33 1
     5    2    3 1
     6    2   34 1
     7    2   35 1
     8    3    4 1
     9    3    6 1
    10    3   57 1
    11    4    5 1
    12    4   36 1
    13    4   37 1
    14    5   38 1
    15    5   39 1
    16    5   40 1
    17    6    7 1
    18    6   41 1
    19    6   42 1
    20    7    8 1
    21    7   43 1
    22    7   44 1
    23    8    9 am
    24    8   45 1
    25    9   10 2
    26    9   11 1
    27   11   16 2
    28   11   12 1
    29   12   13 2
    30   12   30 1
    31   13   14 1
    32   13   18 1
    33   14   15 1
    34   14   16 1
    35   16   17 1
    36   17   46 1
    37   17   47 1
    38   17   48 1
    39   18   19 2
    40   18   49 1
    41   19   27 1
    42   19   20 1
    43   20   25 ar
    44   20   21 ar
    45   21   22 ar
    46   21   50 1
    47   22   23 ar
    48   22   29 1
    49   23   24 ar
    50   23   51 1
    51   24   25 ar
    52   24   52 1
    53   25   26 1
    54   26   27 am
    55   26   53 1
    56   27   28 2
    57   30   54 1
    58   30   55 1
    59   30   56 1
@<TRIPOS>MOLECULE
ZINC18825339
   59    62     0     0     0
SMALL
USER_CHARGES
5-[(Z)-(5-fluoro-2-oxo-indolin-3-ylidene)methyl]-N-[(2R)-2-hydroxy-3-morpholino-propyl]-2,4-dimethyl-1H-pyrrole-3-carboxamide
@<TRIPOS>ATOM
      1 C1          3.5607    0.7280    0.3667 C.3       1 <0>        -0.0956
      2 C2          2.0758    0.7165    0.1102 C.2       1 <0>        -0.0564
      3 C3          1.2591    1.8188   -0.0477 C.2       1 <0>        -0.0308
      4 N1         -0.0271    1.3691   -0.2640 N.pl3     1 <0>        -0.5068
      5 H1         -0.8436    2.0903   -0.4163 H         1 <0>         0.4494
      6 C4         -0.0354    0.0257   -0.2455 C.2       1 <0>         0.1277
      7 C5          1.2525   -0.4230   -0.0155 C.2       1 <0>        -0.2308
      8 C6          1.6847   -1.8291    0.0810 C.2       1 <0>         0.5980
      9 O1          2.0430   -2.4250   -0.9167 O.2       1 <0>        -0.5421
     10 N2          1.6827   -2.4542    1.2750 N.am      1 <0>        -0.7266
     11 C7          2.1121   -3.8516    1.3710 C.3       1 <0>         0.1299
     12 C8          2.0150   -4.3162    2.8255 C.3       1 <0>         0.1144
     13 H2          2.5334   -3.6206    3.5018 H         1 <0>         0.0568
     14 C9          2.5799   -5.7329    2.9471 C.3       1 <0>         0.0228
     15 N3          2.4867   -6.1790    4.3436 N.3       1 <0>        -0.5349
     16 C10         3.3671   -5.3829    5.2109 C.3       1 <0>         0.0083
     17 C11         3.1945   -5.8402    6.6618 C.3       1 <0>         0.0618
     18 O2          3.4694   -7.2408    6.7508 O.3       1 <0>        -0.3843
     19 C12         2.6296   -8.0463    5.9193 C.3       1 <0>         0.0614
     20 C13         2.7965   -7.6114    4.4609 C.3       1 <0>         0.0172
     21 O3          0.6463   -4.3123    3.2364 O.3       1 <0>        -0.5882
     22 C14        -1.2476   -0.8477   -0.4426 C.3       1 <0>        -0.0994
     23 C15         1.6686    3.1691    0.0027 C.2       1 <0>         0.0908
     24 C16         0.8216    4.1284    0.5209 C.2       1 <0>        -0.2125
     25 C17         1.0162    5.5955    0.5210 C.ar      1 <0>        -0.0684
     26 C18         2.0202    6.4240    0.0297 C.ar      1 <0>        -0.1043
     27 C19         1.9118    7.7937    0.1786 C.ar      1 <0>         0.0808
     28 C20         0.8031    8.3379    0.8097 C.ar      1 <0>        -0.1198
     29 C21        -0.2000    7.5233    1.2941 C.ar      1 <0>        -0.1061
     30 C22        -0.1080    6.1430    1.1533 C.ar      1 <0>         0.1250
     31 N4         -0.9593    5.1144    1.5420 N.am      1 <0>        -0.6604
     32 C23        -0.4649    3.9133    1.1971 C.2       1 <0>         0.5647
     33 O4         -0.9909    2.8351    1.4086 O.2       1 <0>        -0.5132
     34 F1          2.8866    8.6030   -0.2904 F         1 <0>        -0.1355
     35 H3          3.9167    1.7678    0.4131 H         1 <0>         0.0672
     36 H4          4.0776    0.1994   -0.4478 H         1 <0>         0.0746
     37 H5          3.7717    0.2252    1.3221 H         1 <0>         0.0710
     38 H6          1.3586   -1.9152    2.1775 H         1 <0>         0.4262
     39 H7          1.4633   -4.4786    0.7417 H         1 <0>         0.0750
     40 H8          3.1531   -3.9398    1.0266 H         1 <0>         0.0785
     41 H9          2.0023   -6.4143    2.3052 H         1 <0>         0.0900
     42 H10         3.6334   -5.7360    2.6307 H         1 <0>         0.0465
     43 H11         4.4130   -5.5254    4.9015 H         1 <0>         0.0459
     44 H12         3.1012   -4.3189    5.1257 H         1 <0>         0.0881
     45 H13         3.8925   -5.2859    7.3064 H         1 <0>         0.1001
     46 H14         2.1618   -5.6458    6.9871 H         1 <0>         0.0615
     47 H15         2.9156   -9.1033    6.0238 H         1 <0>         0.1009
     48 H16         1.5805   -7.9185    6.2243 H         1 <0>         0.0621
     49 H17         2.1104   -8.1883    3.8234 H         1 <0>         0.0898
     50 H18         3.8332   -7.7899    4.1393 H         1 <0>         0.0455
     51 H19         0.3780   -4.6185    4.2583 H         1 <0>         0.4136
     52 H20        -0.9523   -1.9052   -0.3757 H         1 <0>         0.0845
     53 H21        -1.6843   -0.6508   -1.4328 H         1 <0>         0.0777
     54 H22        -1.9909   -0.6245    0.3369 H         1 <0>         0.0809
     55 H23         2.6624    3.4568   -0.3709 H         1 <0>         0.1579
     56 H24         2.8828    5.9984   -0.4614 H         1 <0>         0.1409
     57 H25         0.7239    9.4091    0.9228 H         1 <0>         0.1443
     58 H26        -1.0583    7.9589    1.7840 H         1 <0>         0.1386
     59 H27        -1.9003    5.3463    2.0623 H         1 <0>         0.4455
@<TRIPOS>BOND
     1    1    2 1
     2    1   35 1
     3    1   36 1
     4    1   37 1
     5    2    7 1
     6    2    3 2
     7    3    4 1
     8    3   23 1
     9    4    5 1
    10    4    6 1
    11    6    7 2
    12    6   22 1
    13    7    8 1
    14    8    9 2
    15    8   10 am
    16   10   11 1
    17   10   38 1
    18   11   12 1
    19   11   39 1
    20   11   40 1
    21   12   13 1
    22   12   14 1
    23   12   21 1
    24   14   15 1
    25   14   41 1
    26   14   42 1
    27   15   20 1
    28   15   16 1
    29   16   17 1
    30   16   43 1
    31   16   44 1
    32   17   18 1
    33   17   45 1
    34   17   46 1
    35   18   19 1
    36   19   20 1
    37   19   47 1
    38   19   48 1
    39   20   49 1
    40   20   50 1
    41   21   51 1
    42   22   52 1
    43   22   53 1
    44   22   54 1
    45   23   24 2
    46   23   55 1
    47   24   32 1
    48   24   25 1
    49   25   30 ar
    50   25   26 ar
    51   26   27 ar
    52   26   56 1
    53   27   28 ar
    54   27   34 1
    55   28   29 ar
    56   28   57 1
    57   29   30 ar
    58   29   58 1
    59   30   31 1
    60   31   32 am
    61   31   59 1
    62   32   33 2
@<TRIPOS>MOLECULE
ZINC18825344
   59    62     0     0     0
SMALL
USER_CHARGES
5-[(Z)-(5-fluoro-2-oxo-indolin-3-ylidene)methyl]-N-[(2S)-2-hydroxy-3-morpholino-propyl]-2,4-dimethyl-1H-pyrrole-3-carboxamide
@<TRIPOS>ATOM
      1 C1          4.7056    0.6287    1.0117 C.3       1 <0>        -0.0968
      2 C2          3.2464    0.8378    0.6983 C.2       1 <0>        -0.0523
      3 C3          2.5980    2.0501    0.5678 C.2       1 <0>        -0.0327
      4 N1          1.2732    1.7961    0.2789 N.pl3     1 <0>        -0.5060
      5 H1          0.5720    2.6311    0.1339 H         1 <0>         0.4496
      6 C4          1.0783    0.4679    0.2258 C.2       1 <0>         0.1246
      7 C5          2.2801   -0.1676    0.4808 C.2       1 <0>        -0.2308
      8 C6          2.5088   -1.6234    0.5191 C.2       1 <0>         0.5976
      9 O1          2.8262   -2.2159   -0.4944 O.2       1 <0>        -0.5428
     10 N2          2.3662   -2.2977    1.6773 N.am      1 <0>        -0.7254
     11 C7          2.5935   -3.7444    1.7154 C.3       1 <0>         0.1298
     12 C8          2.3672   -4.2590    3.1384 C.3       1 <0>         0.1172
     13 H2          1.3599   -4.0040    3.4994 H         1 <0>         0.0560
     14 C9          2.6045   -5.7699    3.1781 C.3       1 <0>         0.0219
     15 N3          2.3382   -6.2720    4.5327 N.3       1 <0>        -0.5356
     16 C10         2.9762   -7.5793    4.7450 C.3       1 <0>         0.0168
     17 C11         2.7241   -8.0365    6.1842 C.3       1 <0>         0.0612
     18 O2          1.3152   -8.0759    6.4267 O.3       1 <0>        -0.3844
     19 C12         0.6618   -6.8191    6.2299 C.3       1 <0>         0.0617
     20 C13         0.8930   -6.3496    4.7911 C.3       1 <0>         0.0111
     21 O3          3.2765   -3.6103    4.0297 O.3       1 <0>        -0.5892
     22 C14        -0.2328   -0.2165   -0.0637 C.3       1 <0>        -0.0987
     23 C15         3.1876    3.3256    0.7056 C.2       1 <0>         0.0935
     24 C16         2.4515    4.3746    1.2192 C.2       1 <0>        -0.2157
     25 C17         2.8515    5.7966    1.3077 C.ar      1 <0>        -0.0669
     26 C18         3.9943    6.4912    0.9234 C.ar      1 <0>        -0.1048
     27 C19         4.0710    7.8545    1.1363 C.ar      1 <0>         0.0814
     28 C20         3.0098    8.5263    1.7247 C.ar      1 <0>        -0.1204
     29 C21         1.8704    7.8457    2.1029 C.ar      1 <0>        -0.1055
     30 C22         1.7753    6.4739    1.8965 C.ar      1 <0>         0.1237
     31 N4          0.7622    5.5637    2.1775 N.am      1 <0>        -0.6596
     32 C23         1.1039    4.3195    1.8021 C.2       1 <0>         0.5657
     33 O4          0.4171    3.3209    1.9242 O.2       1 <0>        -0.5153
     34 F1          5.1807    8.5334    0.7715 F         1 <0>        -0.1355
     35 H3          5.1994    1.6049    1.1269 H         1 <0>         0.0668
     36 H4          5.1808    0.0720    0.1906 H         1 <0>         0.0744
     37 H5          4.8016    0.0567    1.9464 H         1 <0>         0.0741
     38 H6          2.0791   -1.7617    2.5940 H         1 <0>         0.4273
     39 H7          1.8935   -4.2437    1.0293 H         1 <0>         0.0777
     40 H8          3.6268   -3.9615    1.4070 H         1 <0>         0.0736
     41 H9          1.9304   -6.2658    2.4641 H         1 <0>         0.0486
     42 H10         3.6486   -5.9844    2.9062 H         1 <0>         0.0884
     43 H11         2.5501   -8.3132    4.0451 H         1 <0>         0.0451
     44 H12         4.0587   -7.4917    4.5704 H         1 <0>         0.0900
     45 H13         3.1515   -9.0395    6.3305 H         1 <0>         0.1008
     46 H14         3.1986   -7.3305    6.8817 H         1 <0>         0.0620
     47 H15        -0.4170   -6.9344    6.4112 H         1 <0>         0.1000
     48 H16         1.0741   -6.0778    6.9303 H         1 <0>         0.0613
     49 H17         0.4415   -5.3564    4.6504 H         1 <0>         0.0873
     50 H18         0.4333   -7.0637    4.0920 H         1 <0>         0.0461
     51 H19         3.2627   -3.8533    5.1024 H         1 <0>         0.4141
     52 H20        -0.0899   -1.3070   -0.0417 H         1 <0>         0.0829
     53 H21        -0.5927    0.0862   -1.0581 H         1 <0>         0.0781
     54 H22        -0.9728    0.0718    0.6974 H         1 <0>         0.0803
     55 H23         4.2335    3.4835    0.4037 H         1 <0>         0.1584
     56 H24         4.8196    5.9664    0.4654 H         1 <0>         0.1411
     57 H25         3.0756    9.5918    1.8882 H         1 <0>         0.1443
     58 H26         1.0507    8.3797    2.5605 H         1 <0>         0.1385
     59 H27        -0.1701    5.9069    2.6497 H         1 <0>         0.4455
@<TRIPOS>BOND
     1    1    2 1
     2    1   35 1
     3    1   36 1
     4    1   37 1
     5    2    7 1
     6    2    3 2
     7    3    4 1
     8    3   23 1
     9    4    5 1
    10    4    6 1
    11    6    7 2
    12    6   22 1
    13    7    8 1
    14    8    9 2
    15    8   10 am
    16   10   11 1
    17   10   38 1
    18   11   12 1
    19   11   39 1
    20   11   40 1
    21   12   13 1
    22   12   14 1
    23   12   21 1
    24   14   15 1
    25   14   41 1
    26   14   42 1
    27   15   20 1
    28   15   16 1
    29   16   17 1
    30   16   43 1
    31   16   44 1
    32   17   18 1
    33   17   45 1
    34   17   46 1
    35   18   19 1
    36   19   20 1
    37   19   47 1
    38   19   48 1
    39   20   49 1
    40   20   50 1
    41   21   51 1
    42   22   52 1
    43   22   53 1
    44   22   54 1
    45   23   24 2
    46   23   55 1
    47   24   32 1
    48   24   25 1
    49   25   30 ar
    50   25   26 ar
    51   26   27 ar
    52   26   56 1
    53   27   28 ar
    54   27   34 1
    55   28   29 ar
    56   28   57 1
    57   29   30 ar
    58   29   58 1
    59   30   31 1
    60   31   32 am
    61   31   59 1
    62   32   33 2
