@<TRIPOS>MOLECULE
ZINC09225331
   33    35     0     0     0
SMALL
USER_CHARGES

@<TRIPOS>ATOM
      1 C1         -0.0167    1.3798    0.0096 C.ar      1 <0>        -0.0581
      2 C2          1.1667    2.0926    0.0022 C.ar      1 <0>        -0.1030
      3 C3          2.3779    1.4187   -0.0130 C.ar      1 <0>         0.1219
      4 C4          2.3969    0.0221   -0.0206 C.ar      1 <0>         0.0968
      5 C5          1.2044   -0.6845   -0.0134 C.ar      1 <0>        -0.0506
      6 C6          0.0021   -0.0041    0.0020 C.ar      1 <0>        -0.1719
      7 C7         -1.2945   -0.7720    0.0107 C.3       1 <0>         0.5140
      8 F1         -2.3678    0.1252    0.0262 F         1 <0>        -0.1734
      9 F2         -1.3710   -1.5710   -1.1352 F         1 <0>        -0.1740
     10 F3         -1.3484   -1.5832    1.1493 F         1 <0>        -0.1739
     11 N1          3.7357   -0.3622   -0.0354 N.am      1 <0>        -0.6363
     12 C8          4.4962    0.7488   -0.0367 C.2       1 <0>         0.6931
     13 N2          3.7066    1.8392   -0.0234 N.am      1 <0>        -0.4900
     14 C9          4.1463    3.1713   -0.0205 C.ar      1 <0>         0.1020
     15 C10         4.3811    3.8235    1.1810 C.ar      1 <0>        -0.0334
     16 C11         4.8142    5.1358    1.1815 C.ar      1 <0>        -0.1854
     17 C12         5.0144    5.8018   -0.0137 C.ar      1 <0>        -0.0338
     18 C13         4.7825    5.1583   -1.2151 C.ar      1 <0>        -0.1373
     19 C14         4.3537    3.8408   -1.2241 C.ar      1 <0>         0.1660
     20 O1          4.1309    3.2046   -2.4050 O.3       1 <0>        -0.4829
     21 C15         5.0684    5.8430    2.4877 C.3       1 <0>         0.5128
     22 F4          6.3994    5.6486    2.8720 F         1 <0>        -0.1709
     23 F5          4.8229    7.2115    2.3326 F         1 <0>        -0.1722
     24 F6          4.2187    5.3254    3.4713 F         1 <0>        -0.1741
     25 O2          5.7130    0.7649   -0.0479 O.2       1 <0>        -0.5271
     26 H1         -0.9604    1.9047    0.0260 H         1 <0>         0.1530
     27 H2          1.1481    3.1724    0.0077 H         1 <0>         0.1436
     28 H3          1.2150   -1.7644   -0.0196 H         1 <0>         0.1472
     29 H4          4.2252    3.3058    2.1160 H         1 <0>         0.1476
     30 H5          5.3526    6.8275   -0.0086 H         1 <0>         0.1521
     31 H6          4.9398    5.6813   -2.1468 H         1 <0>         0.1555
     32 H7          3.2275    3.2971   -2.7373 H         1 <0>         0.4007
     33 H8          4.0642   -1.2748   -0.0431 H         1 <0>         0.4422
@<TRIPOS>BOND
     1    1    6 ar
     2    1    2 ar
     3    1   26 1
     4    2    3 ar
     5    2   27 1
     6    3   13 1
     7    3    4 ar
     8    4    5 ar
     9    4   11 1
    10    5    6 ar
    11    5   28 1
    12    6    7 1
    13    7    8 1
    14    7    9 1
    15    7   10 1
    16   11   12 am
    17   11   33 1
    18   12   13 am
    19   12   25 2
    20   13   14 1
    21   14   19 ar
    22   14   15 ar
    23   15   16 ar
    24   15   29 1
    25   16   17 ar
    26   16   21 1
    27   17   18 ar
    28   17   30 1
    29   18   19 ar
    30   18   31 1
    31   19   20 1
    32   20   32 1
    33   21   22 1
    34   21   23 1
    35   21   24 1
@<TRIPOS>MOLECULE
ZINC09225331
   32    34     0     0     0
SMALL
USER_CHARGES

@<TRIPOS>ATOM
      1 C1         -0.0167    1.3798    0.0096 C.ar      1 <0>        -0.0640
      2 C2          1.1667    2.0926    0.0022 C.ar      1 <0>        -0.1003
      3 C3          2.3779    1.4187   -0.0130 C.ar      1 <0>         0.1537
      4 C4          2.3969    0.0221   -0.0206 C.ar      1 <0>         0.0792
      5 C5          1.2044   -0.6845   -0.0134 C.ar      1 <0>        -0.0563
      6 C6          0.0021   -0.0041    0.0020 C.ar      1 <0>        -0.1958
      7 C7         -1.2945   -0.7720    0.0107 C.3       1 <0>         0.5174
      8 F1         -2.3678    0.1252    0.0262 F         1 <0>        -0.1776
      9 F2         -1.3710   -1.5710   -1.1352 F         1 <0>        -0.1789
     10 F3         -1.3484   -1.5832    1.1493 F         1 <0>        -0.1799
     11 N1          3.7357   -0.3622   -0.0354 N.am      1 <0>        -0.6441
     12 C8          4.4962    0.7488   -0.0367 C.2       1 <0>         0.6852
     13 N2          3.7066    1.8392   -0.0234 N.am      1 <0>        -0.4421
     14 C9          4.1463    3.1713   -0.0205 C.ar      1 <0>        -0.0447
     15 C10         4.3811    3.8235    1.1810 C.ar      1 <0>         0.0074
     16 C11         4.8142    5.1358    1.1815 C.ar      1 <0>        -0.3216
     17 C12         5.0144    5.8018   -0.0137 C.ar      1 <0>        -0.0146
     18 C13         4.7825    5.1583   -1.2151 C.ar      1 <0>        -0.2473
     19 C14         4.3537    3.8408   -1.2241 C.ar      1 <0>         0.3058
     20 O1          4.1309    3.2046   -2.4050 O.3       1 <0>        -0.6842
     21 C15         5.0684    5.8430    2.4877 C.3       1 <0>         0.5208
     22 F4          6.3994    5.6486    2.8720 F         1 <0>        -0.1901
     23 F5          4.8229    7.2115    2.3326 F         1 <0>        -0.1886
     24 F6          4.2187    5.3254    3.4713 F         1 <0>        -0.1904
     25 O2          5.7130    0.7649   -0.0479 O.2       1 <0>        -0.5433
     26 H1         -0.9604    1.9047    0.0260 H         1 <0>         0.1440
     27 H2          1.1481    3.1724    0.0077 H         1 <0>         0.1422
     28 H3          1.2150   -1.7644   -0.0196 H         1 <0>         0.1369
     29 H4          4.2252    3.3058    2.1160 H         1 <0>         0.1105
     30 H5          5.3526    6.8275   -0.0086 H         1 <0>         0.1130
     31 H6          4.9398    5.6813   -2.1468 H         1 <0>         0.1162
     32 H7          4.0642   -1.2748   -0.0431 H         1 <0>         0.4317
@<TRIPOS>BOND
     1    1    6 ar
     2    1    2 ar
     3    1   26 1
     4    2    3 ar
     5    2   27 1
     6    3   13 1
     7    3    4 ar
     8    4    5 ar
     9    4   11 1
    10    5    6 ar
    11    5   28 1
    12    6    7 1
    13    7    8 1
    14    7    9 1
    15    7   10 1
    16   11   12 am
    17   11   32 1
    18   12   13 am
    19   12   25 2
    20   13   14 1
    21   14   19 ar
    22   14   15 ar
    23   15   16 ar
    24   15   29 1
    25   16   17 ar
    26   16   21 1
    27   17   18 ar
    28   17   30 1
    29   18   19 ar
    30   18   31 1
    31   19   20 1
    32   21   22 1
    33   21   23 1
    34   21   24 1
