@<TRIPOS>MOLECULE
ZINC05101601
   40    42     0     0     0
SMALL
USER_CHARGES
1-(6-hydroxy-4,7-dimethoxy-benzofuran-5-yl)-3-phenyl-prop-2-en-1-one
@<TRIPOS>ATOM
      1 C1          3.2133    4.6041   -1.1864 C.3       1 <0>         0.0320
      2 O1          2.5427    4.5742    0.0751 O.3       1 <0>        -0.3279
      3 C2          1.1888    4.4914    0.0511 C.ar      1 <0>         0.1923
      4 C3          0.5602    3.2449    0.0492 C.ar      1 <0>        -0.1475
      5 C4          1.0422    1.8573    0.0689 C.2       1 <0>        -0.1927
      6 C5         -0.0500    1.0828    0.0547 C.2       1 <0>         0.0127
      7 O2         -1.1582    1.8446    0.0224 O.3       1 <0>        -0.1789
      8 C6         -0.8415    3.1554    0.0239 C.ar      1 <0>         0.0757
      9 C7         -1.6081    4.3207    0.0007 C.ar      1 <0>         0.0772
     10 C8         -0.9927    5.5580    0.0025 C.ar      1 <0>         0.1595
     11 C9          0.4112    5.6552    0.0277 C.ar      1 <0>        -0.1962
     12 C10         1.0599    6.9767    0.0290 C.2       1 <0>         0.4566
     13 O3          1.4041    7.4871   -1.0221 O.2       1 <0>        -0.4496
     14 C11         1.2913    7.6774    1.2936 C.2       1 <0>        -0.2244
     15 C12         1.7849    8.9331    1.2885 C.2       1 <0>        -0.0078
     16 C13         2.0174    9.6374    2.5596 C.ar      1 <0>        -0.0838
     17 C14         1.7227    9.0106    3.7747 C.ar      1 <0>        -0.0959
     18 C15         1.9492    9.6749    4.9615 C.ar      1 <0>        -0.1227
     19 C16         2.4553   10.9631    4.9521 C.ar      1 <0>        -0.1045
     20 C17         2.7441   11.5923    3.7536 C.ar      1 <0>        -0.1240
     21 C18         2.5290   10.9392    2.5585 C.ar      1 <0>        -0.0924
     22 O4         -1.7474    6.6875   -0.0207 O.3       1 <0>        -0.4694
     23 O5         -2.9670    4.2386   -0.0238 O.3       1 <0>        -0.3141
     24 C19        -3.5909    4.1896   -1.3085 C.3       1 <0>         0.0302
     25 H1          2.8769    5.4703   -1.7562 H         1 <0>         0.0566
     26 H2          4.2891    4.6712   -1.0245 H         1 <0>         0.1023
     27 H3          2.9853    3.6937   -1.7408 H         1 <0>         0.0526
     28 H4          2.0706    1.5281    0.0908 H         1 <0>         0.1661
     29 H5         -0.0423    0.0028    0.0633 H         1 <0>         0.2164
     30 H6          1.0668    7.1892    2.2304 H         1 <0>         0.1356
     31 H7          2.0093    9.4213    0.3517 H         1 <0>         0.1351
     32 H8          1.3229    8.0074    3.7835 H         1 <0>         0.1289
     33 H9          1.7270    9.1904    5.9008 H         1 <0>         0.1273
     34 H10         2.6260   11.4800    5.8849 H         1 <0>         0.1256
     35 H11         3.1388   12.5976    3.7545 H         1 <0>         0.1273
     36 H12         2.7552   11.4313    1.6241 H         1 <0>         0.1284
     37 H13        -1.9495    7.0072   -0.9107 H         1 <0>         0.3960
     38 H14        -3.3418    5.0913   -1.8680 H         1 <0>         0.0465
     39 H15        -3.2348    3.3146   -1.8522 H         1 <0>         0.0488
     40 H16        -4.6720    4.1256   -1.1852 H         1 <0>         0.1020
@<TRIPOS>BOND
     1    1    2 1
     2    1   25 1
     3    1   26 1
     4    1   27 1
     5    2    3 1
     6    3   11 ar
     7    3    4 ar
     8    4    8 ar
     9    4    5 1
    10    5    6 2
    11    5   28 1
    12    6    7 1
    13    6   29 1
    14    7    8 1
    15    8    9 ar
    16    9   10 ar
    17    9   23 1
    18   10   11 ar
    19   10   22 1
    20   11   12 1
    21   12   13 2
    22   12   14 1
    23   14   15 2
    24   14   30 1
    25   15   16 1
    26   15   31 1
    27   16   21 ar
    28   16   17 ar
    29   17   18 ar
    30   17   32 1
    31   18   19 ar
    32   18   33 1
    33   19   20 ar
    34   19   34 1
    35   20   21 ar
    36   20   35 1
    37   21   36 1
    38   22   37 1
    39   23   24 1
    40   24   38 1
    41   24   39 1
    42   24   40 1
@<TRIPOS>MOLECULE
ZINC29056374
   22    22     0     0     0
SMALL
USER_CHARGES
5-bromo-2,2-dimethyl-5-nitro-1,3-dioxane
@<TRIPOS>ATOM
      1 C1         -0.0127    1.0858    0.0080 C.3       1 <0>        -0.1311
      2 C2         -0.7288    1.5792    1.2668 C.3       1 <0>         0.2521
      3 O1         -0.7482    3.0088    1.2747 O.3       1 <0>        -0.3494
      4 C3         -1.3758    3.5707    2.4314 C.3       1 <0>         0.0618
      5 C4         -0.6486    3.0705    3.6843 C.3       1 <0>        -0.0280
      6 C5         -0.6167    1.5385    3.6598 C.3       1 <0>         0.0624
      7 O2         -0.0374    1.1056    2.4251 O.3       1 <0>        -0.3488
      8 N1         -1.3605    3.5276    4.8804 N.pl3     1 <0>        -0.0141
      9 O3         -0.7906    4.2275    5.6981 O.2       1 <0>        -0.1103
     10 O4         -2.5224    3.2076    5.0570 O.3       1 <0>        -0.1412
     11 Br1         1.1897    3.7674    3.7014 Br        1 <0>        -0.0051
     12 C6         -2.1642    1.0497    1.2777 C.3       1 <0>        -0.2150
     13 H1         -0.5447    1.4502   -0.8831 H         1 <0>         0.0888
     14 H2          0.0022   -0.0141    0.0019 H         1 <0>         0.0888
     15 H3          1.0193    1.4665    0.0002 H         1 <0>         0.0797
     16 H4         -1.3194    4.6682    2.3824 H         1 <0>         0.1290
     17 H5         -2.4301    3.2588    2.4645 H         1 <0>         0.1029
     18 H6         -0.0128    1.1708    4.5025 H         1 <0>         0.1290
     19 H7         -1.6418    1.1490    3.7459 H         1 <0>         0.1027
     20 H8         -2.6790    1.4045    2.1828 H         1 <0>         0.0667
     21 H9         -2.1493   -0.0502    1.2716 H         1 <0>         0.0896
     22 H10        -2.6962    1.4141    0.3866 H         1 <0>         0.0896
@<TRIPOS>BOND
     1    1    2 1
     2    1   13 1
     3    1   14 1
     4    1   15 1
     5    2    7 1
     6    2    3 1
     7    2   12 1
     8    3    4 1
     9    4    5 1
    10    4   16 1
    11    4   17 1
    12    5    6 1
    13    5    8 1
    14    5   11 1
    15    6    7 1
    16    6   18 1
    17    6   19 1
    18    8    9 2
    19    8   10 1
    20   12   20 1
    21   12   21 1
    22   12   22 1
@<TRIPOS>MOLECULE
ZINC43206250
   54    56     0     0     0
SMALL
USER_CHARGES

@<TRIPOS>ATOM
      1 C1         -0.0173    1.4248    0.0099 C.3       1 <0>         0.0265
      2 O1          0.0021   -0.0041    0.0020 O.3       1 <0>        -0.3182
      3 C2          0.6058   -0.6071   -1.0557 C.ar      1 <0>         0.1265
      4 C3          1.1730    0.1607   -2.0624 C.ar      1 <0>        -0.2059
      5 C4          1.7865   -0.4547   -3.1363 C.ar      1 <0>        -0.0709
      6 C5          1.8352   -1.8346   -3.2086 C.ar      1 <0>        -0.1219
      7 C6          1.2702   -2.6021   -2.2068 C.ar      1 <0>        -0.0734
      8 C7          0.6609   -1.9915   -1.1277 C.ar      1 <0>        -0.1505
      9 C8          2.5046   -2.5033   -4.3815 C.3       1 <0>        -0.0933
     10 C9          3.9857   -2.7227   -4.0663 C.3       1 <0>         0.1572
     11 N1          4.6365   -3.3728   -5.2065 N.am      1 <0>        -0.6137
     12 C10         4.7519   -4.8250   -5.4075 C.3       1 <0>         0.1735
     13 H1          3.7645   -5.2801   -5.4849 H         1 <0>         0.1094
     14 C11         5.5129   -4.9538   -6.7413 C.3       1 <0>         0.0977
     15 N2          5.7455   -3.5605   -7.1502 N.am      1 <0>        -0.4252
     16 C12         5.2159   -2.7389   -6.2344 C.2       1 <0>         0.6980
     17 O2          5.2606   -1.5273   -6.3259 O.2       1 <0>        -0.5638
     18 N3          6.4102   -3.1567   -8.3155 N.pl3     1 <0>        -0.8666
     19 S1          5.5574   -2.9186   -9.7149 S.o2      1 <0>         2.6109
     20 O3          6.5154   -2.4328  -10.6452 O.2       1 <0>        -0.9411
     21 O4          4.8849   -4.1493   -9.9436 O.2       1 <0>        -0.9454
     22 C13         4.3591   -1.6168   -9.3149 C.3       1 <0>        -0.6549
     23 C14         5.5360   -5.4537   -4.2847 C.ar      1 <0>        -0.1487
     24 C15         6.6460   -4.8081   -3.7721 C.ar      1 <0>        -0.0536
     25 C16         7.3669   -5.3826   -2.7431 C.ar      1 <0>        -0.1512
     26 C17         6.9759   -6.6082   -2.2239 C.ar      1 <0>         0.1390
     27 C18         5.8615   -7.2538   -2.7396 C.ar      1 <0>        -0.2082
     28 C19         5.1410   -6.6726   -3.7651 C.ar      1 <0>        -0.0571
     29 O5          7.6836   -7.1757   -1.2119 O.3       1 <0>        -0.3163
     30 C20         7.2232   -8.4385   -0.7268 C.3       1 <0>         0.0257
     31 H2          1.0053    1.8021    0.0021 H         1 <0>         0.0562
     32 H3         -0.5445    1.7859   -0.8732 H         1 <0>         0.0560
     33 H4         -0.5275    1.7763    0.9067 H         1 <0>         0.1012
     34 H5          1.1347    1.2385   -2.0068 H         1 <0>         0.1283
     35 H6          2.2283    0.1425   -3.9203 H         1 <0>         0.1261
     36 H7          1.3092   -3.6798   -2.2657 H         1 <0>         0.1292
     37 H8          0.2237   -2.5913   -0.3432 H         1 <0>         0.1309
     38 H9          2.0276   -3.4646   -4.5726 H         1 <0>         0.0763
     39 H10         2.4108   -1.8695   -5.2632 H         1 <0>         0.0771
     40 H11         4.4627   -1.7615   -3.8752 H         1 <0>         0.0892
     41 H12         4.0795   -3.3566   -3.1846 H         1 <0>         0.0884
     42 H13         6.4602   -5.4722   -6.5928 H         1 <0>         0.0954
     43 H14         4.9034   -5.4729   -7.4810 H         1 <0>         0.1049
     44 H15         7.3699   -3.0165   -8.3026 H         1 <0>         0.4233
     45 H16         4.8903   -0.7158   -9.0082 H         1 <0>         0.1373
     46 H17         3.7520   -1.3993  -10.1936 H         1 <0>         0.1321
     47 H18         3.7150   -1.9531   -8.5024 H         1 <0>         0.1257
     48 H19         6.9500   -3.8540   -4.1767 H         1 <0>         0.1255
     49 H20         8.2342   -4.8782   -2.3435 H         1 <0>         0.1322
     50 H21         5.5551   -8.2080   -2.3371 H         1 <0>         0.1319
     51 H22         4.2709   -7.1727   -4.1640 H         1 <0>         0.1308
     52 H23         7.8754   -8.7784    0.0776 H         1 <0>         0.1023
     53 H24         6.2058   -8.3339   -0.3500 H         1 <0>         0.0575
     54 H25         7.2372   -9.1664   -1.5381 H         1 <0>         0.0576
@<TRIPOS>BOND
     1    1    2 1
     2    1   31 1
     3    1   32 1
     4    1   33 1
     5    2    3 1
     6    3    8 ar
     7    3    4 ar
     8    4    5 ar
     9    4   34 1
    10    5    6 ar
    11    5   35 1
    12    6    7 ar
    13    6    9 1
    14    7    8 ar
    15    7   36 1
    16    8   37 1
    17    9   10 1
    18    9   38 1
    19    9   39 1
    20   10   11 1
    21   10   40 1
    22   10   41 1
    23   11   16 am
    24   11   12 1
    25   12   13 1
    26   12   14 1
    27   12   23 1
    28   14   15 1
    29   14   42 1
    30   14   43 1
    31   15   16 am
    32   15   18 1
    33   16   17 2
    34   18   19 1
    35   18   44 1
    36   19   20 2
    37   19   21 2
    38   19   22 1
    39   22   45 1
    40   22   46 1
    41   22   47 1
    42   23   28 ar
    43   23   24 ar
    44   24   25 ar
    45   24   48 1
    46   25   26 ar
    47   25   49 1
    48   26   27 ar
    49   26   29 1
    50   27   28 ar
    51   27   50 1
    52   28   51 1
    53   29   30 1
    54   30   52 1
    55   30   53 1
    56   30   54 1
