@<TRIPOS>MOLECULE
ZINC05101601
   40    42     0     0     0
SMALL
USER_CHARGES
1-(6-hydroxy-4,7-dimethoxy-benzofuran-5-yl)-3-phenyl-prop-2-en-1-one
@<TRIPOS>ATOM
      1 C1          3.2133    4.6041   -1.1864 C.3       1 <0>         0.0320
      2 O1          2.5427    4.5742    0.0751 O.3       1 <0>        -0.3279
      3 C2          1.1888    4.4914    0.0511 C.ar      1 <0>         0.1923
      4 C3          0.5602    3.2449    0.0492 C.ar      1 <0>        -0.1475
      5 C4          1.0422    1.8573    0.0689 C.2       1 <0>        -0.1927
      6 C5         -0.0500    1.0828    0.0547 C.2       1 <0>         0.0127
      7 O2         -1.1582    1.8446    0.0224 O.3       1 <0>        -0.1789
      8 C6         -0.8415    3.1554    0.0239 C.ar      1 <0>         0.0757
      9 C7         -1.6081    4.3207    0.0007 C.ar      1 <0>         0.0772
     10 C8         -0.9927    5.5580    0.0025 C.ar      1 <0>         0.1595
     11 C9          0.4112    5.6552    0.0277 C.ar      1 <0>        -0.1962
     12 C10         1.0599    6.9767    0.0290 C.2       1 <0>         0.4566
     13 O3          1.4041    7.4871   -1.0221 O.2       1 <0>        -0.4496
     14 C11         1.2913    7.6774    1.2936 C.2       1 <0>        -0.2244
     15 C12         1.7849    8.9331    1.2885 C.2       1 <0>        -0.0078
     16 C13         2.0174    9.6374    2.5596 C.ar      1 <0>        -0.0838
     17 C14         1.7227    9.0106    3.7747 C.ar      1 <0>        -0.0959
     18 C15         1.9492    9.6749    4.9615 C.ar      1 <0>        -0.1227
     19 C16         2.4553   10.9631    4.9521 C.ar      1 <0>        -0.1045
     20 C17         2.7441   11.5923    3.7536 C.ar      1 <0>        -0.1240
     21 C18         2.5290   10.9392    2.5585 C.ar      1 <0>        -0.0924
     22 O4         -1.7474    6.6875   -0.0207 O.3       1 <0>        -0.4694
     23 O5         -2.9670    4.2386   -0.0238 O.3       1 <0>        -0.3141
     24 C19        -3.5909    4.1896   -1.3085 C.3       1 <0>         0.0302
     25 H1          2.8769    5.4703   -1.7562 H         1 <0>         0.0566
     26 H2          4.2891    4.6712   -1.0245 H         1 <0>         0.1023
     27 H3          2.9853    3.6937   -1.7408 H         1 <0>         0.0526
     28 H4          2.0706    1.5281    0.0908 H         1 <0>         0.1661
     29 H5         -0.0423    0.0028    0.0633 H         1 <0>         0.2164
     30 H6          1.0668    7.1892    2.2304 H         1 <0>         0.1356
     31 H7          2.0093    9.4213    0.3517 H         1 <0>         0.1351
     32 H8          1.3229    8.0074    3.7835 H         1 <0>         0.1289
     33 H9          1.7270    9.1904    5.9008 H         1 <0>         0.1273
     34 H10         2.6260   11.4800    5.8849 H         1 <0>         0.1256
     35 H11         3.1388   12.5976    3.7545 H         1 <0>         0.1273
     36 H12         2.7552   11.4313    1.6241 H         1 <0>         0.1284
     37 H13        -1.9495    7.0072   -0.9107 H         1 <0>         0.3960
     38 H14        -3.3418    5.0913   -1.8680 H         1 <0>         0.0465
     39 H15        -3.2348    3.3146   -1.8522 H         1 <0>         0.0488
     40 H16        -4.6720    4.1256   -1.1852 H         1 <0>         0.1020
@<TRIPOS>BOND
     1    1    2 1
     2    1   25 1
     3    1   26 1
     4    1   27 1
     5    2    3 1
     6    3   11 ar
     7    3    4 ar
     8    4    8 ar
     9    4    5 1
    10    5    6 2
    11    5   28 1
    12    6    7 1
    13    6   29 1
    14    7    8 1
    15    8    9 ar
    16    9   10 ar
    17    9   23 1
    18   10   11 ar
    19   10   22 1
    20   11   12 1
    21   12   13 2
    22   12   14 1
    23   14   15 2
    24   14   30 1
    25   15   16 1
    26   15   31 1
    27   16   21 ar
    28   16   17 ar
    29   17   18 ar
    30   17   32 1
    31   18   19 ar
    32   18   33 1
    33   19   20 ar
    34   19   34 1
    35   20   21 ar
    36   20   35 1
    37   21   36 1
    38   22   37 1
    39   23   24 1
    40   24   38 1
    41   24   39 1
    42   24   40 1
