@<TRIPOS>MOLECULE
ZINC01531790
   32    34     0     0     0
SMALL
USER_CHARGES

@<TRIPOS>ATOM
      1 C1         -0.0187    1.5258    0.0104 C.3       1 <0>        -0.1399
      2 C2          0.0021   -0.0041    0.0020 C.3       1 <0>         0.1104
      3 C3         -1.4345   -0.5423    0.0477 C.3       1 <0>        -0.1496
      4 C4         -1.3698   -2.0672   -0.0539 C.3       1 <0>        -0.0622
      5 C5         -0.3404   -2.6044    0.9131 C.2       1 <0>        -0.3100
      6 C6          0.6173   -1.8024    1.4487 C.2       1 <0>         0.2403
      7 O1          0.6909   -0.4829    1.1556 O.3       1 <0>        -0.2923
      8 C7          1.6282   -2.3406    2.3863 C.ar      1 <0>        -0.0359
      9 C8          2.6038   -1.4990    2.9154 C.ar      1 <0>        -0.0818
     10 C9          3.5481   -2.0058    3.7938 C.ar      1 <0>        -0.0911
     11 C10         3.5322   -3.3407    4.1514 C.ar      1 <0>        -0.1058
     12 C11         2.5688   -4.1930    3.6342 C.ar      1 <0>        -0.0577
     13 C12         1.6157   -3.6977    2.7519 C.ar      1 <0>        -0.1372
     14 C13         0.5747   -4.5783    2.1815 C.2       1 <0>         0.3592
     15 O2          0.5239   -5.7553    2.4710 O.2       1 <0>        -0.3845
     16 C14        -0.4132   -3.9740    1.2379 C.2       1 <0>         0.3706
     17 O3         -1.2844   -4.6673    0.7474 O.2       1 <0>        -0.4089
     18 C15         0.7025   -0.5044   -1.2629 C.3       1 <0>        -0.1791
     19 H1          1.0039    1.9031    0.0027 H         1 <0>         0.0708
     20 H2         -0.5459    1.8868   -0.8726 H         1 <0>         0.0840
     21 H3         -0.5289    1.8773    0.9072 H         1 <0>         0.0697
     22 H4         -1.9061   -0.2551    0.9875 H         1 <0>         0.0812
     23 H5         -2.0054   -0.1409   -0.7897 H         1 <0>         0.0920
     24 H6         -2.3463   -2.4878    0.1862 H         1 <0>         0.0887
     25 H7         -1.0949   -2.3510   -1.0698 H         1 <0>         0.0809
     26 H8          2.6241   -0.4543    2.6420 H         1 <0>         0.1455
     27 H9          4.3039   -1.3516    4.2026 H         1 <0>         0.1390
     28 H10         4.2745   -3.7220    4.8370 H         1 <0>         0.1400
     29 H11         2.5590   -5.2358    3.9149 H         1 <0>         0.1454
     30 H12         1.7258   -0.1294   -1.2841 H         1 <0>         0.0701
     31 H13         0.7149   -1.5943   -1.2645 H         1 <0>         0.0682
     32 H14         0.1659   -0.1458   -2.1413 H         1 <0>         0.0802
@<TRIPOS>BOND
     1    1    2 1
     2    1   19 1
     3    1   20 1
     4    1   21 1
     5    2    7 1
     6    2    3 1
     7    2   18 1
     8    3    4 1
     9    3   22 1
    10    3   23 1
    11    4    5 1
    12    4   24 1
    13    4   25 1
    14    5   16 1
    15    5    6 2
    16    6    7 1
    17    6    8 1
    18    8   13 ar
    19    8    9 ar
    20    9   10 ar
    21    9   26 1
    22   10   11 ar
    23   10   27 1
    24   11   12 ar
    25   11   28 1
    26   12   13 ar
    27   12   29 1
    28   13   14 1
    29   14   15 2
    30   14   16 1
    31   16   17 2
    32   18   30 1
    33   18   31 1
    34   18   32 1
@<TRIPOS>MOLECULE
ZINC03874317
   33    35     0     0     0
SMALL
USER_CHARGES

@<TRIPOS>ATOM
      1 C1          2.0732    1.4062   -0.8308 C.ar      1 <0>        -0.0859
      2 C2          1.1849    2.0922    0.0020 C.ar      1 <0>        -0.0258
      3 C3          0.3126    1.3779    0.8279 C.ar      1 <0>        -0.1033
      4 C4          0.3308   -0.0046    0.8189 C.ar      1 <0>         0.0938
      5 C5          1.2167   -0.6850   -0.0116 C.ar      1 <0>         0.0764
      6 C6          2.0867    0.0236   -0.8354 C.ar      1 <0>         0.0966
      7 O1          2.9505   -0.6446   -1.6458 O.3       1 <0>        -0.4863
      8 O2          1.2322   -2.0446   -0.0183 O.3       1 <0>        -0.4787
      9 O3         -0.5174   -0.7003    1.6227 O.3       1 <0>        -0.4812
     10 C7          1.1683    3.5667    0.0096 C.2       1 <0>         0.1312
     11 C8          2.3519    4.2356    0.1004 C.2       1 <0>        -0.0374
     12 C9          2.3527    5.6546    0.1089 C.2       1 <0>         0.4012
     13 O4          3.3933    6.2877    0.1887 O.2       1 <0>        -0.4464
     14 C10         1.0501    6.3331    0.0174 C.ar      1 <0>        -0.2690
     15 C11         0.9572    7.7312    0.0184 C.ar      1 <0>         0.2250
     16 C12        -0.2849    8.3310   -0.0697 C.ar      1 <0>        -0.2079
     17 C13        -1.4331    7.5508   -0.1581 C.ar      1 <0>         0.2004
     18 C14        -1.3490    6.1675   -0.1597 C.ar      1 <0>        -0.1855
     19 C15        -0.1119    5.5470   -0.0726 C.ar      1 <0>         0.1879
     20 O5         -0.0133    4.2011   -0.0789 O.3       1 <0>        -0.1974
     21 O6         -2.6481    8.1504   -0.2432 O.3       1 <0>        -0.4866
     22 O7          2.0786    8.4907    0.1056 O.3       1 <0>        -0.4725
     23 O8          3.5237    3.5485    0.1828 O.3       1 <0>        -0.4491
     24 H1          2.7453    1.9555   -1.4734 H         1 <0>         0.1463
     25 H2         -0.3747    1.9053    1.4728 H         1 <0>         0.1442
     26 H3          3.8063   -0.8341   -1.2374 H         1 <0>         0.3987
     27 H4          0.6310   -2.4417   -0.6632 H         1 <0>         0.3936
     28 H5         -1.3687   -0.9054    1.2124 H         1 <0>         0.3924
     29 H6         -0.3642    9.4081   -0.0694 H         1 <0>         0.1517
     30 H7         -2.2476    5.5724   -0.2288 H         1 <0>         0.1557
     31 H8         -2.9359    8.3293   -1.1489 H         1 <0>         0.4053
     32 H9          2.4687    8.7158   -0.7501 H         1 <0>         0.4040
     33 H10         4.3069    4.1124    0.2436 H         1 <0>         0.4089
@<TRIPOS>BOND
     1    1    6 ar
     2    1    2 ar
     3    1   24 1
     4    2    3 ar
     5    2   10 1
     6    3    4 ar
     7    3   25 1
     8    4    5 ar
     9    4    9 1
    10    5    6 ar
    11    5    8 1
    12    6    7 1
    13    7   26 1
    14    8   27 1
    15    9   28 1
    16   10   20 1
    17   10   11 2
    18   11   12 1
    19   11   23 1
    20   12   13 2
    21   12   14 1
    22   14   19 ar
    23   14   15 ar
    24   15   16 ar
    25   15   22 1
    26   16   17 ar
    27   16   29 1
    28   17   18 ar
    29   17   21 1
    30   18   19 ar
    31   18   30 1
    32   19   20 1
    33   21   31 1
    34   22   32 1
    35   23   33 1
@<TRIPOS>MOLECULE
ZINC03874317
   32    34     0     0     0
SMALL
USER_CHARGES

@<TRIPOS>ATOM
      1 C1          2.0771    1.4053   -0.8287 C.ar      1 <0>        -0.0905
      2 C2          1.1858    2.0921    0.0020 C.ar      1 <0>        -0.0015
      3 C3          0.3103    1.3773    0.8258 C.ar      1 <0>        -0.1070
      4 C4          0.3284   -0.0047    0.8166 C.ar      1 <0>         0.0918
      5 C5          1.2173   -0.6854   -0.0113 C.ar      1 <0>         0.0627
      6 C6          2.0900    0.0232   -0.8331 C.ar      1 <0>         0.0937
      7 O1          2.9560   -0.6454   -1.6409 O.3       1 <0>        -0.4882
      8 O2          1.2332   -2.0446   -0.0173 O.3       1 <0>        -0.4810
      9 O3         -0.5225   -0.7004    1.6174 O.3       1 <0>        -0.4835
     10 C7          1.1696    3.5647    0.0095 C.2       1 <0>         0.0969
     11 C8          2.3645    4.2546    0.1013 C.2       1 <0>         0.0017
     12 C9          2.3581    5.6552    0.1091 C.2       1 <0>         0.3347
     13 C10         1.1162    6.3213    0.0219 C.2       1 <0>        -0.3328
     14 C11         1.0516    7.7306    0.0250 C.2       1 <0>         0.2668
     15 C12        -0.1591    8.3550   -0.0605 C.2       1 <0>        -0.3747
     16 C13        -1.3400    7.6005   -0.1516 C.2       1 <0>         0.3649
     17 O4         -2.5185    8.2209   -0.2352 O.2       1 <0>        -0.6597
     18 C14        -1.2886    6.2026   -0.1556 C.2       1 <0>        -0.3140
     19 C15        -0.0694    5.5584   -0.0695 C.2       1 <0>         0.2123
     20 O5         -0.0059    4.2104   -0.0783 O.3       1 <0>        -0.2019
     21 O6          2.1901    8.4635    0.1132 O.3       1 <0>        -0.4481
     22 O7          3.5130    6.3524    0.1984 O.3       1 <0>        -0.5726
     23 O8          3.5409    3.5760    0.1840 O.3       1 <0>        -0.4646
     24 H1          2.7513    1.9542   -1.4694 H         1 <0>         0.1458
     25 H2         -0.3788    1.9047    1.4687 H         1 <0>         0.1447
     26 H3          3.8105   -0.8352   -1.2299 H         1 <0>         0.3943
     27 H4          0.6340   -2.4421   -0.6639 H         1 <0>         0.3880
     28 H5         -1.3725   -0.9053    1.2042 H         1 <0>         0.3891
     29 H6         -0.2092    9.4338   -0.0579 H         1 <0>         0.1182
     30 H7         -2.2003    5.6280   -0.2254 H         1 <0>         0.1230
     31 H8          2.0440    9.4194    0.1078 H         1 <0>         0.3850
     32 H9          4.3201    4.1455    0.2445 H         1 <0>         0.4068
@<TRIPOS>BOND
     1    1    6 ar
     2    1    2 ar
     3    1   24 1
     4    2    3 ar
     5    2   10 1
     6    3    4 ar
     7    3   25 1
     8    4    5 ar
     9    4    9 1
    10    5    6 ar
    11    5    8 1
    12    6    7 1
    13    7   26 1
    14    8   27 1
    15    9   28 1
    16   10   20 1
    17   10   11 2
    18   11   12 1
    19   11   23 1
    20   12   13 2
    21   12   22 1
    22   13   19 1
    23   13   14 1
    24   14   15 2
    25   14   21 1
    26   15   16 1
    27   15   29 1
    28   16   17 2
    29   16   18 1
    30   18   19 2
    31   18   30 1
    32   19   20 1
    33   21   31 1
    34   23   32 1
@<TRIPOS>MOLECULE
ZINC13511092
   18    18     0     0     0
SMALL
USER_CHARGES
3-hydroxybenzenecarbohydroxamic acid
@<TRIPOS>ATOM
      1 C1          3.1196    2.3962    1.1940 C.ar      1 <0>        -0.1065
      2 C2          3.7434    2.6959    0.0000 C.ar      1 <0>        -0.0983
      3 C3          3.1065    2.4137   -1.2093 C.ar      1 <0>        -0.1091
      4 C4          1.8397    1.8289   -1.2050 C.ar      1 <0>        -0.0830
      5 C5          1.2229    1.5325   -0.0014 C.ar      1 <0>         0.1044
      6 C6          1.8620    1.8221    1.1968 C.ar      1 <0>        -0.1159
      7 O1         -0.0110    0.9628    0.0073 O.3       1 <0>        -0.4940
      8 C7          3.7715    2.7337   -2.4905 C.2       1 <0>         0.5718
      9 O2          3.2146    2.4874   -3.5425 O.2       1 <0>        -0.5117
     10 N1          4.9952    3.2986   -2.4919 N.am      1 <0>        -0.5925
     11 O3          5.6321    3.6051   -3.7189 O.3       1 <0>        -0.3116
     12 H1          3.6135    2.6151    2.1292 H         1 <0>         0.1383
     13 H2          4.7239    3.1488    0.0015 H         1 <0>         0.1292
     14 H3          1.3419    1.6079   -2.1376 H         1 <0>         0.1463
     15 H4          1.3766    1.5942    2.1343 H         1 <0>         0.1377
     16 H5          0.0021   -0.0041    0.0020 H         1 <0>         0.3961
     17 H6          5.4396    3.4951   -1.6524 H         1 <0>         0.4085
     18 H7          6.5058    4.0073   -3.6188 H         1 <0>         0.3905
@<TRIPOS>BOND
     1    1    6 ar
     2    1    2 ar
     3    1   12 1
     4    2    3 ar
     5    2   13 1
     6    3    4 ar
     7    3    8 1
     8    4    5 ar
     9    4   14 1
    10    5    6 ar
    11    5    7 1
    12    6   15 1
    13    7   16 1
    14    8    9 2
    15    8   10 am
    16   10   11 1
    17   10   17 1
    18   11   18 1
@<TRIPOS>MOLECULE
ZINC22116608
   37    39     0     0     0
SMALL
USER_CHARGES

@<TRIPOS>ATOM
      1 C1         -0.0167    1.3784    0.0096 C.ar      1 <0>        -0.0959
      2 C2          1.1695    2.0865    0.0021 C.ar      1 <0>        -0.1440
      3 C3          2.3802    1.4093   -0.0131 C.ar      1 <0>         0.1125
      4 C4          2.3963    0.0221   -0.0206 C.ar      1 <0>        -0.1426
      5 C5          1.2074   -0.6814   -0.0130 C.ar      1 <0>        -0.0831
      6 C6          0.0021   -0.0041    0.0020 C.ar      1 <0>        -0.0932
      7 C7         -1.2934   -0.7740    0.0107 C.3       1 <0>         0.0170
      8 H1         -2.1266   -0.0713    0.0227 H         1 <0>         0.0843
      9 C8         -1.3519   -1.6424    1.2671 C.3       1 <0>        -0.0149
     10 N1         -2.7503   -1.7398    1.6992 N.4       1 <0>        -0.5026
     11 C9         -3.5601   -2.3813    0.6632 C.3       1 <0>        -0.0039
     12 C10        -2.6818   -3.4165   -0.0466 C.3       1 <0>        -0.1145
     13 C11        -2.0436   -2.8219   -1.2752 C.ar      1 <0>        -0.0412
     14 C12        -1.3758   -1.6180   -1.2375 C.ar      1 <0>        -0.2301
     15 C13        -0.7560   -1.1390   -2.3840 C.ar      1 <0>        -0.0726
     16 C14        -0.8274   -1.8478   -3.5697 C.ar      1 <0>        -0.0220
     17 C15        -1.5288   -3.0484   -3.6140 C.ar      1 <0>         0.2674
     18 C16        -2.1335   -3.5286   -2.4671 C.ar      1 <0>        -0.1678
     19 Cl1        -3.0071   -5.0279   -2.5169 Cl        1 <0>        -0.0919
     20 O1         -1.6213   -3.7441   -4.7792 O.3       1 <0>        -0.6613
     21 O2         -0.2149   -1.3730   -4.6873 O.3       1 <0>        -0.4858
     22 O3          3.5484    2.1036   -0.0209 O.3       1 <0>        -0.4981
     23 H2         -0.9594    1.9052    0.0259 H         1 <0>         0.1266
     24 H3          1.1543    3.1664    0.0076 H         1 <0>         0.1306
     25 H4          3.3375   -0.5074   -0.0328 H         1 <0>         0.1311
     26 H5          1.2194   -1.7613   -0.0189 H         1 <0>         0.1291
     27 H6         -0.9675   -2.6374    1.0429 H         1 <0>         0.1452
     28 H7         -0.7555   -1.1852    2.0566 H         1 <0>         0.1318
     29 H8         -2.8005   -2.2844    2.5471 H         1 <0>         0.4236
     30 H9         -4.4179   -2.8758    1.1190 H         1 <0>         0.1327
     31 H10        -3.9019   -1.6342   -0.0532 H         1 <0>         0.1354
     32 H11        -1.9015   -3.7534    0.6358 H         1 <0>         0.0908
     33 H12        -3.2956   -4.2688   -0.3378 H         1 <0>         0.1147
     34 H13        -0.2135   -0.2057   -2.3496 H         1 <0>         0.1089
     35 H14         0.6981   -1.6733   -4.7931 H         1 <0>         0.3671
     36 H15         3.8951    2.3001    0.8601 H         1 <0>         0.3923
     37 H16        -3.1096   -0.8141    1.8783 H         1 <0>         0.4245
@<TRIPOS>BOND
     1    1    6 ar
     2    1    2 ar
     3    1   23 1
     4    2    3 ar
     5    2   24 1
     6    3    4 ar
     7    3   22 1
     8    4    5 ar
     9    4   25 1
    10    5    6 ar
    11    5   26 1
    12    6    7 1
    13    7    8 1
    14    7   14 1
    15    7    9 1
    16    9   10 1
    17    9   27 1
    18    9   28 1
    19   10   11 1
    20   10   29 1
    21   10   37 1
    22   11   12 1
    23   11   30 1
    24   11   31 1
    25   12   13 1
    26   12   32 1
    27   12   33 1
    28   13   18 ar
    29   13   14 ar
    30   14   15 ar
    31   15   16 ar
    32   15   34 1
    33   16   17 ar
    34   16   21 1
    35   17   18 ar
    36   17   20 1
    37   18   19 1
    38   21   35 1
    39   22   36 1
@<TRIPOS>MOLECULE
ZINC22116612
   37    39     0     0     0
SMALL
USER_CHARGES

@<TRIPOS>ATOM
      1 C1          0.1422    1.1018   -0.8160 C.ar      1 <0>        -0.1066
      2 C2          1.3286    1.8095   -0.8255 C.ar      1 <0>        -0.1438
      3 C3          2.3799    1.4098   -0.0133 C.ar      1 <0>         0.1133
      4 C4          2.2367    0.2999    0.8067 C.ar      1 <0>        -0.1410
      5 C5          1.0483   -0.4044    0.8125 C.ar      1 <0>        -0.0880
      6 C6          0.0021   -0.0041    0.0020 C.ar      1 <0>        -0.1110
      7 C7         -1.2859   -0.7695    0.0107 C.3       1 <0>         0.0071
      8 H1         -2.0857    0.0131    0.1175 H         1 <0>         0.1096
      9 C8         -1.5763   -1.4758   -1.2923 C.3       1 <0>         0.0061
     10 N1         -0.4936   -2.3141   -1.8019 N.4       1 <0>        -0.4990
     11 C9          0.2443   -2.9841   -0.7188 C.3       1 <0>        -0.0144
     12 C10        -0.7993   -3.8000    0.0690 C.3       1 <0>        -0.1035
     13 C11        -1.2376   -2.9908    1.2681 C.ar      1 <0>        -0.0357
     14 C12        -1.4325   -1.6311    1.2326 C.ar      1 <0>        -0.2251
     15 C13        -1.8082   -0.9677    2.4018 C.ar      1 <0>        -0.0805
     16 C14        -2.0008   -1.6571    3.5824 C.ar      1 <0>        -0.0178
     17 C15        -1.8212   -3.0358    3.6085 C.ar      1 <0>         0.2684
     18 C16        -1.4411   -3.6935    2.4526 C.ar      1 <0>        -0.1760
     19 Cl1        -1.2175   -5.4152    2.4819 Cl        1 <0>        -0.0930
     20 O1         -2.0182   -3.7312    4.7604 O.3       1 <0>        -0.6603
     21 O2         -2.3652   -0.9941    4.7130 O.3       1 <0>        -0.4864
     22 O3          3.5481    2.1041   -0.0212 O.3       1 <0>        -0.5012
     23 H2         -0.6780    1.4152   -1.4448 H         1 <0>         0.1275
     24 H3          1.4377    2.6730   -1.4650 H         1 <0>         0.1308
     25 H4          3.0538   -0.0134    1.4396 H         1 <0>         0.1327
     26 H5          0.9364   -1.2685    1.4506 H         1 <0>         0.1414
     27 H6         -2.4743   -2.1053   -1.1780 H         1 <0>         0.1325
     28 H7         -1.8230   -0.7293   -2.0665 H         1 <0>         0.1253
     29 H8         -0.8849   -3.0230   -2.4099 H         1 <0>         0.4265
     30 H9          0.9479   -3.6943   -1.1747 H         1 <0>         0.1237
     31 H10         0.7797   -2.3222   -0.0741 H         1 <0>         0.1464
     32 H11        -1.6506   -4.0007   -0.5709 H         1 <0>         0.0875
     33 H12        -0.3392   -4.7261    0.3966 H         1 <0>         0.1139
     34 H13        -1.9514    0.1029    2.3759 H         1 <0>         0.1056
     35 H14        -3.3216   -0.9182    4.8335 H         1 <0>         0.3682
     36 H15         3.5826    2.8232    0.6245 H         1 <0>         0.3971
     37 H16         0.1484   -1.7509   -2.3393 H         1 <0>         0.4196
@<TRIPOS>BOND
     1    1    6 ar
     2    1    2 ar
     3    1   23 1
     4    2    3 ar
     5    2   24 1
     6    3    4 ar
     7    3   22 1
     8    4    5 ar
     9    4   25 1
    10    5    6 ar
    11    5   26 1
    12    6    7 1
    13    7    8 1
    14    7   14 1
    15    7    9 1
    16    9   10 1
    17    9   27 1
    18    9   28 1
    19   10   11 1
    20   10   29 1
    21   10   37 1
    22   11   12 1
    23   11   30 1
    24   11   31 1
    25   12   13 1
    26   12   32 1
    27   12   33 1
    28   13   18 ar
    29   13   14 ar
    30   14   15 ar
    31   15   16 ar
    32   15   34 1
    33   16   17 ar
    34   16   21 1
    35   17   18 ar
    36   17   20 1
    37   18   19 1
    38   21   35 1
    39   22   36 1
@<TRIPOS>MOLECULE
ZINC03871633
   30    32     0     0     0
SMALL
USER_CHARGES

@<TRIPOS>ATOM
      1 C1         -0.0167    1.3795    0.0096 C.ar      1 <0>        -0.0921
      2 C2          1.1683    2.0940    0.0021 C.ar      1 <0>        -0.1230
      3 C3          2.3774    1.4303   -0.0130 C.ar      1 <0>        -0.0790
      4 C4          2.4038    0.0341   -0.0208 C.ar      1 <0>        -0.0756
      5 C5          1.2040   -0.6806   -0.0131 C.ar      1 <0>        -0.0796
      6 C6          0.0021   -0.0041    0.0020 C.ar      1 <0>        -0.1207
      7 C7          3.6945   -0.6834   -0.0374 C.2       1 <0>         0.2091
      8 C8          3.6864   -2.0423   -0.0503 C.2       1 <0>        -0.3117
      9 C9          4.9141   -2.7479   -0.0669 C.2       1 <0>         0.4234
     10 O1          4.9443   -3.9678   -0.0790 O.2       1 <0>        -0.4507
     11 C10         6.1530   -1.9519   -0.0693 C.ar      1 <0>        -0.2508
     12 C11         6.0489   -0.5496   -0.0552 C.ar      1 <0>         0.1748
     13 O2          4.8301    0.0318   -0.0449 O.3       1 <0>        -0.2163
     14 C12         7.2014    0.2203   -0.0572 C.ar      1 <0>        -0.1662
     15 C13         8.4452   -0.3910   -0.0736 C.ar      1 <0>         0.1647
     16 C14         8.5528   -1.7804   -0.0881 C.ar      1 <0>         0.0244
     17 C15         7.4110   -2.5656   -0.0858 C.ar      1 <0>         0.1934
     18 O3          7.5117   -3.9201   -0.0990 O.3       1 <0>        -0.4665
     19 O4          9.7814   -2.3670   -0.1045 O.3       1 <0>        -0.4726
     20 O5          9.5696    0.3710   -0.0759 O.3       1 <0>        -0.4763
     21 H1         -0.9606    1.9042    0.0260 H         1 <0>         0.1310
     22 H2          1.1464    3.1737    0.0078 H         1 <0>         0.1327
     23 H3          3.3016    1.9892   -0.0192 H         1 <0>         0.1352
     24 H4          1.2173   -1.7605   -0.0194 H         1 <0>         0.1363
     25 H5         -0.9265   -0.5555    0.0079 H         1 <0>         0.1348
     26 H6          2.7501   -2.5805   -0.0475 H         1 <0>         0.1647
     27 H7          7.1302    1.2979   -0.0464 H         1 <0>         0.1582
     28 H8          7.5333   -4.3043   -0.9861 H         1 <0>         0.4056
     29 H9         10.1439   -2.5451    0.7741 H         1 <0>         0.3918
     30 H10         9.9027    0.5834    0.8067 H         1 <0>         0.4008
@<TRIPOS>BOND
     1    1    6 ar
     2    1    2 ar
     3    1   21 1
     4    2    3 ar
     5    2   22 1
     6    3    4 ar
     7    3   23 1
     8    4    5 ar
     9    4    7 1
    10    5    6 ar
    11    5   24 1
    12    6   25 1
    13    7   13 1
    14    7    8 2
    15    8    9 1
    16    8   26 1
    17    9   10 2
    18    9   11 1
    19   11   17 ar
    20   11   12 ar
    21   12   13 1
    22   12   14 ar
    23   14   15 ar
    24   14   27 1
    25   15   16 ar
    26   15   20 1
    27   16   17 ar
    28   16   19 1
    29   17   18 1
    30   18   28 1
    31   19   29 1
    32   20   30 1
