@<TRIPOS>MOLECULE
ZINC00019529
   25    25     0     0     0
SMALL
USER_CHARGES
2-amino-4-(3,4-dichlorophenyl)-4-oxo-butanoic acid
@<TRIPOS>ATOM
      1 C1          1.6038   -1.1686   -3.9664 C.ar      1 <0>        -0.0505
      2 C2          2.0468   -1.5093   -5.2265 C.ar      1 <0>        -0.1087
      3 C3          1.3139   -1.1454   -6.3441 C.ar      1 <0>         0.0045
      4 C4          0.1272   -0.4412   -6.2041 C.ar      1 <0>        -0.0482
      5 C5         -0.3310   -0.0992   -4.9492 C.ar      1 <0>        -0.0349
      6 C6          0.4049   -0.4639   -3.8165 C.ar      1 <0>        -0.1675
      7 C7         -0.0771   -0.1029   -2.4745 C.2       1 <0>         0.4048
      8 O1         -1.1144    0.5124   -2.3480 O.2       1 <0>        -0.4600
      9 C8          0.7182   -0.4975   -1.2568 C.3       1 <0>        -0.1626
     10 C9          0.0021   -0.0041    0.0020 C.3       1 <0>        -0.0088
     11 H1         -1.0205   -0.3814    0.0098 H         1 <0>         0.1461
     12 C10         0.7309   -0.5033    1.2229 C.2       1 <0>         0.4543
     13 O2          1.4853    0.2294    1.8179 O.co2     1 <0>        -0.6109
     14 Cl1        -0.7836    0.0099   -7.6115 Cl        1 <0>        -0.0315
     15 Cl2         1.8830   -1.5731   -7.9274 Cl        1 <0>        -0.0279
     16 H2          2.1789   -1.4492   -3.0964 H         1 <0>         0.1537
     17 H3          2.9700   -2.0576   -5.3429 H         1 <0>         0.1561
     18 H4         -1.2551    0.4491   -4.8410 H         1 <0>         0.1561
     19 H5          1.6284   -0.0861   -1.3054 H         1 <0>         0.1107
     20 H6          0.8116   -1.5829   -1.2198 H         1 <0>         0.1528
     21 H7          0.9191    1.8392    0.0032 H         1 <0>         0.4318
     22 H8         -0.5563    1.8234   -0.7642 H         1 <0>         0.4242
     23 O3          0.5421   -1.7619    1.6494 O.co2     1 <0>        -0.6963
     24 N1         -0.0294    1.4689    0.0323 N.4       1 <0>        -0.6266
     25 H9         -0.4837    1.7790    0.8993 H         1 <0>         0.4395
@<TRIPOS>BOND
     1    1    6 ar
     2    1    2 ar
     3    1   16 1
     4    2    3 ar
     5    2   17 1
     6    3    4 ar
     7    3   15 1
     8    4    5 ar
     9    4   14 1
    10    5    6 ar
    11    5   18 1
    12    6    7 1
    13    7    8 2
    14    7    9 1
    15    9   10 1
    16    9   19 1
    17    9   20 1
    18   10   11 1
    19   10   12 1
    20   10   24 1
    21   12   13 2
    22   12   23 1
    23   21   24 1
    24   22   24 1
    25   24   25 1
@<TRIPOS>MOLECULE
ZINC13776384
   25    25     0     0     0
SMALL
USER_CHARGES
(2R)-2-amino-4-(3,4-dichlorophenyl)-4-oxo-butanoic acid
@<TRIPOS>ATOM
      1 C1          1.1654    2.0900    0.0022 C.ar      1 <0>        -0.0504
      2 C2         -0.0167    1.3810    0.0096 C.ar      1 <0>        -0.1087
      3 C3          0.0021   -0.0041    0.0020 C.ar      1 <0>         0.0045
      4 C4          1.2088   -0.6876   -0.0132 C.ar      1 <0>        -0.0482
      5 C5          2.3990    0.0089   -0.0203 C.ar      1 <0>        -0.0348
      6 C6          2.3865    1.4079   -0.0127 C.ar      1 <0>        -0.1676
      7 C7          3.6518    2.1581   -0.0207 C.2       1 <0>         0.4048
      8 O1          4.7088    1.5641   -0.0340 O.2       1 <0>        -0.4599
      9 C8          3.6343    3.6650   -0.0124 C.3       1 <0>        -0.1626
     10 C9          5.0708    4.1917   -0.0233 C.3       1 <0>        -0.0088
     11 H1          5.6228    3.7589    0.8110 H         1 <0>         0.1462
     12 C10         5.0564    5.6928    0.1087 C.2       1 <0>         0.4542
     13 O2          5.1915    6.3868   -0.8711 O.co2     1 <0>        -0.6108
     14 Cl1         1.2209   -2.4236   -0.0226 Cl        1 <0>        -0.0316
     15 Cl2        -1.4918   -0.8884    0.0109 Cl        1 <0>        -0.0279
     16 H2          1.1488    3.1698    0.0077 H         1 <0>         0.1537
     17 H3         -0.9600    1.9067    0.0169 H         1 <0>         0.1560
     18 H4          3.3382   -0.5241   -0.0314 H         1 <0>         0.1561
     19 H5          3.1513    3.9972   -0.8226 H         1 <0>         0.1107
     20 H6          3.1248    4.0176    0.8843 H         1 <0>         0.1527
     21 H7          5.8000    2.8150   -1.3692 H         1 <0>         0.4242
     22 H8          5.2266    4.2070   -2.0761 H         1 <0>         0.4318
     23 O3          4.8935    6.2590    1.3149 O.co2     1 <0>        -0.6964
     24 N1          5.7426    3.8285   -1.2835 N.4       1 <0>        -0.6266
     25 H9          6.6921    4.2191   -1.2846 H         1 <0>         0.4395
@<TRIPOS>BOND
     1    1    6 ar
     2    1    2 ar
     3    1   16 1
     4    2    3 ar
     5    2   17 1
     6    3    4 ar
     7    3   15 1
     8    4    5 ar
     9    4   14 1
    10    5    6 ar
    11    5   18 1
    12    6    7 1
    13    7    8 2
    14    7    9 1
    15    9   10 1
    16    9   19 1
    17    9   20 1
    18   10   11 1
    19   10   12 1
    20   10   24 1
    21   12   13 2
    22   12   23 1
    23   21   24 1
    24   22   24 1
    25   24   25 1
@<TRIPOS>MOLECULE
ZINC13546620
   23    23     0     0     0
SMALL
USER_CHARGES
(2R)-4-(3,4-dichlorophenyl)-2-hydroxy-4-oxo-butanoic acid
@<TRIPOS>ATOM
      1 C1          1.1654    2.0900    0.0022 C.ar      1 <0>        -0.0558
      2 C2         -0.0167    1.3810    0.0096 C.ar      1 <0>        -0.1096
      3 C3          0.0021   -0.0041    0.0020 C.ar      1 <0>        -0.0099
      4 C4          1.2088   -0.6876   -0.0132 C.ar      1 <0>        -0.0446
      5 C5          2.3990    0.0089   -0.0203 C.ar      1 <0>        -0.0462
      6 C6          2.3865    1.4079   -0.0127 C.ar      1 <0>        -0.1417
      7 C7          3.6518    2.1581   -0.0207 C.2       1 <0>         0.3932
      8 O1          4.7088    1.5641   -0.0340 O.2       1 <0>        -0.4258
      9 C8          3.6343    3.6650   -0.0124 C.3       1 <0>        -0.1727
     10 C9          5.0708    4.1917   -0.0233 C.3       1 <0>         0.0729
     11 H1          5.6228    3.7589    0.8110 H         1 <0>         0.1041
     12 C10         5.0564    5.6928    0.1087 C.2       1 <0>         0.4382
     13 O2          5.4550    6.3830   -0.7993 O.co2     1 <0>        -0.6270
     14 O3          5.7023    3.8277   -1.2524 O.3       1 <0>        -0.5486
     15 Cl1         1.2209   -2.4236   -0.0226 Cl        1 <0>        -0.0468
     16 Cl2        -1.4918   -0.8884    0.0109 Cl        1 <0>        -0.0467
     17 H2          1.1488    3.1698    0.0077 H         1 <0>         0.1536
     18 H3         -0.9600    1.9067    0.0169 H         1 <0>         0.1501
     19 H4          3.3382   -0.5241   -0.0314 H         1 <0>         0.1537
     20 H5          3.1513    3.9972   -0.8226 H         1 <0>         0.0893
     21 H6          3.1248    4.0176    0.8843 H         1 <0>         0.1169
     22 H7          5.2636    4.1791   -2.0392 H         1 <0>         0.3664
     23 O4          4.6007    6.2632    1.2352 O.co2     1 <0>        -0.7629
@<TRIPOS>BOND
     1    1    6 ar
     2    1    2 ar
     3    1   17 1
     4    2    3 ar
     5    2   18 1
     6    3    4 ar
     7    3   16 1
     8    4    5 ar
     9    4   15 1
    10    5    6 ar
    11    5   19 1
    12    6    7 1
    13    7    8 2
    14    7    9 1
    15    9   10 1
    16    9   20 1
    17    9   21 1
    18   10   11 1
    19   10   12 1
    20   10   14 1
    21   12   13 2
    22   12   23 1
    23   14   22 1
