@<TRIPOS>MOLECULE
ZINC00895186
   27    27     0     0     0
SMALL
USER_CHARGES

@<TRIPOS>ATOM
      1 C1         -0.0764    1.2466    0.0311 C.ar      1 <0>        -0.1929
      2 C2          1.0321    2.0801    0.0133 C.ar      1 <0>        -0.0238
      3 C3          2.3053    1.5508   -0.0233 C.ar      1 <0>        -0.2185
      4 C4          2.4868    0.1733   -0.0425 C.ar      1 <0>         0.2868
      5 C5          1.3655   -0.6757   -0.0245 C.ar      1 <0>        -0.2752
      6 C6          0.0801   -0.1206    0.0125 C.ar      1 <0>        -0.0185
      7 C7          1.5409   -2.1316   -0.0450 C.2       1 <0>         0.4123
      8 O1          2.6535   -2.6096    0.0284 O.2       1 <0>        -0.4997
      9 C8          0.3391   -3.0339   -0.1571 C.3       1 <0>        -0.1727
     10 C9          0.7958   -4.4941   -0.1563 C.3       1 <0>        -0.0377
     11 H1          1.4014   -4.6849    0.7297 H         1 <0>         0.1378
     12 C10        -0.4102   -5.3977   -0.1446 C.2       1 <0>         0.4886
     13 O2         -0.9060   -5.7662   -1.1958 O.co2     1 <0>        -0.6654
     14 O3         -0.8901   -5.7601    0.9159 O.co2     1 <0>        -0.6333
     15 N1          1.5939   -4.7582   -1.3610 N.4       1 <0>        -0.6140
     16 N2          3.7661   -0.3614   -0.0797 N.pl3     1 <0>        -0.8530
     17 H2         -1.0681    1.6729    0.0643 H         1 <0>         0.1300
     18 H3          0.8973    3.1516    0.0277 H         1 <0>         0.1301
     19 H4          3.1623    2.2079   -0.0373 H         1 <0>         0.1293
     20 H5         -0.7869   -0.7644    0.0265 H         1 <0>         0.1341
     21 H6         -0.3256   -2.8606    0.6892 H         1 <0>         0.1428
     22 H7         -0.1908   -2.8195   -1.0852 H         1 <0>         0.1224
     23 H8          2.4014   -4.1533   -1.3689 H         1 <0>         0.4179
     24 H9          1.8951   -5.7212   -1.3605 H         1 <0>         0.4311
     25 H10         4.5339    0.2241   -0.1724 H         1 <0>         0.3984
     26 H11         3.8929   -1.3207   -0.0131 H         1 <0>         0.4134
     27 H12         1.0334   -4.5816   -2.1812 H         1 <0>         0.4295
@<TRIPOS>BOND
     1    1    6 ar
     2    1    2 ar
     3    1   17 1
     4    2    3 ar
     5    2   18 1
     6    3    4 ar
     7    3   19 1
     8    4    5 ar
     9    4   16 1
    10    5    6 ar
    11    5    7 1
    12    6   20 1
    13    7    8 2
    14    7    9 1
    15    9   10 1
    16    9   21 1
    17    9   22 1
    18   10   11 1
    19   10   12 1
    20   10   15 1
    21   12   13 2
    22   12   14 1
    23   15   23 1
    24   15   24 1
    25   15   27 1
    26   16   25 1
    27   16   26 1
