@<TRIPOS>MOLECULE
ZINC03831417
   51    51     0     0     0
SMALL
USER_CHARGES

@<TRIPOS>ATOM
      1 C1         -2.1485   -1.7850   -1.9289 C.3       1 <0>        -0.1250
      2 C2         -1.0330   -1.6014   -0.9324 C.2       1 <0>        -0.1093
      3 C3         -1.1183   -0.5958   -0.0797 C.2       1 <0>        -0.0965
      4 C4         -0.0766   -0.2923    0.9576 C.3       1 <0>        -0.0177
      5 C5          0.8292   -1.5077    1.1655 C.3       1 <0>        -0.1104
      6 C6          1.3102   -1.9973   -0.2059 C.3       1 <0>        -0.1227
      7 C7          0.1091   -2.5751   -0.9608 C.3       1 <0>        -0.0820
      8 C8          0.7681    0.8967    0.4953 C.3       1 <0>        -0.1390
      9 C9         -0.7636    0.0602    2.2784 C.3       1 <0>        -0.1384
     10 C10        -2.2934    0.2705   -0.1507 C.2       1 <0>        -0.0928
     11 C11        -3.5351   -0.2588   -0.0183 C.2       1 <0>        -0.1241
     12 C12        -4.6628    0.5865    0.0038 C.2       1 <0>        -0.0755
     13 C13        -5.9076    0.0559    0.1365 C.2       1 <0>        -0.1290
     14 C14        -7.0352    0.9011    0.1587 C.2       1 <0>        -0.1169
     15 C15        -8.2770    0.3718    0.2910 C.2       1 <0>        -0.1135
     16 C16        -9.4464    1.2483    0.3140 C.2       1 <0>        -0.0891
     17 C17       -10.6690    0.7272    0.4443 C.2       1 <0>        -0.1492
     18 C18       -11.8747    1.6309    0.4680 C.3       1 <0>         0.1001
     19 O1        -12.8940    1.0874   -0.3732 O.3       1 <0>        -0.5708
     20 C19        -9.2724    2.7402    0.1907 C.3       1 <0>        -0.1273
     21 C20        -4.4888    2.0783   -0.1195 C.3       1 <0>        -0.1277
     22 H1         -1.8934   -2.5924   -2.6152 H         1 <0>         0.0569
     23 H2         -3.0695   -2.0337   -1.4016 H         1 <0>         0.0702
     24 H3         -2.2894   -0.8616   -2.4907 H         1 <0>         0.0655
     25 H4          1.6875   -1.2247    1.7749 H         1 <0>         0.0663
     26 H5          0.2698   -2.3006    1.6618 H         1 <0>         0.0644
     27 H6          1.7321   -1.1625   -0.7655 H         1 <0>         0.0677
     28 H7          2.0654   -2.7721   -0.0739 H         1 <0>         0.0653
     29 H8         -0.2009   -3.5095   -0.4930 H         1 <0>         0.0743
     30 H9          0.3937   -2.7681   -1.9952 H         1 <0>         0.0715
     31 H10         0.1262    1.7669    0.3581 H         1 <0>         0.0543
     32 H11         1.5253    1.1187    1.2473 H         1 <0>         0.0572
     33 H12         1.2546    0.6516   -0.4488 H         1 <0>         0.0574
     34 H13        -1.3014   -0.8111    2.6521 H         1 <0>         0.0544
     35 H14        -0.0134    0.3646    3.0082 H         1 <0>         0.0558
     36 H15        -1.4654    0.8782    2.1160 H         1 <0>         0.0573
     37 H16        -2.1729    1.3321   -0.3085 H         1 <0>         0.1190
     38 H17        -3.6598   -1.3279    0.0701 H         1 <0>         0.1171
     39 H18        -6.0322   -1.0132    0.2249 H         1 <0>         0.1139
     40 H19        -6.9106    1.9702    0.0703 H         1 <0>         0.1209
     41 H20        -8.4016   -0.6973    0.3794 H         1 <0>         0.1173
     42 H21       -10.7937   -0.3419    0.5327 H         1 <0>         0.1185
     43 H22       -12.2496    1.7098    1.4885 H         1 <0>         0.0565
     44 H23       -11.5944    2.6202    0.1064 H         1 <0>         0.0579
     45 H24       -13.7014    1.6185   -0.4062 H         1 <0>         0.3818
     46 H25        -9.3072    3.0243   -0.8611 H         1 <0>         0.0719
     47 H26       -10.0736    3.2452    0.7301 H         1 <0>         0.0681
     48 H27        -8.3106    3.0300    0.6137 H         1 <0>         0.0684
     49 H28        -4.5236    2.3624   -1.1713 H         1 <0>         0.0710
     50 H29        -5.2901    2.5834    0.4200 H         1 <0>         0.0685
     51 H30        -3.5270    2.3681    0.3035 H         1 <0>         0.0672
@<TRIPOS>BOND
     1    1    2 1
     2    1   22 1
     3    1   23 1
     4    1   24 1
     5    2    7 1
     6    2    3 2
     7    3    4 1
     8    3   10 1
     9    4    5 1
    10    4    8 1
    11    4    9 1
    12    5    6 1
    13    5   25 1
    14    5   26 1
    15    6    7 1
    16    6   27 1
    17    6   28 1
    18    7   29 1
    19    7   30 1
    20    8   31 1
    21    8   32 1
    22    8   33 1
    23    9   34 1
    24    9   35 1
    25    9   36 1
    26   10   11 2
    27   10   37 1
    28   11   12 1
    29   11   38 1
    30   12   13 2
    31   12   21 1
    32   13   14 1
    33   13   39 1
    34   14   15 2
    35   14   40 1
    36   15   16 1
    37   15   41 1
    38   16   17 2
    39   16   20 1
    40   17   18 1
    41   17   42 1
    42   18   19 1
    43   18   43 1
    44   18   44 1
    45   19   45 1
    46   20   46 1
    47   20   47 1
    48   20   48 1
    49   21   49 1
    50   21   50 1
    51   21   51 1
