@<TRIPOS>MOLECULE
ZINC27196434
   31    34     0     0     0
SMALL
USER_CHARGES
(5R,6Z)-6-(6,8-dihydro-5H-imidazo[2,3-c][1,4]oxazin-3-ylmethylene)-7-oxo-4-thia-1-azabicyclo[3.2.0]hept-2-ene-2-carboxylic acid
@<TRIPOS>ATOM
      1 C1         -2.2593    7.0250    2.6426 C.2       1 <0>         0.0400
      2 C2         -1.9687    5.9297    1.8494 C.2       1 <0>        -0.0090
      3 N1         -1.4721    6.4366    0.6747 N.pl3     1 <0>        -0.4444
      4 C3         -1.4813    7.7865    0.7790 C.2       1 <0>         0.1841
      5 N2         -1.9465    8.1224    1.9483 N.2       1 <0>        -0.4728
      6 C4         -1.0037    8.6963   -0.3295 C.3       1 <0>         0.1451
      7 O1         -0.2729    7.8969   -1.2695 O.3       1 <0>        -0.3690
      8 C5         -0.9582    6.7119   -1.6845 C.3       1 <0>         0.0464
      9 C6         -1.0184    5.7165   -0.5179 C.3       1 <0>         0.0620
     10 C7         -2.1426    4.5626    2.1839 C.2       1 <0>         0.0456
     11 C8         -2.7534    4.2214    3.3445 C.2       1 <0>        -0.2202
     12 C9         -3.3056    4.9467    4.5469 C.3       1 <0>         0.1269
     13 H1         -2.5463    5.5577    5.0569 H         1 <0>         0.1672
     14 N3         -3.7643    3.6288    5.0470 N.am      1 <0>        -0.4532
     15 C10        -3.1648    3.0170    3.9807 C.2       1 <0>         0.5432
     16 O2         -3.0281    1.8444    3.6801 O.2       1 <0>        -0.4308
     17 C11        -5.1392    3.4948    5.1936 C.2       1 <0>         0.0044
     18 C12        -5.9876    4.4794    4.8209 C.2       1 <0>        -0.1147
     19 S1         -4.9093    5.7747    4.2348 S.3       1 <0>        -0.1635
     20 C13        -5.6629    2.3041    5.7505 C.2       1 <0>         0.4976
     21 O3         -4.9111    1.4093    6.0910 O.co2     1 <0>        -0.6038
     22 O4         -6.9965    2.1604    5.9043 O.co2     1 <0>        -0.7480
     23 H2         -2.6655    6.9977    3.6429 H         1 <0>         0.1784
     24 H3         -1.8706    9.1638   -0.8192 H         1 <0>         0.0901
     25 H4         -0.3548    9.4782    0.0918 H         1 <0>         0.1321
     26 H5         -1.9806    6.9702   -1.9976 H         1 <0>         0.0706
     27 H6         -0.4210    6.2541   -2.5282 H         1 <0>         0.1251
     28 H7         -0.0212    5.2909   -0.3320 H         1 <0>         0.1006
     29 H8         -1.7258    4.9062   -0.7482 H         1 <0>         0.1067
     30 H9         -1.7817    3.7791    1.5013 H         1 <0>         0.1476
     31 H10        -7.0735    4.3391    4.9267 H         1 <0>         0.2157
@<TRIPOS>BOND
     1    1    5 1
     2    1    2 2
     3    1   23 1
     4    2    3 1
     5    2   10 1
     6    3    9 1
     7    3    4 1
     8    4    5 2
     9    4    6 1
    10    6    7 1
    11    6   24 1
    12    6   25 1
    13    7    8 1
    14    8    9 1
    15    8   26 1
    16    8   27 1
    17    9   28 1
    18    9   29 1
    19   10   11 2
    20   10   30 1
    21   11   15 1
    22   11   12 1
    23   12   13 1
    24   12   19 1
    25   12   14 1
    26   14   15 am
    27   14   17 1
    28   15   16 2
    29   17   18 2
    30   17   20 1
    31   18   19 1
    32   18   31 1
    33   20   21 2
    34   20   22 1
