@<TRIPOS>MOLECULE
ZINC04962303
   49    49     0     0     0
SMALL
USER_CHARGES
2-amino-5-[2-[(4-bromophenyl)methylsulfanyl]-1-(carboxymethylcarbamoyl)ethyl]amino-5-oxo-pentanoic acid
@<TRIPOS>ATOM
      1 C1         -4.2980    6.7445    2.4205 C.ar      1 <0>        -0.0930
      2 C2         -5.4675    7.4715    2.5397 C.ar      1 <0>        -0.0893
      3 C3         -6.5557    6.9276    3.1980 C.ar      1 <0>        -0.0863
      4 C4         -6.4748    5.6542    3.7321 C.ar      1 <0>        -0.0913
      5 C5         -5.3067    4.9259    3.6078 C.ar      1 <0>        -0.0955
      6 C6         -4.2194    5.4698    2.9498 C.ar      1 <0>        -0.0556
      7 C7         -2.9458    4.6755    2.8151 C.3       1 <0>        -0.0581
      8 S1         -2.9997    3.7015    1.2857 S.3       1 <0>        -0.2185
      9 C8         -1.4166    2.8159    1.2733 C.3       1 <0>        -0.1035
     10 C9         -1.3296    1.9443    0.0189 C.3       1 <0>         0.1493
     11 H1         -1.4000    2.5749   -0.8673 H         1 <0>         0.1248
     12 C10        -0.0144    1.2086    0.0087 C.2       1 <0>         0.5011
     13 O1          0.0021   -0.0041    0.0020 O.2       1 <0>        -0.5441
     14 N1          1.1435    1.8983    0.0013 N.am      1 <0>        -0.6975
     15 C11         2.4220    1.1832   -0.0147 C.3       1 <0>         0.0763
     16 C12         3.5540    2.1779   -0.0202 C.2       1 <0>         0.4591
     17 O2          3.3172    3.3627   -0.0116 O.co2     1 <0>        -0.6348
     18 N2         -2.4300    0.9773    0.0189 N.am      1 <0>        -0.7019
     19 C13        -2.8746    0.4623   -1.1446 C.2       1 <0>         0.5209
     20 O3         -2.3636    0.7996   -2.1915 O.2       1 <0>        -0.5220
     21 C14        -4.0067   -0.5324   -1.1446 C.3       1 <0>        -0.1488
     22 C15        -4.3136   -0.9557   -2.5825 C.3       1 <0>        -0.1121
     23 C16        -5.4629   -1.9656   -2.5826 C.3       1 <0>        -0.0158
     24 H2         -6.3209   -1.5397   -2.0623 H         1 <0>         0.1396
     25 C17        -5.8470   -2.2895   -4.0033 C.2       1 <0>         0.4561
     26 O4         -5.4492   -3.3068   -4.5198 O.co2     1 <0>        -0.6177
     27 Br1        -8.1537    7.9244    3.3671 Br        1 <0>        -0.0511
     28 H3         -3.4469    7.1706    1.9102 H         1 <0>         0.1368
     29 H4         -5.5303    8.4656    2.1222 H         1 <0>         0.1356
     30 H5         -7.3243    5.2290    4.2458 H         1 <0>         0.1343
     31 H6         -5.2435    3.9315    4.0244 H         1 <0>         0.1338
     32 H7         -2.8432    4.0058    3.6689 H         1 <0>         0.0949
     33 H8         -2.0949    5.3559    2.7827 H         1 <0>         0.0981
     34 H9         -1.3462    2.1853    2.1596 H         1 <0>         0.0950
     35 H10        -0.5978    3.5354    1.2734 H         1 <0>         0.1097
     36 H11         1.1304    2.8682    0.0067 H         1 <0>         0.4077
     37 H12         2.4967    0.5526    0.8712 H         1 <0>         0.0738
     38 H13         2.4797    0.5621   -0.9086 H         1 <0>         0.0747
     39 H14        -2.8387    0.7076    0.8562 H         1 <0>         0.4046
     40 H15        -3.7211   -1.4078   -0.5613 H         1 <0>         0.0857
     41 H16        -4.8923   -0.0750   -0.7036 H         1 <0>         0.1068
     42 H17        -4.5991   -0.0803   -3.1659 H         1 <0>         0.1202
     43 H18        -3.4279   -1.4131   -3.0235 H         1 <0>         0.0925
     44 H19        -4.2410   -3.6078   -2.3623 H         1 <0>         0.4363
     45 H20        -4.8344   -3.0146   -0.9264 H         1 <0>         0.4180
     46 O5          4.8254    1.7478   -0.0346 O.co2     1 <0>        -0.7539
     47 O6         -6.6311   -1.4478   -4.6951 O.co2     1 <0>        -0.7026
     48 N3         -5.0566   -3.2076   -1.9016 N.4       1 <0>        -0.6272
     49 H21        -5.8291   -3.8828   -1.9418 H         1 <0>         0.4348
@<TRIPOS>BOND
     1    1    6 ar
     2    1    2 ar
     3    1   28 1
     4    2    3 ar
     5    2   29 1
     6    3    4 ar
     7    3   27 1
     8    4    5 ar
     9    4   30 1
    10    5    6 ar
    11    5   31 1
    12    6    7 1
    13    7    8 1
    14    7   32 1
    15    7   33 1
    16    8    9 1
    17    9   10 1
    18    9   34 1
    19    9   35 1
    20   10   11 1
    21   10   12 1
    22   10   18 1
    23   12   13 2
    24   12   14 am
    25   14   15 1
    26   14   36 1
    27   15   16 1
    28   15   37 1
    29   15   38 1
    30   16   17 2
    31   16   46 1
    32   18   19 am
    33   18   39 1
    34   19   20 2
    35   19   21 1
    36   21   22 1
    37   21   40 1
    38   21   41 1
    39   22   23 1
    40   22   42 1
    41   22   43 1
    42   23   24 1
    43   23   25 1
    44   23   48 1
    45   25   26 2
    46   25   47 1
    47   44   48 1
    48   45   48 1
    49   48   49 1
