@<TRIPOS>MOLECULE
ZINC26843314
   41    42     0     0     0
SMALL
USER_CHARGES
2-(azepane-1-carbonyl)-4-isopropyl-3-methyl-isoxazol-5-one
@<TRIPOS>ATOM
      1 C1          3.7754    6.2628   -0.6157 C.3       1 <0>        -0.0972
      2 C2          2.6918    6.2038    0.4299 C.2       1 <0>         0.1628
      3 C3          2.6195    6.9502    1.5611 C.2       1 <0>        -0.2936
      4 C4          1.4279    6.5175    2.1897 C.2       1 <0>         0.4681
      5 O1          0.9671    6.9234    3.2429 O.2       1 <0>        -0.4546
      6 O2          0.9040    5.5739    1.3912 O.3       1 <0>        -0.0726
      7 N1          1.6014    5.3936    0.4192 N.am      1 <0>        -0.3774
      8 C5          1.3277    4.5040   -0.5556 C.2       1 <0>         0.7200
      9 O3          2.1354    4.3061   -1.4422 O.2       1 <0>        -0.5254
     10 N2          0.1584    3.8339   -0.5474 N.am      1 <0>        -0.5907
     11 C6         -0.1262    2.8939   -1.6493 C.3       1 <0>         0.1211
     12 C7         -0.7633    1.5859   -1.1461 C.3       1 <0>        -0.1348
     13 C8         -0.0970    1.1433    0.1332 C.3       1 <0>        -0.1178
     14 C9         -0.8586    1.7158    1.3248 C.3       1 <0>        -0.1223
     15 C10        -0.4619    3.0814    1.6976 C.3       1 <0>        -0.1342
     16 C11        -0.7653    4.0650    0.5406 C.3       1 <0>         0.0882
     17 C12         3.5884    8.0008    2.0392 C.3       1 <0>         0.0009
     18 C13         2.8641    9.3425    2.1663 C.3       1 <0>        -0.1500
     19 C14         4.1504    7.5934    3.4027 C.3       1 <0>        -0.1501
     20 H1          4.5227    7.0167   -0.3272 H         1 <0>         0.0951
     21 H2          3.3344    6.5361   -1.5857 H         1 <0>         0.0955
     22 H3          4.2600    5.2787   -0.6974 H         1 <0>         0.0986
     23 H4         -0.8227    3.3624   -2.3602 H         1 <0>         0.0751
     24 H5          0.8109    2.6410   -2.1668 H         1 <0>         0.0987
     25 H6         -1.8347    1.7488   -0.9575 H         1 <0>         0.0713
     26 H7         -0.6402    0.8015   -1.9074 H         1 <0>         0.0844
     27 H8         -0.1012    0.0447    0.1877 H         1 <0>         0.0682
     28 H9          0.9409    1.5073    0.1510 H         1 <0>         0.0629
     29 H10        -1.9335    1.7452    1.0931 H         1 <0>         0.0642
     30 H11        -0.6909    1.0802    2.2068 H         1 <0>         0.0628
     31 H12        -1.0218    3.3949    2.5910 H         1 <0>         0.0815
     32 H13         0.6164    3.1038    1.9141 H         1 <0>         0.0602
     33 H14        -0.6558    5.0984    0.9013 H         1 <0>         0.1041
     34 H15        -1.7950    3.9071    0.1872 H         1 <0>         0.0904
     35 H16         4.4056    8.0848    1.3077 H         1 <0>         0.0843
     36 H17         3.5713   10.1093    2.5153 H         1 <0>         0.0631
     37 H18         2.0403    9.2474    2.8890 H         1 <0>         0.0641
     38 H19         2.4600    9.6353    1.1860 H         1 <0>         0.0540
     39 H20         4.8576    8.3602    3.7517 H         1 <0>         0.0631
     40 H21         4.6711    6.6288    3.3113 H         1 <0>         0.0540
     41 H22         3.3265    7.4983    4.1253 H         1 <0>         0.0640
@<TRIPOS>BOND
     1    1    2 1
     2    1   20 1
     3    1   21 1
     4    1   22 1
     5    2    7 1
     6    2    3 2
     7    3    4 1
     8    3   17 1
     9    4    5 2
    10    4    6 1
    11    6    7 1
    12    7    8 am
    13    8    9 2
    14    8   10 am
    15   10   16 1
    16   10   11 1
    17   11   12 1
    18   11   23 1
    19   11   24 1
    20   12   13 1
    21   12   25 1
    22   12   26 1
    23   13   14 1
    24   13   27 1
    25   13   28 1
    26   14   15 1
    27   14   29 1
    28   14   30 1
    29   15   16 1
    30   15   31 1
    31   15   32 1
    32   16   33 1
    33   16   34 1
    34   17   18 1
    35   17   19 1
    36   17   35 1
    37   18   36 1
    38   18   37 1
    39   18   38 1
    40   19   39 1
    41   19   40 1
    42   19   41 1
@<TRIPOS>MOLECULE
ZINC26941115
   42    43     0     0     0
SMALL
USER_CHARGES
2-[(3R)-3-(hydroxymethyl)piperidine-1-carbonyl]-4-isopropyl-3-methyl-isoxazol-5-one
@<TRIPOS>ATOM
      1 C1         -3.2569    3.4716    1.3978 C.3       1 <0>        -0.0981
      2 C2         -1.8204    3.9061    1.2608 C.2       1 <0>         0.1659
      3 C3         -0.7379    3.0946    1.1541 C.2       1 <0>        -0.2938
      4 C4          0.3566    3.9846    1.0442 C.2       1 <0>         0.4671
      5 O1          1.5327    3.6869    0.9234 O.2       1 <0>        -0.4544
      6 O2         -0.1598    5.2227    1.0999 O.3       1 <0>        -0.0752
      7 N1         -1.3627    5.1847    1.2230 N.am      1 <0>        -0.3781
      8 C5         -2.1510    6.2747    1.3055 C.2       1 <0>         0.7251
      9 O3         -3.3604    6.1530    1.2875 O.2       1 <0>        -0.5215
     10 N2         -1.5985    7.4997    1.4081 N.am      1 <0>        -0.6019
     11 C6         -0.1386    7.6653    1.4026 C.3       1 <0>         0.0764
     12 C7          0.2759    8.4657    2.6360 C.3       1 <0>        -0.1324
     13 C8         -0.5060    9.7807    2.6746 C.3       1 <0>        -0.1168
     14 C9         -2.0040    9.4827    2.7710 C.3       1 <0>        -0.1025
     15 H1         -2.2040    8.8910    3.6765 H         1 <0>         0.0843
     16 C10        -2.4445    8.6944    1.5336 C.3       1 <0>         0.1324
     17 C11        -2.7827   10.7978    2.8426 C.3       1 <0>         0.0924
     18 O4         -4.1696   10.5197    3.0458 O.3       1 <0>        -0.6019
     19 C12        -0.7088    1.5878    1.1475 C.3       1 <0>         0.0010
     20 C13        -0.1082    1.0951   -0.1706 C.3       1 <0>        -0.1503
     21 C14         0.1451    1.0892    2.3150 C.3       1 <0>        -0.1501
     22 H2         -3.3093    2.3728    1.3972 H         1 <0>         0.0957
     23 H3         -3.8416    3.8670    0.5541 H         1 <0>         0.0997
     24 H4         -3.6683    3.8578    2.3420 H         1 <0>         0.0956
     25 H5          0.3427    6.6764    1.4232 H         1 <0>         0.1207
     26 H6          0.1661    8.2024    0.4923 H         1 <0>         0.0805
     27 H7          0.0578    7.8818    3.5423 H         1 <0>         0.0697
     28 H8          1.3537    8.6803    2.5887 H         1 <0>         0.0867
     29 H9         -0.1925   10.3681    3.5502 H         1 <0>         0.0742
     30 H10        -0.3050   10.3539    1.7575 H         1 <0>         0.0712
     31 H11        -2.3332    9.3185    0.6347 H         1 <0>         0.0759
     32 H12        -3.4960    8.3895    1.6404 H         1 <0>         0.1077
     33 H13        -2.4037   11.4032    3.6792 H         1 <0>         0.0486
     34 H14        -2.6539   11.3519    1.9011 H         1 <0>         0.0457
     35 H15        -4.8908   11.3467    3.1234 H         1 <0>         0.4131
     36 H16        -1.7386    1.2154    1.2515 H         1 <0>         0.0847
     37 H17        -0.0870   -0.0047   -0.1754 H         1 <0>         0.0632
     38 H18         0.9163    1.4821   -0.2740 H         1 <0>         0.0640
     39 H19        -0.7221    1.4537   -1.0100 H         1 <0>         0.0543
     40 H20         0.1664   -0.0106    2.3102 H         1 <0>         0.0632
     41 H21        -0.2867    1.4435    3.2626 H         1 <0>         0.0541
     42 H22         1.1695    1.4762    2.2115 H         1 <0>         0.0639
@<TRIPOS>BOND
     1    1    2 1
     2    1   22 1
     3    1   23 1
     4    1   24 1
     5    2    7 1
     6    2    3 2
     7    3    4 1
     8    3   19 1
     9    4    5 2
    10    4    6 1
    11    6    7 1
    12    7    8 am
    13    8    9 2
    14    8   10 am
    15   10   16 1
    16   10   11 1
    17   11   12 1
    18   11   25 1
    19   11   26 1
    20   12   13 1
    21   12   27 1
    22   12   28 1
    23   13   14 1
    24   13   29 1
    25   13   30 1
    26   14   15 1
    27   14   16 1
    28   14   17 1
    29   16   31 1
    30   16   32 1
    31   17   18 1
    32   17   33 1
    33   17   34 1
    34   18   35 1
    35   19   20 1
    36   19   21 1
    37   19   36 1
    38   20   37 1
    39   20   38 1
    40   20   39 1
    41   21   40 1
    42   21   41 1
    43   21   42 1
@<TRIPOS>MOLECULE
ZINC26941126
   42    43     0     0     0
SMALL
USER_CHARGES
2-[(3S)-3-(hydroxymethyl)piperidine-1-carbonyl]-4-isopropyl-3-methyl-isoxazol-5-one
@<TRIPOS>ATOM
      1 C1          1.6772   -1.9411   -0.0903 C.3       1 <0>        -0.0977
      2 C2          1.2730   -0.4925    0.0054 C.2       1 <0>         0.1655
      3 C3          2.1071    0.5763    0.0659 C.2       1 <0>        -0.2937
      4 C4          1.2403    1.6920    0.1446 C.2       1 <0>         0.4676
      5 O1          1.5626    2.8656    0.2164 O.2       1 <0>        -0.4543
      6 O2         -0.0083    1.1989    0.1243 O.3       1 <0>        -0.0758
      7 N1          0.0044   -0.0084    0.0475 N.am      1 <0>        -0.3776
      8 C5         -1.1019   -0.7771    0.0080 C.2       1 <0>         0.7253
      9 O3         -1.0013   -1.9804   -0.1326 O.2       1 <0>        -0.5210
     10 N2         -2.3198   -0.2118    0.1244 N.am      1 <0>        -0.6034
     11 C6         -2.4687    1.2499    0.1358 C.3       1 <0>         0.0792
     12 C7         -3.4825    1.6507   -0.9404 C.3       1 <0>        -0.1319
     13 C8         -4.7880    0.8842   -0.7164 C.3       1 <0>        -0.1167
     14 C9         -4.5260   -0.6189   -0.8355 C.3       1 <0>        -0.1027
     15 H1         -4.1141   -0.8440   -1.8303 H         1 <0>         0.0848
     16 C10        -3.5245   -1.0454    0.2363 C.3       1 <0>         0.1324
     17 C11        -5.8378   -1.3827   -0.6440 C.3       1 <0>         0.0926
     18 O4         -5.6151   -2.7760   -0.8702 O.3       1 <0>        -0.6017
     19 C12         3.6141    0.5753    0.0525 C.3       1 <0>         0.0010
     20 C13         4.1139    1.3740   -1.1530 C.3       1 <0>        -0.1502
     21 C14         4.1360    1.2155    1.3404 C.3       1 <0>        -0.1501
     22 H2          2.7746   -2.0154   -0.1048 H         1 <0>         0.0954
     23 H3          1.2680   -2.3757   -1.0143 H         1 <0>         0.0986
     24 H4          1.2840   -2.4896    0.7783 H         1 <0>         0.0968
     25 H5         -2.8262    1.5743    1.1242 H         1 <0>         0.0795
     26 H6         -1.4963    1.7192   -0.0746 H         1 <0>         0.1187
     27 H7         -3.6751    2.7319   -0.8782 H         1 <0>         0.0866
     28 H8         -3.0783    1.4069   -1.9340 H         1 <0>         0.0702
     29 H9         -5.1778    1.1094    0.2873 H         1 <0>         0.0710
     30 H10        -5.5262    1.1882   -1.4732 H         1 <0>         0.0743
     31 H11        -3.2541   -2.1018    0.0918 H         1 <0>         0.1076
     32 H12        -3.9700   -0.9140    1.2334 H         1 <0>         0.0752
     33 H13        -6.2035   -1.2317    0.3824 H         1 <0>         0.0455
     34 H14        -6.5866   -1.0103   -1.3585 H         1 <0>         0.0486
     35 H15        -6.4482   -3.4883   -0.7775 H         1 <0>         0.4129
     36 H16         3.9647   -0.4650   -0.0167 H         1 <0>         0.0847
     37 H17         5.2139    1.3733   -1.1628 H         1 <0>         0.0632
     38 H18         3.7485    2.4092   -1.0839 H         1 <0>         0.0640
     39 H19         3.7387    0.9137   -2.0789 H         1 <0>         0.0542
     40 H20         5.2360    1.2148    1.3306 H         1 <0>         0.0632
     41 H21         3.7766    0.6412    2.2071 H         1 <0>         0.0542
     42 H22         3.7706    2.2507    1.4094 H         1 <0>         0.0640
@<TRIPOS>BOND
     1    1    2 1
     2    1   22 1
     3    1   23 1
     4    1   24 1
     5    2    7 1
     6    2    3 2
     7    3    4 1
     8    3   19 1
     9    4    5 2
    10    4    6 1
    11    6    7 1
    12    7    8 am
    13    8    9 2
    14    8   10 am
    15   10   16 1
    16   10   11 1
    17   11   12 1
    18   11   25 1
    19   11   26 1
    20   12   13 1
    21   12   27 1
    22   12   28 1
    23   13   14 1
    24   13   29 1
    25   13   30 1
    26   14   15 1
    27   14   16 1
    28   14   17 1
    29   16   31 1
    30   16   32 1
    31   17   18 1
    32   17   33 1
    33   17   34 1
    34   18   35 1
    35   19   20 1
    36   19   21 1
    37   19   36 1
    38   20   37 1
    39   20   38 1
    40   20   39 1
    41   21   40 1
    42   21   41 1
    43   21   42 1
@<TRIPOS>MOLECULE
ZINC26937509
   47    48     0     0     0
SMALL
USER_CHARGES
ethyl 1-(4-isopropyl-3-methyl-5-oxo-isoxazole-2-carbonyl)piperidine-4-carboxylate
@<TRIPOS>ATOM
      1 C1         -2.1331    8.5111    9.1358 C.3       1 <0>        -0.1555
      2 C2         -2.0848    7.0029    9.3889 C.3       1 <0>         0.0592
      3 O1         -2.6192    6.3012    8.2355 O.3       1 <0>        -0.3565
      4 C3         -2.6478    4.9606    8.2972 C.2       1 <0>         0.4648
      5 O2         -2.2397    4.3924    9.2824 O.2       1 <0>        -0.5032
      6 C4         -3.1888    4.1643    7.1378 C.3       1 <0>        -0.0811
      7 C5         -3.1082    2.6710    7.4631 C.3       1 <0>        -0.1197
      8 C6         -3.6907    1.8663    6.2969 C.3       1 <0>         0.0835
      9 N1         -2.9957    2.2532    5.0616 N.am      1 <0>        -0.6055
     10 C7         -2.9300    3.6768    4.7041 C.3       1 <0>         0.1253
     11 C8         -2.3609    4.4607    5.8853 C.3       1 <0>        -0.1284
     12 C9         -2.4243    1.3204    4.2742 C.2       1 <0>         0.7282
     13 O3         -1.7408    1.6596    3.3279 O.2       1 <0>        -0.5224
     14 N2         -2.6107    0.0115    4.5361 N.am      1 <0>        -0.3776
     15 C10        -2.1269   -0.9980    3.7665 C.2       1 <0>         0.1644
     16 C11        -2.5178   -2.1608    4.3469 C.2       1 <0>        -0.2913
     17 C12        -3.2547   -1.7533    5.4841 C.2       1 <0>         0.4687
     18 O4         -3.7999   -2.4762    6.3005 O.2       1 <0>        -0.4517
     19 O5         -3.2301   -0.4109    5.4855 O.3       1 <0>        -0.0771
     20 C13        -2.2365   -3.5666    3.8823 C.3       1 <0>         0.0006
     21 C14        -3.5581   -4.2880    3.6105 C.3       1 <0>        -0.1504
     22 C15        -1.4599   -4.3163    4.9666 C.3       1 <0>        -0.1505
     23 C16        -1.3112   -0.8540    2.5075 C.3       1 <0>        -0.0973
     24 H1         -1.7282    9.0427   10.0096 H         1 <0>         0.0824
     25 H2         -3.1750    8.8215    8.9681 H         1 <0>         0.0682
     26 H3         -1.5308    8.7533    8.2478 H         1 <0>         0.0682
     27 H4         -1.0429    6.6925    9.5566 H         1 <0>         0.0714
     28 H5         -2.6871    6.7606   10.2769 H         1 <0>         0.0718
     29 H6         -4.2366    4.4539    6.9699 H         1 <0>         0.1164
     30 H7         -2.0572    2.3858    7.6185 H         1 <0>         0.0802
     31 H8         -3.6835    2.4633    8.3774 H         1 <0>         0.0946
     32 H9         -3.5471    0.7920    6.4848 H         1 <0>         0.1243
     33 H10        -4.7653    2.0817    6.2033 H         1 <0>         0.0846
     34 H11        -2.2796    3.8047    3.8262 H         1 <0>         0.1085
     35 H12        -3.9402    4.0427    4.4684 H         1 <0>         0.0848
     36 H13        -2.4015    5.5377    5.6653 H         1 <0>         0.1004
     37 H14        -1.3166    4.1606    6.0565 H         1 <0>         0.0781
     38 H15        -1.6395   -3.5194    2.9596 H         1 <0>         0.0850
     39 H16        -3.3527   -5.3141    3.2714 H         1 <0>         0.0634
     40 H17        -4.1164   -3.7490    2.8309 H         1 <0>         0.0543
     41 H18        -4.1552   -4.3195    4.5338 H         1 <0>         0.0642
     42 H19        -1.2546   -5.3424    4.6275 H         1 <0>         0.0635
     43 H20        -2.0571   -4.3478    5.8899 H         1 <0>         0.0641
     44 H21        -0.5097   -3.7977    5.1620 H         1 <0>         0.0544
     45 H22        -1.0688   -1.8513    2.1116 H         1 <0>         0.0955
     46 H23        -0.3805   -0.3130    2.7335 H         1 <0>         0.0983
     47 H24        -1.8890   -0.2926    1.7585 H         1 <0>         0.0970
@<TRIPOS>BOND
     1    1    2 1
     2    1   24 1
     3    1   25 1
     4    1   26 1
     5    2    3 1
     6    2   27 1
     7    2   28 1
     8    3    4 1
     9    4    5 2
    10    4    6 1
    11    6   11 1
    12    6    7 1
    13    6   29 1
    14    7    8 1
    15    7   30 1
    16    7   31 1
    17    8    9 1
    18    8   32 1
    19    8   33 1
    20    9   10 1
    21    9   12 am
    22   10   11 1
    23   10   34 1
    24   10   35 1
    25   11   36 1
    26   11   37 1
    27   12   13 2
    28   12   14 am
    29   14   19 1
    30   14   15 1
    31   15   16 2
    32   15   23 1
    33   16   17 1
    34   16   20 1
    35   17   18 2
    36   17   19 1
    37   20   21 1
    38   20   22 1
    39   20   38 1
    40   21   39 1
    41   21   40 1
    42   21   41 1
    43   22   42 1
    44   22   43 1
    45   22   44 1
    46   23   45 1
    47   23   46 1
    48   23   47 1
@<TRIPOS>MOLECULE
ZINC00001021
   28    29     0     0     0
SMALL
USER_CHARGES

@<TRIPOS>ATOM
      1 C1         -0.0167    1.3781    0.0096 C.ar      1 <0>        -0.1079
      2 C2          1.1709    2.0855    0.0021 C.ar      1 <0>        -0.1225
      3 C3          2.3773    1.4107   -0.0130 C.ar      1 <0>        -0.0949
      4 C4          2.3960    0.0285   -0.0201 C.ar      1 <0>        -0.0999
      5 C5          1.2084   -0.6789   -0.0117 C.ar      1 <0>        -0.0949
      6 C6          0.0021   -0.0041    0.0020 C.ar      1 <0>        -0.1225
      7 C7          3.7112   -0.7071   -0.0376 C.3       1 <0>         0.1089
      8 O1          4.1410   -0.9464    1.3041 O.3       1 <0>        -0.3420
      9 C8          5.3083   -1.5992    1.4651 C.2       1 <0>         0.5089
     10 O2          5.9439   -1.9556    0.4933 O.2       1 <0>        -0.5030
     11 C9          5.8154   -1.8816    2.8236 C.ar      1 <0>        -0.1282
     12 C10         5.0844   -1.4784    3.9429 C.ar      1 <0>        -0.0613
     13 C11         5.5638   -1.7453    5.2085 C.ar      1 <0>        -0.1335
     14 C12         6.7659   -2.4110    5.3703 C.ar      1 <0>        -0.0823
     15 C13         7.4956   -2.8130    4.2654 C.ar      1 <0>        -0.1315
     16 C14         7.0249   -2.5580    2.9941 C.ar      1 <0>        -0.0547
     17 H1         -0.9591    1.9053    0.0259 H         1 <0>         0.1254
     18 H2          1.1563    3.1654    0.0076 H         1 <0>         0.1265
     19 H3          3.3051    1.9634   -0.0196 H         1 <0>         0.1246
     20 H4          1.2231   -1.7588   -0.0176 H         1 <0>         0.1246
     21 H5         -0.9258   -0.5567    0.0082 H         1 <0>         0.1265
     22 H6          3.5884   -1.6586   -0.5549 H         1 <0>         0.0792
     23 H7          4.4573   -0.1052   -0.5563 H         1 <0>         0.0792
     24 H8          4.1461   -0.9584    3.8180 H         1 <0>         0.1385
     25 H9          4.9996   -1.4337    6.0751 H         1 <0>         0.1330
     26 H10         7.1367   -2.6175    6.3634 H         1 <0>         0.1311
     27 H11         8.4335   -3.3316    4.3988 H         1 <0>         0.1344
     28 H12         7.5930   -2.8766    2.1326 H         1 <0>         0.1383
@<TRIPOS>BOND
     1    1    6 ar
     2    1    2 ar
     3    1   17 1
     4    2    3 ar
     5    2   18 1
     6    3    4 ar
     7    3   19 1
     8    4    5 ar
     9    4    7 1
    10    5    6 ar
    11    5   20 1
    12    6   21 1
    13    7    8 1
    14    7   22 1
    15    7   23 1
    16    8    9 1
    17    9   10 2
    18    9   11 1
    19   11   16 ar
    20   11   12 ar
    21   12   13 ar
    22   12   24 1
    23   13   14 ar
    24   13   25 1
    25   14   15 ar
    26   14   26 1
    27   15   16 ar
    28   15   27 1
    29   16   28 1
@<TRIPOS>MOLECULE
ZINC00115374
   32    33     0     0     0
SMALL
USER_CHARGES
3-(4-chlorophenyl)-N,N-dimethyl-5-methylsulfanyl-1,2,4-triazole-1-carboxamide
@<TRIPOS>ATOM
      1 C1          1.3711    5.3651   -0.4348 C.3       1 <0>         0.0990
      2 N1          0.8821    4.0287   -0.0868 N.am      1 <0>        -0.6023
      3 C2         -0.5572    3.7556   -0.0743 C.3       1 <0>         0.0634
      4 C3          1.7563    3.0504    0.2218 C.2       1 <0>         0.7213
      5 O1          2.9458    3.2932    0.2751 O.2       1 <0>        -0.5219
      6 N2          1.3113    1.8030    0.4713 N.am      1 <0>        -0.3649
      7 C4          2.0721    0.6918    0.6949 C.2       1 <0>         0.2997
      8 N3          1.2571   -0.3196    0.8961 N.2       1 <0>        -0.5200
      9 C5         -0.0146    0.0996    0.8103 C.2       1 <0>         0.3006
     10 N4         -0.0275    1.3870    0.5526 N.2       1 <0>        -0.2954
     11 C6         -1.2151   -0.7555    0.9797 C.ar      1 <0>        -0.0217
     12 C7         -2.4891   -0.2009    0.8728 C.ar      1 <0>        -0.0660
     13 C8         -3.6026   -1.0014    1.0264 C.ar      1 <0>        -0.1138
     14 C9         -3.4556   -2.3512    1.2968 C.ar      1 <0>        -0.0154
     15 C10        -2.1920   -2.9058    1.4093 C.ar      1 <0>        -0.1142
     16 C11        -1.0724   -2.1147    1.2521 C.ar      1 <0>        -0.0574
     17 Cl1        -4.8603   -3.3518    1.4951 Cl        1 <0>        -0.0600
     18 S1          3.8327    0.6253    0.7108 S.3       1 <0>         0.0946
     19 C12         4.0776   -1.1330    1.0640 C.3       1 <0>        -0.1722
     20 H1          2.0137    5.2996   -1.3128 H         1 <0>         0.0686
     21 H2          0.5246    6.0166   -0.6519 H         1 <0>         0.0865
     22 H3          1.9387    5.7734    0.4014 H         1 <0>         0.0695
     23 H4         -0.9376    3.8578    0.9421 H         1 <0>         0.0613
     24 H5         -1.0673    4.4648   -0.7262 H         1 <0>         0.0745
     25 H6         -0.7376    2.7410   -0.4294 H         1 <0>         0.1062
     26 H7         -2.6048    0.8527    0.6658 H         1 <0>         0.1419
     27 H8         -4.5903   -0.5734    0.9393 H         1 <0>         0.1426
     28 H9         -2.0825   -3.9592    1.6207 H         1 <0>         0.1427
     29 H10        -0.0871   -2.5482    1.3403 H         1 <0>         0.1462
     30 H11         3.6164   -1.3791    2.0204 H         1 <0>         0.0957
     31 H12         3.6189   -1.7293    0.2752 H         1 <0>         0.0953
     32 H13         5.1450   -1.3493    1.1090 H         1 <0>         0.1155
@<TRIPOS>BOND
     1    1    2 1
     2    1   20 1
     3    1   21 1
     4    1   22 1
     5    2    3 1
     6    2    4 am
     7    3   23 1
     8    3   24 1
     9    3   25 1
    10    4    5 2
    11    4    6 am
    12    6   10 1
    13    6    7 1
    14    7    8 2
    15    7   18 1
    16    8    9 1
    17    9   10 2
    18    9   11 1
    19   11   16 ar
    20   11   12 ar
    21   12   13 ar
    22   12   26 1
    23   13   14 ar
    24   13   27 1
    25   14   15 ar
    26   14   17 1
    27   15   16 ar
    28   15   28 1
    29   16   29 1
    30   18   19 1
    31   19   30 1
    32   19   31 1
    33   19   32 1
@<TRIPOS>MOLECULE
ZINC00105216
   30    31     0     0     0
SMALL
USER_CHARGES

@<TRIPOS>ATOM
      1 C1         -0.0187    1.5258    0.0104 C.3       1 <0>        -0.1185
      2 C2          0.0021   -0.0041    0.0020 C.3       1 <0>        -0.1364
      3 H1         -1.0205   -0.3814    0.0098 H         1 <0>         0.0713
      4 C3          0.7074   -0.4901   -1.2379 C.ar      1 <0>        -0.0233
      5 C4          2.0367   -0.1325   -1.4560 C.ar      1 <0>        -0.0492
      6 C5          2.7027   -0.5545   -2.5653 C.ar      1 <0>        -0.1340
      7 C6          2.0432   -1.3636   -3.5068 C.ar      1 <0>        -0.0210
      8 C7          2.6987   -1.8182   -4.6628 C.ar      1 <0>        -0.1462
      9 C8          2.0264   -2.6031   -5.5556 C.ar      1 <0>         0.1082
     10 C9          0.6925   -2.9604   -5.3345 C.ar      1 <0>        -0.2006
     11 C10         0.0299   -2.5361   -4.2254 C.ar      1 <0>        -0.0655
     12 C11         0.6914   -1.7275   -3.2846 C.ar      1 <0>        -0.0750
     13 C12         0.0385   -1.2762   -2.1250 C.ar      1 <0>        -0.1205
     14 O1          2.6617   -3.0423   -6.6736 O.3       1 <0>        -0.3228
     15 C13         1.9067   -3.8599   -7.5700 C.3       1 <0>         0.0296
     16 C14         0.7309   -0.5033    1.2229 C.2       1 <0>         0.5002
     17 O2          0.3210   -0.2204    2.3358 O.co2     1 <0>        -0.6976
     18 O3          1.7305   -1.1901    1.0978 O.co2     1 <0>        -0.6861
     19 H2          1.0039    1.9031    0.0027 H         1 <0>         0.0479
     20 H3         -0.5459    1.8868   -0.8726 H         1 <0>         0.0406
     21 H4         -0.5289    1.8773    0.9072 H         1 <0>         0.0604
     22 H5          2.5458    0.4890   -0.7342 H         1 <0>         0.1214
     23 H6          3.7325   -0.2690   -2.7216 H         1 <0>         0.1221
     24 H7          3.7285   -1.5483   -4.8448 H         1 <0>         0.1285
     25 H8          0.1814   -3.5818   -6.0549 H         1 <0>         0.1229
     26 H9         -1.0004   -2.8192   -4.0679 H         1 <0>         0.1257
     27 H10        -0.9902   -1.5485   -1.9405 H         1 <0>         0.1191
     28 H11         2.5306   -4.1410   -8.4184 H         1 <0>         0.0948
     29 H12         1.5744   -4.7583   -7.0499 H         1 <0>         0.0524
     30 H13         1.0391   -3.3040   -7.9254 H         1 <0>         0.0519
@<TRIPOS>BOND
     1    1    2 1
     2    1   19 1
     3    1   20 1
     4    1   21 1
     5    2    3 1
     6    2    4 1
     7    2   16 1
     8    4   13 ar
     9    4    5 ar
    10    5    6 ar
    11    5   22 1
    12    6    7 ar
    13    6   23 1
    14    7   12 ar
    15    7    8 ar
    16    8    9 ar
    17    8   24 1
    18    9   10 ar
    19    9   14 1
    20   10   11 ar
    21   10   25 1
    22   11   12 ar
    23   11   26 1
    24   12   13 ar
    25   13   27 1
    26   14   15 1
    27   15   28 1
    28   15   29 1
    29   15   30 1
    30   16   17 2
    31   16   18 1
@<TRIPOS>MOLECULE
ZINC00136138
   29    30     0     0     0
SMALL
USER_CHARGES

@<TRIPOS>ATOM
      1 C1         -0.1327    1.3861   -0.0238 C.3       1 <0>         0.0238
      2 O1          0.0042   -0.0357    0.0209 O.3       1 <0>        -0.3111
      3 C2          0.6071   -0.6301   -1.0395 C.ar      1 <0>         0.1632
      4 C3          1.0637    0.1456   -2.1017 C.ar      1 <0>        -0.2162
      5 C4          1.6721   -0.4410   -3.1735 C.ar      1 <0>        -0.0258
      6 C5          1.8408   -1.8299   -3.2110 C.ar      1 <0>        -0.2159
      7 C6          1.3815   -2.6160   -2.1413 C.ar      1 <0>         0.1829
      8 C7          0.7709   -2.0077   -1.0578 C.ar      1 <0>        -0.1828
      9 O2          1.5395   -3.9629   -2.1676 O.3       1 <0>        -0.4883
     10 C8          2.4961   -2.4640   -4.3661 C.2       1 <0>         0.4571
     11 O3          3.7035   -2.3934   -4.4947 O.2       1 <0>        -0.4435
     12 C9          1.6869   -3.1868   -5.3701 C.ar      1 <0>        -0.1616
     13 C10         0.2929   -3.1694   -5.2916 C.ar      1 <0>        -0.0579
     14 C11        -0.4562   -3.8460   -6.2317 C.ar      1 <0>        -0.1343
     15 C12         0.1709   -4.5412   -7.2507 C.ar      1 <0>        -0.0857
     16 C13         1.5520   -4.5625   -7.3345 C.ar      1 <0>        -0.1341
     17 C14         2.3130   -3.8851   -6.4046 C.ar      1 <0>        -0.0615
     18 H1          0.8539    1.8440   -0.0944 H         1 <0>         0.0599
     19 H2         -0.7266    1.6667   -0.8936 H         1 <0>         0.0600
     20 H3         -0.6298    1.7319    0.8825 H         1 <0>         0.1050
     21 H4          0.9355    1.2177   -2.0775 H         1 <0>         0.1386
     22 H5          2.0234    0.1673   -3.9939 H         1 <0>         0.1351
     23 H6          0.4189   -2.6051   -0.2299 H         1 <0>         0.1452
     24 H7          2.3693   -4.2693   -1.7767 H         1 <0>         0.3997
     25 H8         -0.1977   -2.6278   -4.4964 H         1 <0>         0.1281
     26 H9         -1.5344   -3.8334   -6.1722 H         1 <0>         0.1291
     27 H10        -0.4203   -5.0698   -7.9838 H         1 <0>         0.1281
     28 H11         2.0350   -5.1071   -8.1323 H         1 <0>         0.1300
     29 H12         3.3907   -3.8989   -6.4737 H         1 <0>         0.1330
@<TRIPOS>BOND
     1    1    2 1
     2    1   18 1
     3    1   19 1
     4    1   20 1
     5    2    3 1
     6    3    8 ar
     7    3    4 ar
     8    4    5 ar
     9    4   21 1
    10    5    6 ar
    11    5   22 1
    12    6    7 ar
    13    6   10 1
    14    7    8 ar
    15    7    9 1
    16    8   23 1
    17    9   24 1
    18   10   11 2
    19   10   12 1
    20   12   17 ar
    21   12   13 ar
    22   13   14 ar
    23   13   25 1
    24   14   15 ar
    25   14   26 1
    26   15   16 ar
    27   15   27 1
    28   16   17 ar
    29   16   28 1
    30   17   29 1
@<TRIPOS>MOLECULE
ZINC26937514
   39    40     0     0     0
SMALL
USER_CHARGES
2-(4-hydroxypiperidine-1-carbonyl)-4-isopropyl-3-methyl-isoxazol-5-one
@<TRIPOS>ATOM
      1 C1         -1.3706   -0.6823    2.2824 C.3       1 <0>        -0.0976
      2 C2         -1.2596    0.8202    2.2458 C.2       1 <0>         0.1648
      3 C3         -0.6502    1.5618    1.2863 C.2       1 <0>        -0.2918
      4 C4         -0.8181    2.8986    1.7187 C.2       1 <0>         0.4681
      5 O1         -0.4199    3.9049    1.1573 O.2       1 <0>        -0.4528
      6 O2         -1.5070    2.8368    2.8695 O.3       1 <0>        -0.0770
      7 N1         -1.7505    1.6897    3.1669 N.am      1 <0>        -0.3777
      8 C5         -2.4243    1.3204    4.2742 C.2       1 <0>         0.7274
      9 O3         -2.6752    0.1472    4.4702 O.2       1 <0>        -0.5222
     10 N2         -2.8200    2.2519    5.1643 N.am      1 <0>        -0.6053
     11 C6         -3.4185    1.8558    6.4463 C.3       1 <0>         0.1265
     12 C7         -4.7620    2.5646    6.6083 C.3       1 <0>        -0.1295
     13 C8         -4.5630    4.0733    6.4466 C.3       1 <0>         0.1151
     14 C9         -4.0236    4.3713    5.0458 C.3       1 <0>        -0.1643
     15 C10        -2.6666    3.6829    4.8685 C.3       1 <0>         0.0837
     16 O4         -5.8138    4.7405    6.6270 O.3       1 <0>        -0.5993
     17 C11         0.0515    1.0724    0.0457 C.3       1 <0>         0.0006
     18 C12         1.5131    1.5239    0.0748 C.3       1 <0>        -0.1504
     19 C13        -0.6368    1.6519   -1.1917 C.3       1 <0>        -0.1503
     20 H1         -0.8747   -1.1082    1.3977 H         1 <0>         0.0958
     21 H2         -2.4319   -0.9716    2.2828 H         1 <0>         0.0985
     22 H3         -0.8862   -1.0636    3.1934 H         1 <0>         0.0971
     23 H4         -3.5700    0.7664    6.4591 H         1 <0>         0.1082
     24 H5         -2.7465    2.1422    7.2687 H         1 <0>         0.0817
     25 H6         -5.4626    2.2021    5.8416 H         1 <0>         0.0783
     26 H7         -5.1702    2.3528    7.6076 H         1 <0>         0.0917
     27 H8         -3.8946    4.4723    7.2238 H         1 <0>         0.0564
     28 H9         -4.7300    3.9922    4.2926 H         1 <0>         0.0773
     29 H10        -3.9042    5.4578    4.9223 H         1 <0>         0.0852
     30 H11        -1.9320    4.1233    5.5587 H         1 <0>         0.0813
     31 H12        -2.3175    3.8079    3.8329 H         1 <0>         0.1210
     32 H13        -5.8692    5.8362    6.5472 H         1 <0>         0.4104
     33 H14        -0.0002   -0.0261    0.0224 H         1 <0>         0.0851
     34 H15         2.0253    1.1667   -0.8308 H         1 <0>         0.0636
     35 H16         2.0079    1.1072    0.9645 H         1 <0>         0.0543
     36 H17         1.5568    2.6224    0.1116 H         1 <0>         0.0641
     37 H18        -0.1246    1.2947   -2.0972 H         1 <0>         0.0636
     38 H19        -0.5931    2.7504   -1.1549 H         1 <0>         0.0639
     39 H20        -1.6876    1.3273   -1.2126 H         1 <0>         0.0544
@<TRIPOS>BOND
     1    1    2 1
     2    1   20 1
     3    1   21 1
     4    1   22 1
     5    2    7 1
     6    2    3 2
     7    3    4 1
     8    3   17 1
     9    4    5 2
    10    4    6 1
    11    6    7 1
    12    7    8 am
    13    8    9 2
    14    8   10 am
    15   10   15 1
    16   10   11 1
    17   11   12 1
    18   11   23 1
    19   11   24 1
    20   12   13 1
    21   12   25 1
    22   12   26 1
    23   13   14 1
    24   13   16 1
    25   13   27 1
    26   14   15 1
    27   14   28 1
    28   14   29 1
    29   15   30 1
    30   15   31 1
    31   16   32 1
    32   17   18 1
    33   17   19 1
    34   17   33 1
    35   18   34 1
    36   18   35 1
    37   18   36 1
    38   19   37 1
    39   19   38 1
    40   19   39 1
@<TRIPOS>MOLECULE
ZINC00900751
   31    32     0     0     0
SMALL
USER_CHARGES

@<TRIPOS>ATOM
      1 C1          1.0667    1.5013    0.2926 C.3       1 <0>         0.0325
      2 O1          0.6515    0.1601    0.0261 O.3       1 <0>        -0.3424
      3 C2          1.5788   -0.6791   -0.4745 C.2       1 <0>         0.5024
      4 O2          2.7088   -0.2833   -0.6791 O.2       1 <0>        -0.4515
      5 C3          1.2213   -2.0808   -0.7745 C.ar      1 <0>        -0.0298
      6 C4          0.6571   -2.8870    0.2153 C.ar      1 <0>        -0.0873
      7 C5          0.3243   -4.1997   -0.0737 C.ar      1 <0>         0.1313
      8 C6          0.5523   -4.7109   -1.3448 C.ar      1 <0>        -0.0937
      9 C7          1.1110   -3.9135   -2.3262 C.ar      1 <0>        -0.0367
     10 C8          1.4413   -2.6022   -2.0509 C.ar      1 <0>        -0.0088
     11 N1          2.0342   -1.7506   -3.1066 N.pl3     1 <0>         0.0248
     12 O3          2.3456   -2.2347   -4.1698 O.2       1 <0>        -0.1387
     13 O4          2.2069   -0.5710   -2.9056 O.3       1 <0>        -0.1295
     14 O5         -0.2252   -4.9883    0.8869 O.3       1 <0>        -0.2370
     15 C9         -1.5526   -4.8492    1.1445 C.ar      1 <0>         0.1279
     16 C10        -2.3006   -3.9107    0.4486 C.ar      1 <0>        -0.1710
     17 C11        -3.6495   -3.7708    0.7117 C.ar      1 <0>        -0.0622
     18 C12        -4.2553   -4.5654    1.6691 C.ar      1 <0>        -0.0506
     19 C13        -3.5119   -5.5022    2.3647 C.ar      1 <0>        -0.0639
     20 C14        -2.1630   -5.6500    2.1003 C.ar      1 <0>        -0.0462
     21 Cl1        -1.2316   -6.8304    2.9680 Cl        1 <0>        -0.0324
     22 Cl2        -5.9504   -4.3862    1.9981 Cl        1 <0>        -0.0461
     23 H1          1.8776    1.4926    1.0210 H         1 <0>         0.0655
     24 H2          1.4130    1.9648   -0.6311 H         1 <0>         0.0712
     25 H3          0.2262    2.0694    0.6913 H         1 <0>         0.1089
     26 H4          0.4810   -2.4885    1.2035 H         1 <0>         0.1673
     27 H5          0.2924   -5.7353   -1.5673 H         1 <0>         0.1686
     28 H6          1.2858   -4.3169   -3.3126 H         1 <0>         0.1759
     29 H7         -1.8286   -3.2896   -0.2982 H         1 <0>         0.1452
     30 H8         -4.2319   -3.0402    0.1699 H         1 <0>         0.1492
     31 H9         -3.9865   -6.1215    3.1115 H         1 <0>         0.1571
@<TRIPOS>BOND
     1    1    2 1
     2    1   23 1
     3    1   24 1
     4    1   25 1
     5    2    3 1
     6    3    4 2
     7    3    5 1
     8    5   10 ar
     9    5    6 ar
    10    6    7 ar
    11    6   26 1
    12    7    8 ar
    13    7   14 1
    14    8    9 ar
    15    8   27 1
    16    9   10 ar
    17    9   28 1
    18   10   11 1
    19   11   12 2
    20   11   13 1
    21   14   15 1
    22   15   20 ar
    23   15   16 ar
    24   16   17 ar
    25   16   29 1
    26   17   18 ar
    27   17   30 1
    28   18   19 ar
    29   18   22 1
    30   19   20 ar
    31   19   31 1
    32   20   21 1
@<TRIPOS>MOLECULE
ZINC01720410
   40    42     0     0     0
SMALL
USER_CHARGES
dimethyl 1-[2-(1H-indol-3-yl)ethyl]triazole-4,5-dicarboxylate
@<TRIPOS>ATOM
      1 C1        -10.4006    0.4580   -1.2470 C.3       1 <0>         0.0369
      2 O1         -9.0080    0.0551   -1.3277 O.3       1 <0>        -0.3394
      3 C2         -8.0840    1.0338   -1.2721 C.2       1 <0>         0.5391
      4 O2         -8.4321    2.1919   -1.1594 O.2       1 <0>        -0.4489
      5 C3         -6.6464    0.6982   -1.3484 C.2       1 <0>         0.0233
      6 C4         -5.5729    1.5852   -1.3057 C.2       1 <0>         0.0117
      7 N1         -4.4571    0.8089   -1.4105 N.pl3     1 <0>        -0.2467
      8 N2         -4.8257   -0.4190   -1.5111 N.2       1 <0>        -0.0378
      9 N3         -6.1056   -0.5246   -1.4735 N.2       1 <0>        -0.2129
     10 C5         -3.0740    1.2918   -1.4143 C.3       1 <0>         0.1067
     11 C6         -2.5449    1.3346    0.0206 C.3       1 <0>        -0.0515
     12 C7         -1.1221    1.8313    0.0168 C.2       1 <0>        -0.1799
     13 C8         -0.0126    1.0758    0.0080 C.2       1 <0>         0.0719
     14 N4          1.0971    1.8764    0.0017 N.pl3     1 <0>        -0.5927
     15 H1          2.0135    1.5586   -0.0090 H         1 <0>         0.4188
     16 C9          0.7191    3.2004    0.0119 C.ar      1 <0>         0.0950
     17 C10        -0.6876    3.2303    0.0251 C.ar      1 <0>        -0.0968
     18 C11        -1.3581    4.4545    0.0376 C.ar      1 <0>        -0.0758
     19 C12        -0.6436    5.6195    0.0369 C.ar      1 <0>        -0.1448
     20 C13         0.7441    5.5954    0.0242 C.ar      1 <0>        -0.0966
     21 C14         1.4261    4.3982    0.0109 C.ar      1 <0>        -0.1286
     22 C15        -5.6312    3.0534   -1.1744 C.2       1 <0>         0.5251
     23 O3         -6.7059    3.6135   -1.0900 O.2       1 <0>        -0.4265
     24 O4         -4.4923    3.7733   -1.1481 O.3       1 <0>        -0.3568
     25 C16        -4.6255    5.2132   -1.0169 C.3       1 <0>         0.0330
     26 H2        -10.5758    0.9729   -0.3023 H         1 <0>         0.0667
     27 H3        -10.6336    1.1281   -2.0746 H         1 <0>         0.0667
     28 H4        -11.0380   -0.4244   -1.3035 H         1 <0>         0.1075
     29 H5         -3.0399    2.2929   -1.8441 H         1 <0>         0.1252
     30 H6         -2.4561    0.6196   -2.0096 H         1 <0>         0.1199
     31 H7         -2.5790    0.3335    0.4504 H         1 <0>         0.0856
     32 H8         -3.1628    2.0068    0.6159 H         1 <0>         0.0826
     33 H9          0.0021   -0.0041    0.0020 H         1 <0>         0.1738
     34 H10        -2.4377    4.4810    0.0482 H         1 <0>         0.1248
     35 H11        -1.1628    6.5664    0.0465 H         1 <0>         0.1227
     36 H12         1.2948    6.5244    0.0242 H         1 <0>         0.1260
     37 H13         2.5060    4.3899    0.0005 H         1 <0>         0.1205
     38 H14        -5.1992    5.6032   -1.8577 H         1 <0>         0.0708
     39 H15        -5.1414    5.4470   -0.0856 H         1 <0>         0.0711
     40 H16        -3.6361    5.6704   -1.0089 H         1 <0>         0.1100
@<TRIPOS>BOND
     1    1    2 1
     2    1   26 1
     3    1   27 1
     4    1   28 1
     5    2    3 1
     6    3    4 2
     7    3    5 1
     8    5    9 1
     9    5    6 2
    10    6    7 1
    11    6   22 1
    12    7    8 1
    13    7   10 1
    14    8    9 2
    15   10   11 1
    16   10   29 1
    17   10   30 1
    18   11   12 1
    19   11   31 1
    20   11   32 1
    21   12   17 1
    22   12   13 2
    23   13   14 1
    24   13   33 1
    25   14   15 1
    26   14   16 1
    27   16   21 ar
    28   16   17 ar
    29   17   18 ar
    30   18   19 ar
    31   18   34 1
    32   19   20 ar
    33   19   35 1
    34   20   21 ar
    35   20   36 1
    36   21   37 1
    37   22   23 2
    38   22   24 1
    39   24   25 1
    40   25   38 1
    41   25   39 1
    42   25   40 1
@<TRIPOS>MOLECULE
ZINC02011298
   30    30     0     0     0
SMALL
USER_CHARGES

@<TRIPOS>ATOM
      1 C1          0.3323    1.8389   -0.2034 C.3       1 <0>        -0.1366
      2 C2          0.2358    0.3129   -0.1492 C.3       1 <0>        -0.0936
      3 S1          1.0444   -0.3964   -1.6099 S.3       1 <0>        -0.2420
      4 C3          0.8449   -2.1867   -1.3959 C.3       1 <0>        -0.0434
      5 C4          1.4814   -2.9054   -2.5576 C.ar      1 <0>        -0.0753
      6 C5          0.7383   -3.1858   -3.6882 C.ar      1 <0>        -0.0889
      7 C6          1.3215   -3.8455   -4.7539 C.ar      1 <0>        -0.1114
      8 C7          2.6494   -4.2265   -4.6914 C.ar      1 <0>        -0.0992
      9 C8          3.3964   -3.9485   -3.5634 C.ar      1 <0>        -0.1150
     10 C9          2.8151   -3.2810   -2.4949 C.ar      1 <0>         0.1216
     11 O1          3.5497   -3.0013   -1.3859 O.3       1 <0>        -0.3020
     12 C10         3.4805   -3.8579   -0.3490 C.2       1 <0>         0.6404
     13 O2          2.8632   -4.8986   -0.4608 O.2       1 <0>        -0.5534
     14 N1          4.0958   -3.5609    0.8128 N.am      1 <0>        -0.7096
     15 C11         4.0205   -4.4927    1.9407 C.3       1 <0>         0.1031
     16 H1          1.3808    2.1363   -0.2186 H         1 <0>         0.0654
     17 H2         -0.1616    2.2024   -1.1046 H         1 <0>         0.0657
     18 H3         -0.1536    2.2651    0.6743 H         1 <0>         0.0726
     19 H4          0.7297   -0.0506    0.7520 H         1 <0>         0.0791
     20 H5         -0.8127    0.0155   -0.1340 H         1 <0>         0.0806
     21 H6          1.3260   -2.4976   -0.4686 H         1 <0>         0.0815
     22 H7         -0.2164   -2.4316   -1.3545 H         1 <0>         0.0943
     23 H8         -0.2990   -2.8896   -3.7393 H         1 <0>         0.1342
     24 H9          0.7389   -4.0641   -5.6367 H         1 <0>         0.1335
     25 H10         3.1026   -4.7421   -5.5251 H         1 <0>         0.1350
     26 H11         4.4332   -4.2468   -3.5147 H         1 <0>         0.1334
     27 H12         4.5885   -2.7301    0.9021 H         1 <0>         0.4116
     28 H13         2.9779   -4.6365    2.2242 H         1 <0>         0.0644
     29 H14         4.4535   -5.4500    1.6507 H         1 <0>         0.0659
     30 H15         4.5741   -4.0849    2.7865 H         1 <0>         0.0879
@<TRIPOS>BOND
     1    1    2 1
     2    1   16 1
     3    1   17 1
     4    1   18 1
     5    2    3 1
     6    2   19 1
     7    2   20 1
     8    3    4 1
     9    4    5 1
    10    4   21 1
    11    4   22 1
    12    5   10 ar
    13    5    6 ar
    14    6    7 ar
    15    6   23 1
    16    7    8 ar
    17    7   24 1
    18    8    9 ar
    19    8   25 1
    20    9   10 ar
    21    9   26 1
    22   10   11 1
    23   11   12 1
    24   12   13 2
    25   12   14 am
    26   14   15 1
    27   14   27 1
    28   15   28 1
    29   15   29 1
    30   15   30 1
