@<TRIPOS>MOLECULE
ZINC00001131
   18    19     0     0     0
SMALL
USER_CHARGES

@<TRIPOS>ATOM
      1 C1         -0.0168    1.3885    0.0097 C.ar      1 <0>        -0.1593
      2 C2          1.1577    2.0864    0.0022 C.ar      1 <0>        -0.0549
      3 C3          2.3623    1.3593   -0.0132 C.ar      1 <0>        -0.0857
      4 C4          3.6079    2.0102   -0.0210 C.ar      1 <0>        -0.0139
      5 C5          4.7560    1.2770   -0.0355 C.ar      1 <0>        -0.0845
      6 C6          4.7161   -0.1159   -0.0432 C.ar      1 <0>        -0.0482
      7 C7          3.5148   -0.7876   -0.0359 C.ar      1 <0>         0.1564
      8 C8          2.3091   -0.0565   -0.0203 C.ar      1 <0>         0.1205
      9 N1          1.1266   -0.6782   -0.0118 N.ar      1 <0>        -0.4548
     10 C9          0.0021   -0.0041    0.0020 C.ar      1 <0>         0.1401
     11 O1          3.4907   -2.1465   -0.0440 O.3       1 <0>        -0.4646
     12 Cl1         6.2006   -1.0155   -0.0629 Cl        1 <0>        -0.0310
     13 Cl2         3.6833    3.7445   -0.0128 Cl        1 <0>        -0.0401
     14 H1         -0.9590    1.9162    0.0260 H         1 <0>         0.1478
     15 H2          1.1614    3.1664    0.0076 H         1 <0>         0.1491
     16 H3          5.7105    1.7824   -0.0415 H         1 <0>         0.1547
     17 H4         -0.9340   -0.5427    0.0081 H         1 <0>         0.1694
     18 H5          3.4922   -2.5452    0.8370 H         1 <0>         0.3990
@<TRIPOS>BOND
     1    1   10 ar
     2    1    2 ar
     3    1   14 1
     4    2    3 ar
     5    2   15 1
     6    3    8 ar
     7    3    4 ar
     8    4    5 ar
     9    4   13 1
    10    5    6 ar
    11    5   16 1
    12    6    7 ar
    13    6   12 1
    14    7    8 ar
    15    7   11 1
    16    8    9 ar
    17    9   10 ar
    18   10   17 1
    19   11   18 1
@<TRIPOS>MOLECULE
ZINC00001131
   17    18     0     0     0
SMALL
USER_CHARGES

@<TRIPOS>ATOM
      1 C1         -0.0168    1.3885    0.0097 C.ar      1 <0>        -0.1554
      2 C2          1.1577    2.0864    0.0022 C.ar      1 <0>        -0.1059
      3 C3          2.3623    1.3593   -0.0132 C.ar      1 <0>        -0.0242
      4 C4          3.6079    2.0102   -0.0210 C.ar      1 <0>        -0.1776
      5 C5          4.7560    1.2770   -0.0355 C.ar      1 <0>         0.0001
      6 C6          4.7161   -0.1159   -0.0432 C.ar      1 <0>        -0.2231
      7 C7          3.5148   -0.7876   -0.0359 C.ar      1 <0>         0.3209
      8 C8          2.3091   -0.0565   -0.0203 C.ar      1 <0>         0.0496
      9 N1          1.1266   -0.6782   -0.0118 N.ar      1 <0>        -0.4127
     10 C9          0.0021   -0.0041    0.0020 C.ar      1 <0>         0.0501
     11 O1          3.4907   -2.1465   -0.0440 O.3       1 <0>        -0.6317
     12 Cl1         6.2006   -1.0155   -0.0629 Cl        1 <0>        -0.0973
     13 Cl2         3.6833    3.7445   -0.0128 Cl        1 <0>        -0.1069
     14 H1         -0.9590    1.9162    0.0260 H         1 <0>         0.1230
     15 H2          1.1614    3.1664    0.0076 H         1 <0>         0.1290
     16 H3          5.7105    1.7824   -0.0415 H         1 <0>         0.1171
     17 H4         -0.9340   -0.5427    0.0081 H         1 <0>         0.1447
@<TRIPOS>BOND
     1    1   10 ar
     2    1    2 ar
     3    1   14 1
     4    2    3 ar
     5    2   15 1
     6    3    8 ar
     7    3    4 ar
     8    4    5 ar
     9    4   13 1
    10    5    6 ar
    11    5   16 1
    12    6    7 ar
    13    6   12 1
    14    7    8 ar
    15    7   11 1
    16    8    9 ar
    17    9   10 ar
    18   10   17 1
@<TRIPOS>MOLECULE
ZINC04844909
   39    41     0     0     0
SMALL
USER_CHARGES

@<TRIPOS>ATOM
      1 C1         -1.8925    1.5758   -1.6682 C.3       1 <0>        -0.1349
      2 C2         -1.5971    0.1183   -1.3088 C.3       1 <0>        -0.1454
      3 C3         -0.4781   -0.3964   -2.1771 C.2       1 <0>         0.5120
      4 O1          0.0328    0.3310   -3.0022 O.2       1 <0>        -0.5344
      5 N1         -0.0451   -1.6650   -2.0367 N.am      1 <0>        -0.7271
      6 C4          1.0427   -2.1652   -2.8809 C.3       1 <0>         0.3066
      7 H1          0.9906   -1.6899   -3.8604 H         1 <0>         0.1229
      8 C5          2.3668   -1.8443   -2.2366 C.2       1 <0>        -0.1083
      9 C6          3.5165   -1.4188   -2.8148 C.2       1 <0>        -0.1538
     10 C7          4.6209   -1.1839   -2.0174 C.2       1 <0>        -0.1443
     11 C8          4.5214   -1.3859   -0.6807 C.2       1 <0>        -0.1952
     12 S1          2.8256   -1.9183   -0.5129 S.3       1 <0>         0.0166
     13 C9          0.9099   -3.6580   -3.0392 C.ar      1 <0>        -0.2828
     14 C10         0.2886   -4.4009   -2.0388 C.ar      1 <0>         0.0496
     15 C11         0.1531   -5.7512   -2.1513 C.ar      1 <0>        -0.1883
     16 C12         0.6451   -6.4080   -3.2911 C.ar      1 <0>        -0.0014
     17 C13         0.5230   -7.8022   -3.4433 C.ar      1 <0>        -0.1128
     18 C14         1.0244   -8.3728   -4.5783 C.ar      1 <0>        -0.1428
     19 C15         1.6356   -7.5768   -5.5448 C.ar      1 <0>         0.0605
     20 N2          1.7472   -6.2788   -5.3992 N.ar      1 <0>        -0.4107
     21 C16         1.2778   -5.6588   -4.3129 C.ar      1 <0>         0.0561
     22 C17         1.3957   -4.2608   -4.1642 C.ar      1 <0>         0.3529
     23 O2          1.9939   -3.5190   -5.1323 O.3       1 <0>        -0.6048
     24 N3         -0.5096   -6.5238   -1.0764 N.pl3     1 <0>         0.0695
     25 O3         -1.2222   -7.4595   -1.3559 O.2       1 <0>        -0.2048
     26 O4         -0.3382   -6.2189    0.0809 O.3       1 <0>        -0.2037
     27 H2         -0.9992    2.1786   -1.5047 H         1 <0>         0.0608
     28 H3         -2.1869    1.6392   -2.7158 H         1 <0>         0.0611
     29 H4         -2.7019    1.9480   -1.0401 H         1 <0>         0.0583
     30 H5         -1.3027    0.0549   -0.2612 H         1 <0>         0.0924
     31 H6         -2.4905   -0.4845   -1.4722 H         1 <0>         0.0920
     32 H7         -0.4537   -2.2467   -1.3768 H         1 <0>         0.3964
     33 H8          3.5691   -1.2660   -3.8827 H         1 <0>         0.1364
     34 H9          5.5492   -0.8448   -2.4528 H         1 <0>         0.1279
     35 H10         5.2720   -1.2549    0.0846 H         1 <0>         0.1791
     36 H11        -0.0909   -3.8992   -1.1609 H         1 <0>         0.1182
     37 H12         0.0464   -8.4038   -2.6835 H         1 <0>         0.1438
     38 H13         0.9476   -9.4399   -4.7263 H         1 <0>         0.1309
     39 H14         2.0280   -8.0414   -6.4373 H         1 <0>         0.1514
@<TRIPOS>BOND
     1    1    2 1
     2    1   27 1
     3    1   28 1
     4    1   29 1
     5    2    3 1
     6    2   30 1
     7    2   31 1
     8    3    4 2
     9    3    5 am
    10    5    6 1
    11    5   32 1
    12    6    7 1
    13    6    8 1
    14    6   13 1
    15    8   12 1
    16    8    9 2
    17    9   10 1
    18    9   33 1
    19   10   11 2
    20   10   34 1
    21   11   12 1
    22   11   35 1
    23   13   22 ar
    24   13   14 ar
    25   14   15 ar
    26   14   36 1
    27   15   16 ar
    28   15   24 1
    29   16   21 ar
    30   16   17 ar
    31   17   18 ar
    32   17   37 1
    33   18   19 ar
    34   18   38 1
    35   19   20 ar
    36   19   39 1
    37   20   21 ar
    38   21   22 ar
    39   22   23 1
    40   24   25 2
    41   24   26 1
@<TRIPOS>MOLECULE
ZINC04844910
   39    41     0     0     0
SMALL
USER_CHARGES

@<TRIPOS>ATOM
      1 C1          0.0728    1.5139    0.2057 C.3       1 <0>        -0.1350
      2 C2          0.0895   -0.0153    0.1576 C.3       1 <0>        -0.1453
      3 C3          0.7905   -0.4708   -1.0962 C.2       1 <0>         0.5121
      4 O1          1.2332    0.3470   -1.8747 O.2       1 <0>        -0.5346
      5 N1          0.9255   -1.7871   -1.3525 N.am      1 <0>        -0.7270
      6 C4          1.6070   -2.2300   -2.5714 C.3       1 <0>         0.3066
      7 H1          2.3812   -1.5101   -2.8367 H         1 <0>         0.1232
      8 C5          0.6091   -2.3319   -3.6960 C.2       1 <0>        -0.1088
      9 C6          0.7540   -1.9894   -4.9995 C.2       1 <0>        -0.1535
     10 C7         -0.3093   -2.1736   -5.8632 C.2       1 <0>        -0.1443
     11 C8         -1.4656   -2.6913   -5.3812 C.2       1 <0>        -0.1952
     12 S1         -1.0681   -2.9424   -3.6589 S.3       1 <0>         0.0163
     13 C9          2.2355   -3.5789   -2.3336 C.ar      1 <0>        -0.2829
     14 C10         1.6793   -4.4375   -1.3891 C.ar      1 <0>         0.0495
     15 C11         2.2235   -5.6627   -1.1504 C.ar      1 <0>        -0.1884
     16 C12         3.3617   -6.0705   -1.8652 C.ar      1 <0>        -0.0013
     17 C13         3.9520   -7.3297   -1.6465 C.ar      1 <0>        -0.1128
     18 C14         5.0570   -7.6591   -2.3784 C.ar      1 <0>        -0.1428
     19 C15         5.5678   -6.7576   -3.3099 C.ar      1 <0>         0.0606
     20 N2          5.0151   -5.5861   -3.5105 N.ar      1 <0>        -0.4107
     21 C16         3.9326   -5.2026   -2.8278 C.ar      1 <0>         0.0561
     22 C17         3.3386   -3.9427   -3.0519 C.ar      1 <0>         0.3528
     23 O2          3.8641   -3.0941   -3.9733 O.3       1 <0>        -0.6047
     24 N3          1.6182   -6.5609   -0.1414 N.pl3     1 <0>         0.0693
     25 O3          0.4161   -6.6164   -0.0250 O.2       1 <0>        -0.2032
     26 O4          2.3260   -7.2391    0.5663 O.3       1 <0>        -0.2046
     27 H2          1.0964    1.8886    0.2051 H         1 <0>         0.0611
     28 H3         -0.4556    1.8991   -0.6664 H         1 <0>         0.0608
     29 H4         -0.4342    1.8434    1.1126 H         1 <0>         0.0583
     30 H5          0.6179   -0.4005    1.0297 H         1 <0>         0.0921
     31 H6         -0.9340   -0.3900    0.1582 H         1 <0>         0.0925
     32 H7          0.5715   -2.4412   -0.7298 H         1 <0>         0.3963
     33 H8          1.6863   -1.5783   -5.3577 H         1 <0>         0.1367
     34 H9         -0.2203   -1.9086   -6.9064 H         1 <0>         0.1279
     35 H10        -2.3869   -2.9013   -5.9042 H         1 <0>         0.1791
     36 H11         0.8041   -4.1272   -0.8376 H         1 <0>         0.1180
     37 H12         3.5426   -8.0160   -0.9199 H         1 <0>         0.1434
     38 H13         5.5345   -8.6172   -2.2351 H         1 <0>         0.1309
     39 H14         6.4424   -7.0311   -3.8815 H         1 <0>         0.1514
@<TRIPOS>BOND
     1    1    2 1
     2    1   27 1
     3    1   28 1
     4    1   29 1
     5    2    3 1
     6    2   30 1
     7    2   31 1
     8    3    4 2
     9    3    5 am
    10    5    6 1
    11    5   32 1
    12    6    7 1
    13    6    8 1
    14    6   13 1
    15    8   12 1
    16    8    9 2
    17    9   10 1
    18    9   33 1
    19   10   11 2
    20   10   34 1
    21   11   12 1
    22   11   35 1
    23   13   22 ar
    24   13   14 ar
    25   14   15 ar
    26   14   36 1
    27   15   16 ar
    28   15   24 1
    29   16   21 ar
    30   16   17 ar
    31   17   18 ar
    32   17   37 1
    33   18   19 ar
    34   18   38 1
    35   19   20 ar
    36   19   39 1
    37   20   21 ar
    38   21   22 ar
    39   22   23 1
    40   24   25 2
    41   24   26 1
@<TRIPOS>MOLECULE
ZINC00319140
   38    40     0     0     0
SMALL
USER_CHARGES

@<TRIPOS>ATOM
      1 C1          0.0620    1.4545    0.2603 C.3       1 <0>        -0.1386
      2 C2          0.0507   -0.0734    0.1821 C.3       1 <0>        -0.1439
      3 C3         -1.3737   -0.5634    0.1352 C.2       1 <0>         0.5157
      4 O1         -2.2895    0.2312    0.1617 O.2       1 <0>        -0.5273
      5 N1         -1.6298   -1.8847    0.0638 N.am      1 <0>        -0.7308
      6 C4         -3.0144   -2.3611    0.0182 C.3       1 <0>         0.2835
      7 H1         -3.6308   -1.6358   -0.5130 H         1 <0>         0.1212
      8 C5         -3.0666   -3.6855   -0.6989 C.ar      1 <0>        -0.1091
      9 C6         -1.9490   -4.5159   -0.6874 C.ar      1 <0>        -0.0956
     10 C7         -1.9639   -5.7187   -1.3255 C.ar      1 <0>        -0.0949
     11 C8         -3.1210   -6.1317   -2.0063 C.ar      1 <0>        -0.0885
     12 C9         -3.1744   -7.3683   -2.6769 C.ar      1 <0>        -0.0591
     13 C10        -4.3328   -7.7044   -3.3174 C.ar      1 <0>        -0.1670
     14 C11        -5.4185   -6.8313   -3.2940 C.ar      1 <0>         0.1305
     15 N2         -5.3646   -5.6807   -2.6683 N.ar      1 <0>        -0.4591
     16 C12        -4.2615   -5.2923   -2.0224 C.ar      1 <0>         0.1048
     17 C13        -4.2113   -4.0554   -1.3454 C.ar      1 <0>         0.1600
     18 O2         -5.2937   -3.2347   -1.3413 O.3       1 <0>        -0.4741
     19 C14        -3.5343   -2.5294    1.4226 C.2       1 <0>        -0.1500
     20 C15        -4.7607   -2.2361    1.9197 C.2       1 <0>        -0.1320
     21 C16        -5.0176   -2.4776    3.2562 C.2       1 <0>        -0.1544
     22 C17        -4.0355   -3.0005    4.0303 C.2       1 <0>        -0.1722
     23 S1         -2.6971   -3.1740    2.8616 S.3       1 <0>         0.0349
     24 H2          1.0923    1.8089    0.2943 H         1 <0>         0.0632
     25 H3         -0.4353    1.8670   -0.6175 H         1 <0>         0.0623
     26 H4         -0.4627    1.7762    1.1599 H         1 <0>         0.0624
     27 H5          0.5754   -0.3951   -0.7175 H         1 <0>         0.0951
     28 H6          0.5480   -0.4859    1.0600 H         1 <0>         0.0954
     29 H7         -0.8973   -2.5203    0.0426 H         1 <0>         0.4015
     30 H8         -1.0575   -4.2014   -0.1652 H         1 <0>         0.1292
     31 H9         -1.0896   -6.3524   -1.3085 H         1 <0>         0.1382
     32 H10        -2.3229   -8.0326   -2.6850 H         1 <0>         0.1434
     33 H11        -4.4072   -8.6456   -3.8418 H         1 <0>         0.1417
     34 H12        -6.3282   -7.1097   -3.8051 H         1 <0>         0.1630
     35 H13        -5.3156   -2.6089   -2.0783 H         1 <0>         0.3940
     36 H14        -5.5257   -1.8197    1.2811 H         1 <0>         0.1363
     37 H15        -5.9863   -2.2527    3.6775 H         1 <0>         0.1349
     38 H16        -4.0580   -3.2510    5.0806 H         1 <0>         0.1857
@<TRIPOS>BOND
     1    1    2 1
     2    1   24 1
     3    1   25 1
     4    1   26 1
     5    2    3 1
     6    2   27 1
     7    2   28 1
     8    3    4 2
     9    3    5 am
    10    5    6 1
    11    5   29 1
    12    6    7 1
    13    6    8 1
    14    6   19 1
    15    8   17 ar
    16    8    9 ar
    17    9   10 ar
    18    9   30 1
    19   10   11 ar
    20   10   31 1
    21   11   16 ar
    22   11   12 ar
    23   12   13 ar
    24   12   32 1
    25   13   14 ar
    26   13   33 1
    27   14   15 ar
    28   14   34 1
    29   15   16 ar
    30   16   17 ar
    31   17   18 1
    32   18   35 1
    33   19   23 1
    34   19   20 2
    35   20   21 1
    36   20   36 1
    37   21   22 2
    38   21   37 1
    39   22   23 1
    40   22   38 1
@<TRIPOS>MOLECULE
ZINC00319140
   37    39     0     0     0
SMALL
USER_CHARGES

@<TRIPOS>ATOM
      1 C1          0.1591    1.4583   -0.1841 C.3       1 <0>        -0.1348
      2 C2          0.1354   -0.0705   -0.1298 C.3       1 <0>        -0.1445
      3 C3          0.8189   -0.5391    1.1289 C.2       1 <0>         0.5080
      4 O1          1.2796    0.2700    1.9060 O.2       1 <0>        -0.5387
      5 N1          0.9182   -1.8574    1.3910 N.am      1 <0>        -0.7219
      6 C4          1.5826   -2.3130    2.6146 C.3       1 <0>         0.3055
      7 H1          1.4126   -1.5890    3.4115 H         1 <0>         0.1146
      8 C5          1.0211   -3.6505    3.0230 C.ar      1 <0>        -0.3077
      9 C6          0.4934   -4.4978    2.0522 C.ar      1 <0>        -0.0104
     10 C7         -0.0214   -5.7128    2.3884 C.ar      1 <0>        -0.2694
     11 C8         -0.0223   -6.1212    3.7322 C.ar      1 <0>        -0.0309
     12 C9         -0.5452   -7.3700    4.1181 C.ar      1 <0>        -0.1136
     13 C10        -0.5124   -7.7007    5.4427 C.ar      1 <0>        -0.1605
     14 C11         0.0285   -6.8106    6.3682 C.ar      1 <0>         0.0411
     15 N2          0.5144   -5.6487    6.0046 N.ar      1 <0>        -0.4158
     16 C12         0.5127   -5.2646    4.7251 C.ar      1 <0>         0.0387
     17 C13         1.0426   -4.0154    4.3388 C.ar      1 <0>         0.3265
     18 O2          1.5665   -3.1780    5.2713 O.3       1 <0>        -0.6570
     19 C14         3.0626   -2.4451    2.3632 C.2       1 <0>        -0.0871
     20 C15         4.0986   -2.1229    3.1758 C.2       1 <0>        -0.1646
     21 C16         5.3902   -2.3336    2.7309 C.2       1 <0>        -0.1386
     22 C17         5.5827   -2.8562    1.4951 C.2       1 <0>        -0.2048
     23 S1          3.9063   -3.0738    0.9210 S.3       1 <0>         0.0014
     24 H2          1.1921    1.8061   -0.1805 H         1 <0>         0.0602
     25 H3         -0.3353    1.7973   -1.0945 H         1 <0>         0.0567
     26 H4         -0.3627    1.8608    0.6841 H         1 <0>         0.0610
     27 H5         -0.8976   -0.4183   -0.1333 H         1 <0>         0.0907
     28 H6          0.6573   -0.4730   -0.9980 H         1 <0>         0.0898
     29 H7          0.5498   -2.5046    0.7694 H         1 <0>         0.3959
     30 H8          0.4922   -4.1869    1.0179 H         1 <0>         0.0921
     31 H9         -0.4278   -6.3596    1.6248 H         1 <0>         0.1028
     32 H10        -0.9610   -8.0475    3.3870 H         1 <0>         0.1205
     33 H11        -0.9056   -8.6510    5.7726 H         1 <0>         0.1178
     34 H12         0.0476   -7.0850    7.4126 H         1 <0>         0.1393
     35 H13         3.9175   -1.7074    4.1561 H         1 <0>         0.1358
     36 H14         6.2334   -2.0852    3.3584 H         1 <0>         0.1254
     37 H15         6.5096   -3.0852    0.9904 H         1 <0>         0.1765
@<TRIPOS>BOND
     1    1    2 1
     2    1   24 1
     3    1   25 1
     4    1   26 1
     5    2    3 1
     6    2   27 1
     7    2   28 1
     8    3    4 2
     9    3    5 am
    10    5    6 1
    11    5   29 1
    12    6    7 1
    13    6    8 1
    14    6   19 1
    15    8   17 ar
    16    8    9 ar
    17    9   10 ar
    18    9   30 1
    19   10   11 ar
    20   10   31 1
    21   11   16 ar
    22   11   12 ar
    23   12   13 ar
    24   12   32 1
    25   13   14 ar
    26   13   33 1
    27   14   15 ar
    28   14   34 1
    29   15   16 ar
    30   16   17 ar
    31   17   18 1
    32   19   23 1
    33   19   20 2
    34   20   21 1
    35   20   35 1
    36   21   22 2
    37   21   36 1
    38   22   23 1
    39   22   37 1
@<TRIPOS>MOLECULE
ZINC00319145
   38    40     0     0     0
SMALL
USER_CHARGES

@<TRIPOS>ATOM
      1 C1          0.2165   -0.1655    2.9884 C.3       1 <0>        -0.1390
      2 C2          0.0641   -0.6855    1.5576 C.3       1 <0>        -0.1434
      3 C3         -1.3133   -1.2703    1.3797 C.2       1 <0>         0.5135
      4 O1         -2.0960   -1.2712    2.3061 O.2       1 <0>        -0.5229
      5 N1         -1.6754   -1.7925    0.1911 N.am      1 <0>        -0.7298
      6 C4         -3.0144   -2.3611    0.0182 C.3       1 <0>         0.2807
      7 H1         -3.7328   -1.7815    0.5979 H         1 <0>         0.1266
      8 C5         -3.0190   -3.7901    0.4965 C.ar      1 <0>        -0.1070
      9 C6         -1.8232   -4.5020    0.5411 C.ar      1 <0>        -0.0856
     10 C7         -1.7934   -5.7946    0.9683 C.ar      1 <0>        -0.1030
     11 C8         -2.9835   -6.4227    1.3707 C.ar      1 <0>        -0.0882
     12 C9         -2.9923   -7.7573    1.8188 C.ar      1 <0>        -0.0600
     13 C10        -4.1866   -8.3028    2.1947 C.ar      1 <0>        -0.1685
     14 C11        -5.3508   -7.5402    2.1279 C.ar      1 <0>         0.1280
     15 N2         -5.3382   -6.2978    1.7100 N.ar      1 <0>        -0.4593
     16 C12        -4.2036   -5.7049    1.3280 C.ar      1 <0>         0.1037
     17 C13        -4.1951   -4.3654    0.8850 C.ar      1 <0>         0.1560
     18 O2         -5.3512   -3.6536    0.8399 O.3       1 <0>        -0.4743
     19 C14        -3.3940   -2.3181   -1.4396 C.2       1 <0>        -0.1595
     20 C15        -4.5896   -2.0151   -2.0018 C.2       1 <0>        -0.1391
     21 C16        -4.7082   -2.0392   -3.3787 C.2       1 <0>        -0.1567
     22 C17        -3.6254   -2.3651   -4.1262 C.2       1 <0>        -0.1625
     23 S1         -2.3835   -2.6453   -2.8746 S.3       1 <0>         0.0445
     24 H2          1.2128    0.2576    3.1170 H         1 <0>         0.0634
     25 H3         -0.5321    0.6040    3.1770 H         1 <0>         0.0627
     26 H4          0.0774   -0.9875    3.6905 H         1 <0>         0.0623
     27 H5          0.2033    0.1366    0.8555 H         1 <0>         0.0957
     28 H6          0.8127   -1.4550    1.3690 H         1 <0>         0.0947
     29 H7         -1.0493   -1.7918   -0.5498 H         1 <0>         0.4020
     30 H8         -0.9062   -4.0223    0.2320 H         1 <0>         0.1287
     31 H9         -0.8587   -6.3348    0.9972 H         1 <0>         0.1353
     32 H10        -2.0801   -8.3337    1.8638 H         1 <0>         0.1421
     33 H11        -4.2286   -9.3242    2.5430 H         1 <0>         0.1407
     34 H12        -6.2884   -7.9845    2.4279 H         1 <0>         0.1621
     35 H13        -5.8239   -3.7241   -0.0007 H         1 <0>         0.3895
     36 H14        -5.4370   -1.7591   -1.3831 H         1 <0>         0.1391
     37 H15        -5.6497   -1.8023   -3.8520 H         1 <0>         0.1389
     38 H16        -3.5360   -2.4334   -5.2003 H         1 <0>         0.1888
@<TRIPOS>BOND
     1    1    2 1
     2    1   24 1
     3    1   25 1
     4    1   26 1
     5    2    3 1
     6    2   27 1
     7    2   28 1
     8    3    4 2
     9    3    5 am
    10    5    6 1
    11    5   29 1
    12    6    7 1
    13    6    8 1
    14    6   19 1
    15    8   17 ar
    16    8    9 ar
    17    9   10 ar
    18    9   30 1
    19   10   11 ar
    20   10   31 1
    21   11   16 ar
    22   11   12 ar
    23   12   13 ar
    24   12   32 1
    25   13   14 ar
    26   13   33 1
    27   14   15 ar
    28   14   34 1
    29   15   16 ar
    30   16   17 ar
    31   17   18 1
    32   18   35 1
    33   19   23 1
    34   19   20 2
    35   20   21 1
    36   20   36 1
    37   21   22 2
    38   21   37 1
    39   22   23 1
    40   22   38 1
@<TRIPOS>MOLECULE
ZINC00319145
   37    39     0     0     0
SMALL
USER_CHARGES

@<TRIPOS>ATOM
      1 C1          2.4955   -0.1008   -1.6697 C.3       1 <0>        -0.1354
      2 C2          1.3439   -0.6500   -0.8252 C.3       1 <0>        -0.1433
      3 C3          1.8895   -1.2180    0.4596 C.2       1 <0>         0.5086
      4 O1          3.0820   -1.1867    0.6783 O.2       1 <0>        -0.5274
      5 N1          1.0522   -1.7608    1.3656 N.am      1 <0>        -0.7254
      6 C4          1.5826   -2.3130    2.6146 C.3       1 <0>         0.3086
      7 H1          2.4285   -1.7115    2.9475 H         1 <0>         0.1105
      8 C5          2.0349   -3.7320    2.3844 C.ar      1 <0>        -0.3025
      9 C6          1.4938   -4.4614    1.3290 C.ar      1 <0>        -0.0020
     10 C7          1.8813   -5.7455    1.0942 C.ar      1 <0>        -0.2767
     11 C8          2.8402   -6.3468    1.9258 C.ar      1 <0>        -0.0303
     12 C9          3.2661   -7.6718    1.7141 C.ar      1 <0>        -0.1155
     13 C10         4.2020   -8.1910    2.5624 C.ar      1 <0>        -0.1613
     14 C11         4.7068   -7.4119    3.6014 C.ar      1 <0>         0.0371
     15 N2          4.3076   -6.1784    3.7950 N.ar      1 <0>        -0.4152
     16 C12         3.3949   -5.6110    3.0013 C.ar      1 <0>         0.0360
     17 C13         2.9734   -4.2810    3.2107 C.ar      1 <0>         0.3266
     18 O2          3.4943   -3.5523    4.2320 O.3       1 <0>        -0.6620
     19 C14         0.5065   -2.2936    3.6694 C.2       1 <0>        -0.0959
     20 C15         0.6065   -1.9845    4.9853 C.2       1 <0>        -0.1568
     21 C16        -0.5278   -2.0344    5.7737 C.2       1 <0>        -0.1404
     22 C17        -1.7066   -2.3911    5.2076 C.2       1 <0>        -0.1963
     23 S1         -1.2325   -2.6644    3.5083 S.3       1 <0>         0.0012
     24 H2          3.1955   -0.9050   -1.8963 H         1 <0>         0.0620
     25 H3          2.1008    0.3100   -2.5990 H         1 <0>         0.0563
     26 H4          3.0105    0.6837   -1.1154 H         1 <0>         0.0604
     27 H5          0.6438    0.1542   -0.5986 H         1 <0>         0.0884
     28 H6          0.8288   -1.4346   -1.3795 H         1 <0>         0.0896
     29 H7          0.0985   -1.7859    1.1907 H         1 <0>         0.3915
     30 H8          0.7560   -4.0023    0.6877 H         1 <0>         0.0915
     31 H9          1.4528   -6.2994    0.2720 H         1 <0>         0.0995
     32 H10         2.8636   -8.2614    0.9036 H         1 <0>         0.1189
     33 H11         4.5503   -9.2045    2.4282 H         1 <0>         0.1165
     34 H12         5.4463   -7.8355    4.2649 H         1 <0>         0.1381
     35 H13         1.5583   -1.7037    5.4115 H         1 <0>         0.1386
     36 H14        -0.4755   -1.7932    6.8251 H         1 <0>         0.1279
     37 H15        -2.6807   -2.4823    5.6650 H         1 <0>         0.1787
@<TRIPOS>BOND
     1    1    2 1
     2    1   24 1
     3    1   25 1
     4    1   26 1
     5    2    3 1
     6    2   27 1
     7    2   28 1
     8    3    4 2
     9    3    5 am
    10    5    6 1
    11    5   29 1
    12    6    7 1
    13    6    8 1
    14    6   19 1
    15    8   17 ar
    16    8    9 ar
    17    9   10 ar
    18    9   30 1
    19   10   11 ar
    20   10   31 1
    21   11   16 ar
    22   11   12 ar
    23   12   13 ar
    24   12   32 1
    25   13   14 ar
    26   13   33 1
    27   14   15 ar
    28   14   34 1
    29   15   16 ar
    30   16   17 ar
    31   17   18 1
    32   19   23 1
    33   19   20 2
    34   20   21 1
    35   20   35 1
    36   21   22 2
    37   21   36 1
    38   22   23 1
    39   22   37 1
@<TRIPOS>MOLECULE
ZINC00319163
   38    40     0     0     0
SMALL
USER_CHARGES

@<TRIPOS>ATOM
      1 C1          2.4817   -0.1108   -1.6777 C.3       1 <0>        -0.1390
      2 C2          1.3326   -0.6563   -0.8275 C.3       1 <0>        -0.1438
      3 C3          1.8825   -1.2227    0.4562 C.2       1 <0>         0.5139
      4 O1          3.0760   -1.1931    0.6700 O.2       1 <0>        -0.5219
      5 N1          1.0481   -1.7623    1.3667 N.am      1 <0>        -0.7312
      6 C4          1.5826   -2.3130    2.6146 C.3       1 <0>         0.2834
      7 H1          2.4292   -1.7107    2.9442 H         1 <0>         0.1301
      8 C5          0.5097   -2.2931    3.6727 C.2       1 <0>        -0.1644
      9 C6          0.6137   -1.9826    4.9880 C.2       1 <0>        -0.1360
     10 C7         -0.5181   -2.0323    5.7800 C.2       1 <0>        -0.1578
     11 C8         -1.6985   -2.3901    5.2179 C.2       1 <0>        -0.1602
     12 S1         -1.2295   -2.6649    3.5174 S.3       1 <0>         0.0470
     13 C9          2.0349   -3.7320    2.3844 C.ar      1 <0>        -0.1020
     14 C10         1.4937   -4.4612    1.3290 C.ar      1 <0>        -0.0723
     15 C11         1.8820   -5.7461    1.0939 C.ar      1 <0>        -0.0239
     16 C12         2.8419   -6.3469    1.9263 C.ar      1 <0>        -0.0831
     17 C13         3.2687   -7.6713    1.7151 C.ar      1 <0>        -0.0576
     18 C14         4.2051   -8.1897    2.5637 C.ar      1 <0>        -0.1618
     19 C15         4.7093   -7.4100    3.6024 C.ar      1 <0>         0.1345
     20 N2          4.3091   -6.1767    3.7956 N.ar      1 <0>        -0.4550
     21 C16         3.3960   -5.6102    3.0016 C.ar      1 <0>         0.1148
     22 C17         2.9734   -4.2808    3.2108 C.ar      1 <0>         0.1653
     23 O2          3.4938   -3.5516    4.2324 O.3       1 <0>        -0.4706
     24 Cl1         1.1936   -6.6371   -0.2275 Cl        1 <0>        -0.0510
     25 H2          3.1794   -0.9166   -1.9056 H         1 <0>         0.0624
     26 H3          2.0840    0.2989   -2.6062 H         1 <0>         0.0637
     27 H4          3.0004    0.6740   -1.1271 H         1 <0>         0.0629
     28 H5          0.6349    0.1495   -0.5995 H         1 <0>         0.0964
     29 H6          0.8139   -1.4411   -1.3781 H         1 <0>         0.0953
     30 H7          0.0935   -1.7861    1.1958 H         1 <0>         0.4029
     31 H8          1.5667   -1.7009    5.4110 H         1 <0>         0.1398
     32 H9         -0.4627   -1.7901    6.8310 H         1 <0>         0.1394
     33 H10        -2.6711   -2.4814    5.6784 H         1 <0>         0.1892
     34 H11         0.7556   -4.0022    0.6879 H         1 <0>         0.1398
     35 H12         2.8666   -8.2615    0.9049 H         1 <0>         0.1465
     36 H13         4.5539   -9.2030    2.4298 H         1 <0>         0.1452
     37 H14         5.4490   -7.8328    4.2660 H         1 <0>         0.1666
     38 H15         3.0039   -3.6317    5.0622 H         1 <0>         0.3928
@<TRIPOS>BOND
     1    1    2 1
     2    1   25 1
     3    1   26 1
     4    1   27 1
     5    2    3 1
     6    2   28 1
     7    2   29 1
     8    3    4 2
     9    3    5 am
    10    5    6 1
    11    5   30 1
    12    6    7 1
    13    6    8 1
    14    6   13 1
    15    8   12 1
    16    8    9 2
    17    9   10 1
    18    9   31 1
    19   10   11 2
    20   10   32 1
    21   11   12 1
    22   11   33 1
    23   13   22 ar
    24   13   14 ar
    25   14   15 ar
    26   14   34 1
    27   15   16 ar
    28   15   24 1
    29   16   21 ar
    30   16   17 ar
    31   17   18 ar
    32   17   35 1
    33   18   19 ar
    34   18   36 1
    35   19   20 ar
    36   19   37 1
    37   20   21 ar
    38   21   22 ar
    39   22   23 1
    40   23   38 1
@<TRIPOS>MOLECULE
ZINC00319163
   37    39     0     0     0
SMALL
USER_CHARGES

@<TRIPOS>ATOM
      1 C1         -2.6887   -0.1791   -1.3112 C.3       1 <0>        -0.1354
      2 C2         -1.3660   -0.6910   -0.7374 C.3       1 <0>        -0.1436
      3 C3         -0.5140   -1.2407   -1.8522 C.2       1 <0>         0.5096
      4 O1         -0.9243   -1.2246   -2.9934 O.2       1 <0>        -0.5266
      5 N1          0.7039   -1.7502   -1.5811 N.am      1 <0>        -0.7271
      6 C4          1.5322   -2.2846   -2.6649 C.3       1 <0>         0.3109
      7 H1          1.3806   -1.6894   -3.5654 H         1 <0>         0.1133
      8 C5          2.9835   -2.2271   -2.2631 C.2       1 <0>        -0.1019
      9 C6          4.0636   -1.8925   -3.0107 C.2       1 <0>        -0.1530
     10 C7          5.3154   -1.9088   -2.4248 C.2       1 <0>        -0.1420
     11 C8          5.4260   -2.2590   -1.1200 C.2       1 <0>        -0.1936
     12 S1          3.7256   -2.5744   -0.6770 S.3       1 <0>         0.0055
     13 C9          1.1425   -3.7148   -2.9366 C.ar      1 <0>        -0.2928
     14 C10         0.5175   -4.4564   -1.9376 C.ar      1 <0>         0.0124
     15 C11         0.1521   -5.7517   -2.1519 C.ar      1 <0>        -0.1830
     16 C12         0.4082   -6.3506   -3.3973 C.ar      1 <0>        -0.0233
     17 C13         0.0454   -7.6855   -3.6567 C.ar      1 <0>        -0.1086
     18 C14         0.3252   -8.2013   -4.8900 C.ar      1 <0>        -0.1575
     19 C15         0.9529   -7.4089   -5.8487 C.ar      1 <0>         0.0457
     20 N2          1.2892   -6.1659   -5.6031 N.ar      1 <0>        -0.4131
     21 C16         1.0438   -5.6013   -4.4173 C.ar      1 <0>         0.0469
     22 C17         1.4028   -4.2615   -4.1606 C.ar      1 <0>         0.3313
     23 O2          2.0090   -3.5203   -5.1246 O.3       1 <0>        -0.6481
     24 Cl1        -0.6256   -6.6581   -0.8920 Cl        1 <0>        -0.1161
     25 H2         -2.4889    0.6084   -2.0380 H         1 <0>         0.0604
     26 H3         -3.2145   -0.9994   -1.7997 H         1 <0>         0.0622
     27 H4         -3.3050    0.2185   -0.5049 H         1 <0>         0.0566
     28 H5         -0.8402    0.1293   -0.2489 H         1 <0>         0.0890
     29 H6         -1.5658   -1.4785   -0.0106 H         1 <0>         0.0904
     30 H7          1.0321   -1.7631   -0.6684 H         1 <0>         0.3926
     31 H8          3.9478   -1.6176   -4.0487 H         1 <0>         0.1389
     32 H9          6.1924   -1.6469   -2.9982 H         1 <0>         0.1284
     33 H10         6.3123   -2.3258   -0.5066 H         1 <0>         0.1792
     34 H11         0.3197   -3.9989   -0.9795 H         1 <0>         0.1036
     35 H12        -0.4404   -8.2854   -2.9013 H         1 <0>         0.1265
     36 H13         0.0604   -9.2224   -5.1217 H         1 <0>         0.1206
     37 H14         1.1685   -7.8299   -6.8197 H         1 <0>         0.1419
@<TRIPOS>BOND
     1    1    2 1
     2    1   25 1
     3    1   26 1
     4    1   27 1
     5    2    3 1
     6    2   28 1
     7    2   29 1
     8    3    4 2
     9    3    5 am
    10    5    6 1
    11    5   30 1
    12    6    7 1
    13    6    8 1
    14    6   13 1
    15    8   12 1
    16    8    9 2
    17    9   10 1
    18    9   31 1
    19   10   11 2
    20   10   32 1
    21   11   12 1
    22   11   33 1
    23   13   22 ar
    24   13   14 ar
    25   14   15 ar
    26   14   34 1
    27   15   16 ar
    28   15   24 1
    29   16   21 ar
    30   16   17 ar
    31   17   18 ar
    32   17   35 1
    33   18   19 ar
    34   18   36 1
    35   19   20 ar
    36   19   37 1
    37   20   21 ar
    38   21   22 ar
    39   22   23 1
@<TRIPOS>MOLECULE
ZINC00319168
   38    40     0     0     0
SMALL
USER_CHARGES

@<TRIPOS>ATOM
      1 C1          0.1590    1.4584   -0.1840 C.3       1 <0>        -0.1385
      2 C2          0.1354   -0.0705   -0.1298 C.3       1 <0>        -0.1443
      3 C3          0.8189   -0.5391    1.1289 C.2       1 <0>         0.5170
      4 O1          1.2795    0.2700    1.9061 O.2       1 <0>        -0.5260
      5 N1          0.9182   -1.8574    1.3910 N.am      1 <0>        -0.7323
      6 C4          1.5826   -2.3130    2.6146 C.3       1 <0>         0.2863
      7 H1          1.4126   -1.5890    3.4115 H         1 <0>         0.1248
      8 C5          3.0626   -2.4451    2.3632 C.2       1 <0>        -0.1552
      9 C6          4.0986   -2.1229    3.1758 C.2       1 <0>        -0.1286
     10 C7          5.3902   -2.3336    2.7308 C.2       1 <0>        -0.1556
     11 C8          5.5827   -2.8562    1.4950 C.2       1 <0>        -0.1698
     12 S1          3.9063   -3.0738    0.9209 S.3       1 <0>         0.0373
     13 C9          1.0211   -3.6505    3.0230 C.ar      1 <0>        -0.1034
     14 C10         0.4935   -4.4977    2.0521 C.ar      1 <0>        -0.0828
     15 C11        -0.0213   -5.7137    2.3887 C.ar      1 <0>        -0.0174
     16 C12        -0.0213   -6.1218    3.7336 C.ar      1 <0>        -0.0833
     17 C13        -0.5435   -7.3703    4.1203 C.ar      1 <0>        -0.0568
     18 C14        -0.5099   -7.7004    5.4452 C.ar      1 <0>        -0.1601
     19 C15         0.0311   -6.8098    6.3699 C.ar      1 <0>         0.1369
     20 N2          0.5165   -5.6478    6.0056 N.ar      1 <0>        -0.4546
     21 C16         0.5139   -5.2644    4.7257 C.ar      1 <0>         0.1161
     22 C17         1.0428   -4.0153    4.3387 C.ar      1 <0>         0.1693
     23 O2          1.5665   -3.1771    5.2711 O.3       1 <0>        -0.4703
     24 Cl1        -0.6746   -6.7538    1.1619 Cl        1 <0>        -0.0468
     25 H2          1.1921    1.8061   -0.1805 H         1 <0>         0.0625
     26 H3         -0.3353    1.7973   -1.0944 H         1 <0>         0.0634
     27 H4         -0.3628    1.8608    0.6842 H         1 <0>         0.0624
     28 H5         -0.8977   -0.4182   -0.1333 H         1 <0>         0.0956
     29 H6          0.6572   -0.4730   -0.9980 H         1 <0>         0.0959
     30 H7          0.5497   -2.5046    0.7694 H         1 <0>         0.4014
     31 H8          3.9175   -1.7075    4.1561 H         1 <0>         0.1370
     32 H9          6.2334   -2.0853    3.3583 H         1 <0>         0.1355
     33 H10         6.5096   -3.0853    0.9903 H         1 <0>         0.1861
     34 H11         0.4919   -4.1865    1.0179 H         1 <0>         0.1397
     35 H12        -0.9594   -8.0483    3.3897 H         1 <0>         0.1476
     36 H13        -0.9026   -8.6507    5.7757 H         1 <0>         0.1462
     37 H14         0.0508   -7.0837    7.4144 H         1 <0>         0.1675
     38 H15         0.9235   -2.5661    5.6562 H         1 <0>         0.3974
@<TRIPOS>BOND
     1    1    2 1
     2    1   25 1
     3    1   26 1
     4    1   27 1
     5    2    3 1
     6    2   28 1
     7    2   29 1
     8    3    4 2
     9    3    5 am
    10    5    6 1
    11    5   30 1
    12    6    7 1
    13    6    8 1
    14    6   13 1
    15    8   12 1
    16    8    9 2
    17    9   10 1
    18    9   31 1
    19   10   11 2
    20   10   32 1
    21   11   12 1
    22   11   33 1
    23   13   22 ar
    24   13   14 ar
    25   14   15 ar
    26   14   34 1
    27   15   16 ar
    28   15   24 1
    29   16   21 ar
    30   16   17 ar
    31   17   18 ar
    32   17   35 1
    33   18   19 ar
    34   18   36 1
    35   19   20 ar
    36   19   37 1
    37   20   21 ar
    38   21   22 ar
    39   22   23 1
    40   23   38 1
@<TRIPOS>MOLECULE
ZINC00319168
   37    39     0     0     0
SMALL
USER_CHARGES

@<TRIPOS>ATOM
      1 C1         -0.2741    1.4518   -0.0460 C.3       1 <0>        -0.1348
      2 C2         -0.1769   -0.0751   -0.0473 C.3       1 <0>        -0.1449
      3 C3          0.5831   -0.5291   -1.2669 C.2       1 <0>         0.5096
      4 O1          1.0054    0.2881   -2.0572 O.2       1 <0>        -0.5374
      5 N1          0.7934   -1.8433   -1.4793 N.am      1 <0>        -0.7235
      6 C4          1.5322   -2.2846   -2.6649 C.3       1 <0>         0.3077
      7 H1          2.2889   -1.5423   -2.9187 H         1 <0>         0.1176
      8 C5          0.5782   -2.4448   -3.8205 C.2       1 <0>        -0.0934
      9 C6          0.7560   -2.1226   -5.1251 C.2       1 <0>        -0.1608
     10 C7         -0.2694   -2.3623   -6.0204 C.2       1 <0>        -0.1403
     11 C8         -1.4225   -2.9124   -5.5674 C.2       1 <0>        -0.2021
     12 S1         -1.0763   -3.1152   -3.8278 S.3       1 <0>         0.0056
     13 C9          2.2000   -3.6048   -2.3781 C.ar      1 <0>        -0.2971
     14 C10         1.6443   -4.4629   -1.4328 C.ar      1 <0>         0.0040
     15 C11         2.2235   -5.6638   -1.1510 C.ar      1 <0>        -0.1771
     16 C12         3.3982   -6.0449   -1.8219 C.ar      1 <0>        -0.0238
     17 C13         4.0253   -7.2771   -1.5587 C.ar      1 <0>        -0.1068
     18 C14         5.1639   -7.5812   -2.2490 C.ar      1 <0>        -0.1567
     19 C15         5.6719   -6.6807   -3.1830 C.ar      1 <0>         0.0498
     20 N2          5.0847   -5.5340   -3.4253 N.ar      1 <0>        -0.4137
     21 C16         3.9682   -5.1762   -2.7845 C.ar      1 <0>         0.0500
     22 C17         3.3375   -3.9435   -3.0534 C.ar      1 <0>         0.3311
     23 O2          3.8620   -3.0951   -3.9761 O.3       1 <0>        -0.6429
     24 Cl1         1.5139   -6.7179    0.0318 Cl        1 <0>        -0.1120
     25 H2          0.7283    1.8796   -0.0296 H         1 <0>         0.0610
     26 H3         -0.7960    1.7834   -0.9437 H         1 <0>         0.0603
     27 H4         -0.8238    1.7801    0.8361 H         1 <0>         0.0570
     28 H5          0.3450   -0.4067    0.8503 H         1 <0>         0.0913
     29 H6         -1.1793   -0.5030   -0.0637 H         1 <0>         0.0904
     30 H7          0.4556   -2.4969   -0.8472 H         1 <0>         0.3962
     31 H8          1.6848   -1.6849   -5.4599 H         1 <0>         0.1361
     32 H9         -0.1538   -2.1146   -7.0653 H         1 <0>         0.1260
     33 H10        -2.3170   -3.1659   -6.1170 H         1 <0>         0.1770
     34 H11         0.7418   -4.1725   -0.9155 H         1 <0>         0.1036
     35 H12         3.6176   -7.9630   -0.8308 H         1 <0>         0.1278
     36 H13         5.6702   -8.5184   -2.0708 H         1 <0>         0.1219
     37 H14         6.5732   -6.9340   -3.7213 H         1 <0>         0.1432
@<TRIPOS>BOND
     1    1    2 1
     2    1   25 1
     3    1   26 1
     4    1   27 1
     5    2    3 1
     6    2   28 1
     7    2   29 1
     8    3    4 2
     9    3    5 am
    10    5    6 1
    11    5   30 1
    12    6    7 1
    13    6    8 1
    14    6   13 1
    15    8   12 1
    16    8    9 2
    17    9   10 1
    18    9   31 1
    19   10   11 2
    20   10   32 1
    21   11   12 1
    22   11   33 1
    23   13   22 ar
    24   13   14 ar
    25   14   15 ar
    26   14   34 1
    27   15   16 ar
    28   15   24 1
    29   16   21 ar
    30   16   17 ar
    31   17   18 ar
    32   17   35 1
    33   18   19 ar
    34   18   36 1
    35   19   20 ar
    36   19   37 1
    37   20   21 ar
    38   21   22 ar
    39   22   23 1
@<TRIPOS>MOLECULE
ZINC00087256
   35    37     0     0     0
SMALL
USER_CHARGES

@<TRIPOS>ATOM
      1 C1          1.5349    1.3403   -0.6555 C.3       1 <0>        -0.1731
      2 C2          1.3679   -0.1553   -0.7349 C.2       1 <0>         0.5131
      3 O1          2.3002   -0.8845   -0.4706 O.2       1 <0>        -0.5300
      4 N1          0.1823   -0.6825   -1.0997 N.am      1 <0>        -0.7302
      5 C3          0.0199   -2.1365   -1.1769 C.3       1 <0>         0.2822
      6 H1          0.6043   -2.6097   -0.3878 H         1 <0>         0.1368
      7 C4         -1.4351   -2.4892   -1.0048 C.2       1 <0>        -0.0300
      8 C5         -1.9142   -3.5282   -0.2975 C.2       1 <0>        -0.1857
      9 C6         -3.3232   -3.4816   -0.4046 C.2       1 <0>        -0.2118
     10 C7         -3.6208   -2.4168   -1.1709 C.2       1 <0>        -0.0283
     11 O2         -2.4735   -1.8162   -1.5268 O.3       1 <0>        -0.1720
     12 C8          0.4999   -2.6249   -2.5193 C.ar      1 <0>        -0.1083
     13 C9          0.5374   -1.7432   -3.5962 C.ar      1 <0>        -0.0698
     14 C10         0.9666   -2.1536   -4.8227 C.ar      1 <0>        -0.0255
     15 C11         1.3780   -3.4849   -5.0069 C.ar      1 <0>        -0.0823
     16 C12         1.8281   -3.9460   -6.2582 C.ar      1 <0>        -0.0580
     17 C13         2.2126   -5.2524   -6.3633 C.ar      1 <0>        -0.1611
     18 C14         2.1521   -6.0865   -5.2489 C.ar      1 <0>         0.1344
     19 N2          1.7323   -5.6530   -4.0852 N.ar      1 <0>        -0.4545
     20 C15         1.3420   -4.3865   -3.9153 C.ar      1 <0>         0.1137
     21 C16         0.8966   -3.9241   -2.6593 C.ar      1 <0>         0.1668
     22 O3          0.8576   -4.7684   -1.5955 O.3       1 <0>        -0.4709
     23 Cl1         1.0046   -1.0374   -6.1517 Cl        1 <0>        -0.0508
     24 H2          1.8695    1.7203   -1.6208 H         1 <0>         0.0971
     25 H3          0.5811    1.7991   -0.3952 H         1 <0>         0.0825
     26 H4          2.2751    1.5832    0.1069 H         1 <0>         0.0976
     27 H5         -0.5633   -0.0993   -1.3111 H         1 <0>         0.4084
     28 H6         -1.3340   -4.2583    0.2471 H         1 <0>         0.1551
     29 H7         -4.0258   -4.1691    0.0427 H         1 <0>         0.1533
     30 H8         -4.6140   -2.0969   -1.4494 H         1 <0>         0.2067
     31 H9          0.2216   -0.7197   -3.4576 H         1 <0>         0.1414
     32 H10         1.8680   -3.2853   -7.1116 H         1 <0>         0.1466
     33 H11         2.5627   -5.6385   -7.3092 H         1 <0>         0.1455
     34 H12         2.4589   -7.1174   -5.3465 H         1 <0>         0.1670
     35 H13         0.0201   -5.2422   -1.4998 H         1 <0>         0.3938
@<TRIPOS>BOND
     1    1    2 1
     2    1   24 1
     3    1   25 1
     4    1   26 1
     5    2    3 2
     6    2    4 am
     7    4    5 1
     8    4   27 1
     9    5    6 1
    10    5    7 1
    11    5   12 1
    12    7   11 1
    13    7    8 2
    14    8    9 1
    15    8   28 1
    16    9   10 2
    17    9   29 1
    18   10   11 1
    19   10   30 1
    20   12   21 ar
    21   12   13 ar
    22   13   14 ar
    23   13   31 1
    24   14   15 ar
    25   14   23 1
    26   15   20 ar
    27   15   16 ar
    28   16   17 ar
    29   16   32 1
    30   17   18 ar
    31   17   33 1
    32   18   19 ar
    33   18   34 1
    34   19   20 ar
    35   20   21 ar
    36   21   22 1
    37   22   35 1
@<TRIPOS>MOLECULE
ZINC00087256
   34    36     0     0     0
SMALL
USER_CHARGES

@<TRIPOS>ATOM
      1 C1          1.5331    1.3413   -0.6572 C.3       1 <0>        -0.1702
      2 C2          1.3670   -0.1544   -0.7363 C.2       1 <0>         0.5076
      3 O1          2.3000   -0.8830   -0.4726 O.2       1 <0>        -0.5351
      4 N1          0.1815   -0.6824   -1.1000 N.am      1 <0>        -0.7261
      5 C3          0.0199   -2.1365   -1.1769 C.3       1 <0>         0.3129
      6 H1          0.6048   -2.6092   -0.3879 H         1 <0>         0.1188
      7 C4         -1.4348   -2.4901   -1.0044 C.2       1 <0>         0.0057
      8 C5         -1.9132   -3.5292   -0.2968 C.2       1 <0>        -0.1897
      9 C6         -3.3223   -3.4834   -0.4036 C.2       1 <0>        -0.2115
     10 C7         -3.6206   -2.4191   -1.1700 C.2       1 <0>        -0.0605
     11 O2         -2.4737   -1.8178   -1.5263 O.3       1 <0>        -0.1788
     12 C8          0.4999   -2.6249   -2.5193 C.ar      1 <0>        -0.2992
     13 C9          0.5374   -1.7432   -3.5962 C.ar      1 <0>         0.0144
     14 C10         0.9666   -2.1536   -4.8227 C.ar      1 <0>        -0.1843
     15 C11         1.3780   -3.4849   -5.0069 C.ar      1 <0>        -0.0231
     16 C12         1.8281   -3.9460   -6.2582 C.ar      1 <0>        -0.1088
     17 C13         2.2126   -5.2524   -6.3633 C.ar      1 <0>        -0.1574
     18 C14         2.1521   -6.0865   -5.2489 C.ar      1 <0>         0.0459
     19 N2          1.7323   -5.6530   -4.0852 N.ar      1 <0>        -0.4128
     20 C15         1.3420   -4.3865   -3.9153 C.ar      1 <0>         0.0470
     21 C16         0.8966   -3.9241   -2.6593 C.ar      1 <0>         0.3313
     22 O3          0.8576   -4.7684   -1.5955 O.3       1 <0>        -0.6469
     23 Cl1         1.0046   -1.0374   -6.1517 Cl        1 <0>        -0.1162
     24 H2          1.8667    1.7214   -1.6228 H         1 <0>         0.0910
     25 H3          0.5792    1.7996   -0.3962 H         1 <0>         0.0759
     26 H4          2.2737    1.5849    0.1046 H         1 <0>         0.0894
     27 H5         -0.5647   -0.0997   -1.3109 H         1 <0>         0.3975
     28 H6         -1.3324   -4.2589    0.2479 H         1 <0>         0.1502
     29 H7         -4.0243   -4.1713    0.0441 H         1 <0>         0.1424
     30 H8         -4.6141   -2.0998   -1.4484 H         1 <0>         0.1958
     31 H9          0.2216   -0.7197   -3.4576 H         1 <0>         0.1052
     32 H10         1.8680   -3.2853   -7.1116 H         1 <0>         0.1266
     33 H11         2.5627   -5.6385   -7.3092 H         1 <0>         0.1208
     34 H12         2.4589   -7.1174   -5.3465 H         1 <0>         0.1423
@<TRIPOS>BOND
     1    1    2 1
     2    1   24 1
     3    1   25 1
     4    1   26 1
     5    2    3 2
     6    2    4 am
     7    4    5 1
     8    4   27 1
     9    5    6 1
    10    5    7 1
    11    5   12 1
    12    7   11 1
    13    7    8 2
    14    8    9 1
    15    8   28 1
    16    9   10 2
    17    9   29 1
    18   10   11 1
    19   10   30 1
    20   12   21 ar
    21   12   13 ar
    22   13   14 ar
    23   13   31 1
    24   14   15 ar
    25   14   23 1
    26   15   20 ar
    27   15   16 ar
    28   16   17 ar
    29   16   32 1
    30   17   18 ar
    31   17   33 1
    32   18   19 ar
    33   18   34 1
    34   19   20 ar
    35   20   21 ar
    36   21   22 1
@<TRIPOS>MOLECULE
ZINC02470679
   35    37     0     0     0
SMALL
USER_CHARGES
N-[(5-chloro-8-hydroxy-7-quinolyl)-(2-furyl)methyl]acetamide
@<TRIPOS>ATOM
      1 C1          1.3195    1.7535    0.1388 C.3       1 <0>        -0.1721
      2 C2         -0.0180    1.0611    0.0864 C.2       1 <0>         0.5057
      3 O1         -0.0729   -0.1499    0.0507 O.2       1 <0>        -0.5090
      4 N1         -1.1530    1.7878    0.0734 N.am      1 <0>        -0.7309
      5 C3         -2.4474    1.1217   -0.0908 C.3       1 <0>         0.2827
      6 H1         -3.2322    1.8718   -0.1886 H         1 <0>         0.1350
      7 C4         -2.7246    0.2586    1.1131 C.2       1 <0>        -0.0312
      8 C5         -3.9151    0.1188    1.7235 C.2       1 <0>        -0.1953
      9 C6         -3.7215   -0.7797    2.7977 C.2       1 <0>        -0.2166
     10 C7         -2.4226   -1.1289    2.7845 C.2       1 <0>        -0.0370
     11 O2         -1.8236   -0.4969    1.7620 O.3       1 <0>        -0.1442
     12 C8         -2.4168    0.2625   -1.3285 C.ar      1 <0>        -0.1029
     13 C9         -2.3296   -1.1212   -1.2004 C.ar      1 <0>        -0.0368
     14 C10        -2.3053   -1.9261   -2.2998 C.ar      1 <0>        -0.0331
     15 C11        -2.3579   -1.3544   -3.5826 C.ar      1 <0>        -0.0769
     16 C12        -2.3295   -2.1522   -4.7418 C.ar      1 <0>        -0.0593
     17 C13        -2.3836   -1.5277   -5.9553 C.ar      1 <0>        -0.1614
     18 C14        -2.4643   -0.1382   -6.0190 C.ar      1 <0>         0.1306
     19 N2         -2.4901    0.6012   -4.9369 N.ar      1 <0>        -0.4553
     20 C15        -2.4407    0.0529   -3.7195 C.ar      1 <0>         0.1077
     21 C16        -2.4692    0.8535   -2.5585 C.ar      1 <0>         0.1584
     22 O3         -2.5481    2.2059   -2.6635 O.3       1 <0>        -0.4735
     23 Cl1        -2.2030   -3.6494   -2.1166 Cl        1 <0>        -0.0526
     24 H2          1.6672    1.9496   -0.8754 H         1 <0>         0.0930
     25 H3          1.2198    2.6960    0.6773 H         1 <0>         0.0800
     26 H4          2.0388    1.1159    0.6527 H         1 <0>         0.0942
     27 H5         -1.1128    2.7519    0.1729 H         1 <0>         0.4082
     28 H6         -4.8415    0.5990    1.4450 H         1 <0>         0.1491
     29 H7         -4.4718   -1.1180    3.4970 H         1 <0>         0.1489
     30 H8         -1.9426   -1.8028    3.4787 H         1 <0>         0.2012
     31 H9         -2.2847   -1.5630   -0.2159 H         1 <0>         0.1451
     32 H10        -2.2663   -3.2282   -4.6736 H         1 <0>         0.1459
     33 H11        -2.3634   -2.1103   -6.8645 H         1 <0>         0.1443
     34 H12        -2.5068    0.3422   -6.9853 H         1 <0>         0.1656
     35 H13        -1.6890    2.6477   -2.7073 H         1 <0>         0.3926
@<TRIPOS>BOND
     1    1    2 1
     2    1   24 1
     3    1   25 1
     4    1   26 1
     5    2    3 2
     6    2    4 am
     7    4    5 1
     8    4   27 1
     9    5    6 1
    10    5    7 1
    11    5   12 1
    12    7   11 1
    13    7    8 2
    14    8    9 1
    15    8   28 1
    16    9   10 2
    17    9   29 1
    18   10   11 1
    19   10   30 1
    20   12   21 ar
    21   12   13 ar
    22   13   14 ar
    23   13   31 1
    24   14   15 ar
    25   14   23 1
    26   15   20 ar
    27   15   16 ar
    28   16   17 ar
    29   16   32 1
    30   17   18 ar
    31   17   33 1
    32   18   19 ar
    33   18   34 1
    34   19   20 ar
    35   20   21 ar
    36   21   22 1
    37   22   35 1
@<TRIPOS>MOLECULE
ZINC00087313
   39    41     0     0     0
SMALL
USER_CHARGES

@<TRIPOS>ATOM
      1 C1         -1.8918    1.5766   -1.6689 C.3       1 <0>        -0.1350
      2 C2         -1.5975    0.1188   -1.3099 C.3       1 <0>        -0.1448
      3 C3         -0.4779   -0.3960   -2.1775 C.2       1 <0>         0.5111
      4 O1          0.0341    0.3316   -3.0018 O.2       1 <0>        -0.5361
      5 N1         -0.0457   -1.6648   -2.0375 N.am      1 <0>        -0.7259
      6 C4          1.0427   -2.1652   -2.8809 C.3       1 <0>         0.3089
      7 H1          0.9911   -1.6900   -3.8605 H         1 <0>         0.1292
      8 C5          2.3663   -1.8443   -2.2359 C.2       1 <0>         0.0006
      9 C6          3.4723   -1.4247   -2.8763 C.2       1 <0>        -0.1916
     10 C7          4.4721   -1.2460   -1.8928 C.2       1 <0>        -0.2128
     11 C8          3.9173   -1.5670   -0.7102 C.2       1 <0>        -0.0598
     12 O2          2.6400   -1.9231   -0.9234 O.3       1 <0>        -0.1736
     13 C9          0.9098   -3.6580   -3.0392 C.ar      1 <0>        -0.2885
     14 C10         0.2886   -4.4009   -2.0388 C.ar      1 <0>         0.0523
     15 C11         0.1531   -5.7512   -2.1513 C.ar      1 <0>        -0.1894
     16 C12         0.6451   -6.4080   -3.2911 C.ar      1 <0>        -0.0015
     17 C13         0.5231   -7.8022   -3.4432 C.ar      1 <0>        -0.1128
     18 C14         1.0245   -8.3728   -4.5782 C.ar      1 <0>        -0.1427
     19 C15         1.6357   -7.5768   -5.5448 C.ar      1 <0>         0.0608
     20 N2          1.7473   -6.2789   -5.3992 N.ar      1 <0>        -0.4104
     21 C16         1.2779   -5.6588   -4.3129 C.ar      1 <0>         0.0564
     22 C17         1.3957   -4.2608   -4.1642 C.ar      1 <0>         0.3530
     23 O3          1.9939   -3.5190   -5.1323 O.3       1 <0>        -0.6041
     24 N3         -0.5096   -6.5238   -1.0764 N.pl3     1 <0>         0.0696
     25 O4         -1.2222   -7.4595   -1.3559 O.2       1 <0>        -0.2041
     26 O5         -0.3382   -6.2189    0.0809 O.3       1 <0>        -0.2045
     27 H2         -0.9983    2.1789   -1.5043 H         1 <0>         0.0606
     28 H3         -2.1853    1.6407   -2.7167 H         1 <0>         0.0614
     29 H4         -2.7016    1.9489   -1.0413 H         1 <0>         0.0583
     30 H5         -1.3040    0.0547   -0.2621 H         1 <0>         0.0920
     31 H6         -2.4910   -0.4835   -1.4745 H         1 <0>         0.0923
     32 H7         -0.4552   -2.2467   -1.3783 H         1 <0>         0.3976
     33 H8          3.5766   -1.2571   -3.9381 H         1 <0>         0.1486
     34 H9          5.4867   -0.9154   -2.0592 H         1 <0>         0.1425
     35 H10         4.4137   -1.5393    0.2486 H         1 <0>         0.1958
     36 H11        -0.0910   -3.8992   -1.1609 H         1 <0>         0.1200
     37 H12         0.0465   -8.4038   -2.6834 H         1 <0>         0.1438
     38 H13         0.9478   -9.4399   -4.7262 H         1 <0>         0.1311
     39 H14         2.0282   -8.0415   -6.4372 H         1 <0>         0.1517
@<TRIPOS>BOND
     1    1    2 1
     2    1   27 1
     3    1   28 1
     4    1   29 1
     5    2    3 1
     6    2   30 1
     7    2   31 1
     8    3    4 2
     9    3    5 am
    10    5    6 1
    11    5   32 1
    12    6    7 1
    13    6    8 1
    14    6   13 1
    15    8   12 1
    16    8    9 2
    17    9   10 1
    18    9   33 1
    19   10   11 2
    20   10   34 1
    21   11   12 1
    22   11   35 1
    23   13   22 ar
    24   13   14 ar
    25   14   15 ar
    26   14   36 1
    27   15   16 ar
    28   15   24 1
    29   16   21 ar
    30   16   17 ar
    31   17   18 ar
    32   17   37 1
    33   18   19 ar
    34   18   38 1
    35   19   20 ar
    36   19   39 1
    37   20   21 ar
    38   21   22 ar
    39   22   23 1
    40   24   25 2
    41   24   26 1
@<TRIPOS>MOLECULE
ZINC00087326
   39    41     0     0     0
SMALL
USER_CHARGES
N-[2-furyl-(8-hydroxy-5-nitro-7-quinolyl)-methyl]propanamide
@<TRIPOS>ATOM
      1 C1          2.5292    1.1049    0.1641 C.3       1 <0>        -0.1351
      2 C2          1.3324    2.0581    0.1571 C.3       1 <0>        -0.1448
      3 C3          0.0543    1.2596    0.1534 C.2       1 <0>         0.5112
      4 O1          0.0966    0.0475    0.1560 O.2       1 <0>        -0.5361
      5 N1         -1.1356    1.8924    0.1415 N.am      1 <0>        -0.7259
      6 C4         -2.3780    1.1161    0.1318 C.3       1 <0>         0.3086
      7 H1         -2.2280    0.1836    0.6759 H         1 <0>         0.1299
      8 C5         -2.7681    0.8103   -1.2913 C.2       1 <0>         0.0003
      9 C6         -3.2708   -0.3555   -1.7360 C.2       1 <0>        -0.1916
     10 C7         -3.4936   -0.2027   -3.1238 C.2       1 <0>        -0.2128
     11 C8         -3.1059    1.0445   -3.4457 C.2       1 <0>        -0.0597
     12 O2         -2.6674    1.6534   -2.3318 O.3       1 <0>        -0.1735
     13 C9         -3.4732    1.9127    0.7928 C.ar      1 <0>        -0.2880
     14 C10        -3.4168    3.3039    0.7727 C.ar      1 <0>         0.0524
     15 C11        -4.3938    4.0526    1.3553 C.ar      1 <0>        -0.1842
     16 C12        -5.4690    3.4167    1.9974 C.ar      1 <0>        -0.0018
     17 C13        -6.4943    4.1569    2.6160 C.ar      1 <0>        -0.1125
     18 C14        -7.5088    3.4714    3.2210 C.ar      1 <0>        -0.1426
     19 C15        -7.5076    2.0781    3.2132 C.ar      1 <0>         0.0610
     20 N2         -6.5511    1.3926    2.6356 N.ar      1 <0>        -0.4104
     21 C16        -5.5300    2.0021    2.0268 C.ar      1 <0>         0.0567
     22 C17        -4.5030    1.2592    1.4071 C.ar      1 <0>         0.3532
     23 N3         -4.3192    5.5305    1.3181 N.pl3     1 <0>         0.0646
     24 O3         -3.9061    6.0945    0.3207 O.2       1 <0>        -0.2060
     25 O4         -4.6708    6.1826    2.2849 O.3       1 <0>        -0.2061
     26 H2          3.4536    1.6825    0.1667 H         1 <0>         0.0583
     27 H3          2.4896    0.4785    1.0552 H         1 <0>         0.0615
     28 H4          2.4970    0.4748   -0.7248 H         1 <0>         0.0606
     29 H5          1.3720    2.6845   -0.7340 H         1 <0>         0.0921
     30 H6          1.3645    2.6882    1.0459 H         1 <0>         0.0923
     31 H7         -1.1694    2.8618    0.1394 H         1 <0>         0.3977
     32 H8         -3.4687   -1.2380   -1.1457 H         1 <0>         0.1487
     33 H9         -3.8946   -0.9460   -3.7969 H         1 <0>         0.1425
     34 H10        -3.1409    1.4819   -4.4326 H         1 <0>         0.1959
     35 H11        -2.5891    3.7961    0.2838 H         1 <0>         0.1201
     36 H12        -6.4788    5.2368    2.6127 H         1 <0>         0.1439
     37 H13        -8.3109    4.0086    3.7051 H         1 <0>         0.1312
     38 H14        -8.3162    1.5489    3.6954 H         1 <0>         0.1518
     39 O5         -4.5382   -0.0987    1.4219 O.3       1 <0>        -0.6033
@<TRIPOS>BOND
     1    1    2 1
     2    1   26 1
     3    1   27 1
     4    1   28 1
     5    2    3 1
     6    2   29 1
     7    2   30 1
     8    3    4 2
     9    3    5 am
    10    5    6 1
    11    5   31 1
    12    6    7 1
    13    6    8 1
    14    6   13 1
    15    8   12 1
    16    8    9 2
    17    9   10 1
    18    9   32 1
    19   10   11 2
    20   10   33 1
    21   11   12 1
    22   11   34 1
    23   13   22 ar
    24   13   14 ar
    25   14   15 ar
    26   14   35 1
    27   15   16 ar
    28   15   23 1
    29   16   21 ar
    30   16   17 ar
    31   17   18 ar
    32   17   36 1
    33   18   19 ar
    34   18   37 1
    35   19   20 ar
    36   19   38 1
    37   20   21 ar
    38   21   22 ar
    39   22   39 1
    40   23   24 2
    41   23   25 1
@<TRIPOS>MOLECULE
ZINC04654860
   33    34     0     0     0
SMALL
USER_CHARGES
2,6-dibromo-4-[1-(3-bromo-4-hydroxy-phenyl)-1-methyl-ethyl]-phenol
@<TRIPOS>ATOM
      1 C1          1.3382    2.1802   -0.1941 C.3       1 <0>        -0.1431
      2 C2         -0.0184    1.5028    0.0103 C.3       1 <0>         0.0230
      3 C3         -0.8725    1.6821   -1.2464 C.3       1 <0>        -0.1480
      4 C4         -0.7200    2.1286    1.1881 C.ar      1 <0>        -0.0769
      5 C5         -1.1897    1.3308    2.2152 C.ar      1 <0>        -0.0850
      6 C6         -1.8290    1.9021    3.2985 C.ar      1 <0>        -0.1331
      7 C7         -2.0091    3.2766    3.3506 C.ar      1 <0>         0.1342
      8 C8         -1.5415    4.0750    2.3161 C.ar      1 <0>        -0.1171
      9 C9         -0.8978    3.4987    1.2370 C.ar      1 <0>        -0.0678
     10 Br1        -1.7841    5.9492    2.3830 Br        1 <0>        -0.0344
     11 O1         -2.6427    3.8404    4.4127 O.3       1 <0>        -0.4861
     12 C10         0.1883    0.0331    0.2716 C.ar      1 <0>        -0.0722
     13 C11         1.0439   -0.3751    1.2780 C.ar      1 <0>        -0.0554
     14 C12         1.2317   -1.7226    1.5231 C.ar      1 <0>        -0.1147
     15 C13         0.5686   -2.6660    0.7510 C.ar      1 <0>         0.1621
     16 C14        -0.2855   -2.2534   -0.2620 C.ar      1 <0>        -0.1139
     17 C15        -0.4736   -0.9046   -0.4992 C.ar      1 <0>        -0.0604
     18 Br2        -1.1918   -3.5351   -1.3164 Br        1 <0>        -0.0203
     19 O2          0.7551   -3.9917    0.9867 O.3       1 <0>        -0.4733
     20 Br3         2.3961   -2.2799    2.9050 Br        1 <0>        -0.0196
     21 H1          1.8457    1.7275   -1.0460 H         1 <0>         0.0676
     22 H2          1.1887    3.2432   -0.3831 H         1 <0>         0.0684
     23 H3          1.9467    2.0524    0.7012 H         1 <0>         0.0630
     24 H4         -1.8389    1.1996   -1.1007 H         1 <0>         0.0649
     25 H5         -1.0220    2.7452   -1.4354 H         1 <0>         0.0689
     26 H6         -0.3650    1.2295   -2.0982 H         1 <0>         0.0692
     27 H7         -1.0531    0.2604    2.1725 H         1 <0>         0.1329
     28 H8         -2.1919    1.2787    4.1022 H         1 <0>         0.1390
     29 H9         -0.5339    4.1192    0.4314 H         1 <0>         0.1384
     30 H10        -3.6005    3.9175    4.3036 H         1 <0>         0.3955
     31 H11         1.5629    0.3594    1.8760 H         1 <0>         0.1446
     32 H12        -1.1385   -0.5830   -1.2872 H         1 <0>         0.1500
     33 H13         1.4830   -4.3820    0.4838 H         1 <0>         0.3995
@<TRIPOS>BOND
     1    1    2 1
     2    1   21 1
     3    1   22 1
     4    1   23 1
     5    2    3 1
     6    2    4 1
     7    2   12 1
     8    3   24 1
     9    3   25 1
    10    3   26 1
    11    4    9 ar
    12    4    5 ar
    13    5    6 ar
    14    5   27 1
    15    6    7 ar
    16    6   28 1
    17    7    8 ar
    18    7   11 1
    19    8    9 ar
    20    8   10 1
    21    9   29 1
    22   11   30 1
    23   12   17 ar
    24   12   13 ar
    25   13   14 ar
    26   13   31 1
    27   14   15 ar
    28   14   20 1
    29   15   16 ar
    30   15   19 1
    31   16   17 ar
    32   16   18 1
    33   17   32 1
    34   19   33 1
@<TRIPOS>MOLECULE
ZINC01689786
   33    34     0     0     0
SMALL
USER_CHARGES
2,6-dibromo-4-[1-(3,5-dibromo-4-hydroxy-phenyl)-1-methyl-ethyl]phenol
@<TRIPOS>ATOM
      1 C1         -2.3194    1.8619   -1.1223 C.3       1 <0>        -0.1437
      2 C2         -1.3327    2.1126    0.0198 C.3       1 <0>         0.0247
      3 C3         -1.9196    1.5776    1.3276 C.3       1 <0>        -0.1488
      4 C4         -0.0342    1.4064   -0.2740 C.ar      1 <0>        -0.0773
      5 C5          0.6136    1.6251   -1.4757 C.ar      1 <0>        -0.0565
      6 C6          1.8019    0.9743   -1.7503 C.ar      1 <0>        -0.1135
      7 C7          2.3445    0.1007   -0.8185 C.ar      1 <0>         0.1642
      8 C8          1.6921   -0.1169    0.3869 C.ar      1 <0>        -0.1137
      9 C9          0.5040    0.5366    0.6562 C.ar      1 <0>        -0.0593
     10 Br1         2.4278   -1.3059    1.6601 Br        1 <0>        -0.0191
     11 O1          3.5130   -0.5402   -1.0857 O.3       1 <0>        -0.4726
     12 Br2         2.6875    1.2746   -3.3939 Br        1 <0>        -0.0179
     13 C10        -1.0811    3.5927    0.1505 C.ar      1 <0>        -0.0721
     14 C11         0.2143    4.0760    0.1401 C.ar      1 <0>        -0.0600
     15 C12         0.4478    5.4337    0.2550 C.ar      1 <0>        -0.1116
     16 C13        -0.6190    6.3108    0.3914 C.ar      1 <0>         0.1622
     17 C14        -1.9179    5.8224    0.4069 C.ar      1 <0>        -0.1130
     18 C15        -2.1458    4.4642    0.2863 C.ar      1 <0>        -0.0538
     19 Br3        -3.3748    7.0137    0.5920 Br        1 <0>        -0.0199
     20 O2         -0.3921    7.6458    0.5093 O.3       1 <0>        -0.4731
     21 Br4         2.2194    6.0945    0.2328 Br        1 <0>        -0.0190
     22 H1         -2.5014    0.7914   -1.2168 H         1 <0>         0.0700
     23 H2         -3.2586    2.3727   -0.9097 H         1 <0>         0.0693
     24 H3         -1.9013    2.2431   -2.0539 H         1 <0>         0.0640
     25 H4         -1.2166    1.7562    2.1412 H         1 <0>         0.0658
     26 H5         -2.8587    2.0884    1.5401 H         1 <0>         0.0700
     27 H6         -2.1016    0.5071    1.2330 H         1 <0>         0.0715
     28 H7          0.1909    2.3051   -2.2006 H         1 <0>         0.1445
     29 H8         -0.0043    0.3674    1.5939 H         1 <0>         0.1506
     30 H9          3.4017   -1.3935   -1.5269 H         1 <0>         0.3997
     31 H10         1.0443    3.3926    0.0380 H         1 <0>         0.1432
     32 H11        -3.1564    4.0836    0.2986 H         1 <0>         0.1457
     33 H12        -0.2841    7.9474    1.4217 H         1 <0>         0.3993
@<TRIPOS>BOND
     1    1    2 1
     2    1   22 1
     3    1   23 1
     4    1   24 1
     5    2    3 1
     6    2    4 1
     7    2   13 1
     8    3   25 1
     9    3   26 1
    10    3   27 1
    11    4    9 ar
    12    4    5 ar
    13    5    6 ar
    14    5   28 1
    15    6    7 ar
    16    6   12 1
    17    7    8 ar
    18    7   11 1
    19    8    9 ar
    20    8   10 1
    21    9   29 1
    22   11   30 1
    23   13   18 ar
    24   13   14 ar
    25   14   15 ar
    26   14   31 1
    27   15   16 ar
    28   15   21 1
    29   16   17 ar
    30   16   20 1
    31   17   18 ar
    32   17   19 1
    33   18   32 1
    34   20   33 1
@<TRIPOS>MOLECULE
ZINC00012342
   44    45     0     0     0
SMALL
USER_CHARGES

@<TRIPOS>ATOM
      1 C1         -0.0187    1.5258    0.0104 C.3       1 <0>        -0.1561
      2 C2          0.0021   -0.0041    0.0020 C.3       1 <0>        -0.0796
      3 H1          0.5293   -0.3651    0.8851 H         1 <0>         0.0729
      4 C3          0.7182   -0.4975   -1.2568 C.3       1 <0>        -0.0804
      5 C4          2.1652   -0.0794   -1.2080 C.ar      1 <0>        -0.0687
      6 C5          2.5498    1.1377   -1.7391 C.ar      1 <0>        -0.1081
      7 C6          3.8760    1.5258   -1.6968 C.ar      1 <0>        -0.1282
      8 C7          4.8231    0.6944   -1.1208 C.ar      1 <0>         0.0741
      9 C8          4.4359   -0.5305   -0.5858 C.ar      1 <0>         0.0830
     10 C9          3.1042   -0.9112   -0.6272 C.ar      1 <0>        -0.1289
     11 O1          5.3617   -1.3499   -0.0194 O.3       1 <0>        -0.4885
     12 O2          6.1281    1.0745   -1.0788 O.3       1 <0>        -0.4888
     13 C10        -1.4333   -0.5336    0.0129 C.3       1 <0>        -0.0796
     14 H2         -1.9605   -0.1726   -0.8702 H         1 <0>         0.0741
     15 C11        -1.4126   -2.0635    0.0045 C.3       1 <0>        -0.1556
     16 C12        -2.1494   -0.0402    1.2717 C.3       1 <0>        -0.0803
     17 C13        -3.5965   -0.4583    1.2229 C.ar      1 <0>        -0.0689
     18 C14        -4.5346    0.3711    0.6369 C.ar      1 <0>        -0.1099
     19 C15        -5.8633   -0.0079    0.5896 C.ar      1 <0>        -0.1274
     20 C16        -6.2571   -1.2216    1.1299 C.ar      1 <0>         0.0740
     21 C17        -5.3128   -2.0566    1.7193 C.ar      1 <0>         0.0821
     22 C18        -3.9819   -1.6728    1.7591 C.ar      1 <0>        -0.1267
     23 O3         -5.6945   -3.2487    2.2510 O.3       1 <0>        -0.4883
     24 O4         -7.5638   -1.5957    1.0847 O.3       1 <0>        -0.4888
     25 H3          1.0039    1.9031    0.0027 H         1 <0>         0.0591
     26 H4         -0.5459    1.8868   -0.8726 H         1 <0>         0.0559
     27 H5         -0.5289    1.8773    0.9072 H         1 <0>         0.0587
     28 H6          0.6556   -1.5845   -1.3079 H         1 <0>         0.0790
     29 H7          0.2444   -0.0644   -2.1377 H         1 <0>         0.0758
     30 H8          1.8126    1.7866   -2.1884 H         1 <0>         0.1297
     31 H9          4.1739    2.4768   -2.1131 H         1 <0>         0.1330
     32 H10         2.8006   -1.8597   -0.2093 H         1 <0>         0.1318
     33 H11         5.4917   -1.2014    0.9273 H         1 <0>         0.3874
     34 H12         6.3681    1.5701   -0.2838 H         1 <0>         0.3869
     35 H13        -0.9024   -2.4150   -0.8923 H         1 <0>         0.0589
     36 H14        -0.8854   -2.4246    0.8875 H         1 <0>         0.0553
     37 H15        -2.4352   -2.4408    0.0122 H         1 <0>         0.0575
     38 H16        -1.6756   -0.4733    2.1526 H         1 <0>         0.0744
     39 H17        -2.0868    1.0468    1.3228 H         1 <0>         0.0805
     40 H18        -4.2289    1.3173    0.2154 H         1 <0>         0.1294
     41 H19        -6.5943    0.6421    0.1319 H         1 <0>         0.1330
     42 H20        -3.2464   -2.3207    2.2126 H         1 <0>         0.1323
     43 H21        -5.6653   -3.9856    1.6255 H         1 <0>         0.3872
     44 H22        -7.8025   -2.0960    0.2923 H         1 <0>         0.3869
@<TRIPOS>BOND
     1    1    2 1
     2    1   25 1
     3    1   26 1
     4    1   27 1
     5    2    3 1
     6    2    4 1
     7    2   13 1
     8    4    5 1
     9    4   28 1
    10    4   29 1
    11    5   10 ar
    12    5    6 ar
    13    6    7 ar
    14    6   30 1
    15    7    8 ar
    16    7   31 1
    17    8    9 ar
    18    8   12 1
    19    9   10 ar
    20    9   11 1
    21   10   32 1
    22   11   33 1
    23   12   34 1
    24   13   14 1
    25   13   15 1
    26   13   16 1
    27   15   35 1
    28   15   36 1
    29   15   37 1
    30   16   17 1
    31   16   38 1
    32   16   39 1
    33   17   22 ar
    34   17   18 ar
    35   18   19 ar
    36   18   40 1
    37   19   20 ar
    38   19   41 1
    39   20   21 ar
    40   20   24 1
    41   21   22 ar
    42   21   23 1
    43   22   42 1
    44   23   43 1
    45   24   44 1
@<TRIPOS>MOLECULE
ZINC00056474
   44    45     0     0     0
SMALL
USER_CHARGES

@<TRIPOS>ATOM
      1 C1         -0.0187    1.5258    0.0104 C.3       1 <0>        -0.1537
      2 C2          0.0021   -0.0041    0.0020 C.3       1 <0>        -0.0795
      3 H1          0.5293   -0.3651    0.8851 H         1 <0>         0.0731
      4 C3          0.7182   -0.4975   -1.2568 C.3       1 <0>        -0.0826
      5 C4          2.1652   -0.0794   -1.2080 C.ar      1 <0>        -0.0685
      6 C5          2.5498    1.1377   -1.7391 C.ar      1 <0>        -0.1081
      7 C6          3.8760    1.5258   -1.6968 C.ar      1 <0>        -0.1282
      8 C7          4.8231    0.6944   -1.1208 C.ar      1 <0>         0.0741
      9 C8          4.4359   -0.5305   -0.5858 C.ar      1 <0>         0.0831
     10 C9          3.1042   -0.9112   -0.6272 C.ar      1 <0>        -0.1290
     11 O1          5.3617   -1.3499   -0.0194 O.3       1 <0>        -0.4884
     12 O2          6.1281    1.0745   -1.0788 O.3       1 <0>        -0.4888
     13 C10        -1.4333   -0.5336    0.0129 C.3       1 <0>        -0.0794
     14 H2         -1.9605   -0.1726   -0.8702 H         1 <0>         0.0731
     15 C11        -2.1494   -0.0402    1.2717 C.3       1 <0>        -0.1537
     16 C12        -1.4126   -2.0635    0.0045 C.3       1 <0>        -0.0827
     17 C13        -2.8221   -2.5844   -0.1087 C.ar      1 <0>        -0.0685
     18 C14        -3.5623   -2.8252    1.0339 C.ar      1 <0>        -0.1081
     19 C15        -4.8557   -3.3030    0.9354 C.ar      1 <0>        -0.1282
     20 C16        -5.4133   -3.5412   -0.3106 C.ar      1 <0>         0.0741
     21 C17        -4.6685   -3.2984   -1.4606 C.ar      1 <0>         0.0831
     22 C18        -3.3742   -2.8149   -1.3550 C.ar      1 <0>        -0.1289
     23 O3         -5.2113   -3.5306   -2.6858 O.3       1 <0>        -0.4884
     24 O4         -6.6854   -4.0117   -0.4092 O.3       1 <0>        -0.4888
     25 H3          1.0039    1.9031    0.0027 H         1 <0>         0.0588
     26 H4         -0.5459    1.8868   -0.8726 H         1 <0>         0.0549
     27 H5         -0.5289    1.8773    0.9072 H         1 <0>         0.0586
     28 H6          0.6556   -1.5845   -1.3079 H         1 <0>         0.0790
     29 H7          0.2444   -0.0644   -2.1377 H         1 <0>         0.0763
     30 H8          1.8126    1.7866   -2.1884 H         1 <0>         0.1296
     31 H9          4.1739    2.4768   -2.1131 H         1 <0>         0.1329
     32 H10         2.8006   -1.8597   -0.2093 H         1 <0>         0.1321
     33 H11         5.4917   -1.2014    0.9273 H         1 <0>         0.3874
     34 H12         6.3681    1.5701   -0.2838 H         1 <0>         0.3869
     35 H13        -3.1720   -0.4175    1.2794 H         1 <0>         0.0588
     36 H14        -1.6223   -0.4013    2.1547 H         1 <0>         0.0549
     37 H15        -2.1642    1.0497    1.2777 H         1 <0>         0.0586
     38 H16        -0.8263   -2.4142   -0.8449 H         1 <0>         0.0790
     39 H17        -0.9645   -2.4259    0.9297 H         1 <0>         0.0763
     40 H18        -3.1289   -2.6399    2.0056 H         1 <0>         0.1296
     41 H19        -5.4316   -3.4910    1.8295 H         1 <0>         0.1329
     42 H20        -2.7953   -2.6221   -2.2461 H         1 <0>         0.1322
     43 H21        -5.6728   -2.7688   -3.0623 H         1 <0>         0.3874
     44 H22        -7.3582   -3.3189   -0.4598 H         1 <0>         0.3869
@<TRIPOS>BOND
     1    1    2 1
     2    1   25 1
     3    1   26 1
     4    1   27 1
     5    2    3 1
     6    2    4 1
     7    2   13 1
     8    4    5 1
     9    4   28 1
    10    4   29 1
    11    5   10 ar
    12    5    6 ar
    13    6    7 ar
    14    6   30 1
    15    7    8 ar
    16    7   31 1
    17    8    9 ar
    18    8   12 1
    19    9   10 ar
    20    9   11 1
    21   10   32 1
    22   11   33 1
    23   12   34 1
    24   13   14 1
    25   13   15 1
    26   13   16 1
    27   15   35 1
    28   15   36 1
    29   15   37 1
    30   16   17 1
    31   16   38 1
    32   16   39 1
    33   17   22 ar
    34   17   18 ar
    35   18   19 ar
    36   18   40 1
    37   19   20 ar
    38   19   41 1
    39   20   21 ar
    40   20   24 1
    41   21   22 ar
    42   21   23 1
    43   22   42 1
    44   23   43 1
    45   24   44 1
@<TRIPOS>MOLECULE
ZINC06018406
   35    37     0     0     0
SMALL
USER_CHARGES
6,7-dihydroxy-3-(4-methoxyphenyl)-chroman-4-one
@<TRIPOS>ATOM
      1 C1         -0.0173    1.4248    0.0099 C.3       1 <0>         0.0257
      2 O1          0.0021   -0.0041    0.0020 O.3       1 <0>        -0.3157
      3 C2          0.6258   -0.6184    1.0415 C.ar      1 <0>         0.1361
      4 C3          1.2122    0.1386    2.0454 C.ar      1 <0>        -0.2070
      5 C4          1.8410   -0.4883    3.1037 C.ar      1 <0>        -0.0653
      6 C5          1.8954   -1.8689    3.1575 C.ar      1 <0>        -0.1275
      7 C6          1.3168   -2.6255    2.1553 C.ar      1 <0>        -0.0613
      8 C7          0.6822   -2.0034    1.0976 C.ar      1 <0>        -0.1514
      9 C8          2.5870   -2.5501    4.3102 C.3       1 <0>        -0.1101
     10 H1          2.5178   -3.5418    4.2014 H         1 <0>         0.1129
     11 C9          1.9442   -2.1167    5.6358 C.3       1 <0>         0.0734
     12 O2          2.0822   -0.7042    5.7883 O.3       1 <0>        -0.2998
     13 C10         3.3138   -0.1541    5.6666 C.ar      1 <0>         0.1855
     14 C11         3.5796    1.0788    6.2413 C.ar      1 <0>        -0.1775
     15 C12         4.8341    1.6520    6.1087 C.ar      1 <0>         0.1559
     16 C13         5.8425    0.9966    5.3981 C.ar      1 <0>         0.0397
     17 C14         5.5949   -0.2324    4.8238 C.ar      1 <0>        -0.0348
     18 C15         4.3304   -0.8161    4.9572 C.ar      1 <0>        -0.2405
     19 C16         4.0449   -2.1293    4.3601 C.2       1 <0>         0.4094
     20 O3          4.9291   -2.8399    3.9291 O.2       1 <0>        -0.4308
     21 O4          7.0695    1.5710    5.2728 O.3       1 <0>        -0.4805
     22 O5          5.0855    2.8600    6.6745 O.3       1 <0>        -0.4813
     23 H2          1.0053    1.8021    0.0021 H         1 <0>         0.0562
     24 H3         -0.5445    1.7859   -0.8732 H         1 <0>         0.1026
     25 H4         -0.5275    1.7763    0.9067 H         1 <0>         0.0573
     26 H5          1.1735    1.2170    2.0017 H         1 <0>         0.1302
     27 H6          2.2938    0.1005    3.8877 H         1 <0>         0.1324
     28 H7          1.3606   -3.7037    2.1995 H         1 <0>         0.1339
     29 H8          0.2300   -2.5948    0.3151 H         1 <0>         0.1354
     30 H9          0.8866   -2.3804    5.6306 H         1 <0>         0.1290
     31 H10         2.4414   -2.6222    6.4636 H         1 <0>         0.0805
     32 H11         2.8074    1.5937    6.7936 H         1 <0>         0.1524
     33 H12         6.3726   -0.7414    4.2739 H         1 <0>         0.1491
     34 H13         7.1613    2.1369    4.4941 H         1 <0>         0.3879
     35 H14         4.8966    3.6119    6.0965 H         1 <0>         0.3978
@<TRIPOS>BOND
     1    1    2 1
     2    1   23 1
     3    1   24 1
     4    1   25 1
     5    2    3 1
     6    3    8 ar
     7    3    4 ar
     8    4    5 ar
     9    4   26 1
    10    5    6 ar
    11    5   27 1
    12    6    7 ar
    13    6    9 1
    14    7    8 ar
    15    7   28 1
    16    8   29 1
    17    9   10 1
    18    9   19 1
    19    9   11 1
    20   11   12 1
    21   11   30 1
    22   11   31 1
    23   12   13 1
    24   13   18 ar
    25   13   14 ar
    26   14   15 ar
    27   14   32 1
    28   15   16 ar
    29   15   22 1
    30   16   17 ar
    31   16   21 1
    32   17   18 ar
    33   17   33 1
    34   18   19 1
    35   19   20 2
    36   21   34 1
    37   22   35 1
@<TRIPOS>MOLECULE
ZINC06018439
   35    37     0     0     0
SMALL
USER_CHARGES
6,7-dihydroxy-3-(4-methoxyphenyl)-chroman-4-one
@<TRIPOS>ATOM
      1 C1          6.5320   -3.5751    2.3354 C.3       1 <0>         0.0257
      2 O1          5.8986   -4.8543    2.2684 O.3       1 <0>        -0.3157
      3 C2          4.5593   -4.8683    2.0387 C.ar      1 <0>         0.1361
      4 C3          3.8802   -6.0756    1.9615 C.ar      1 <0>        -0.1514
      5 C4          2.5186   -6.0872    1.7283 C.ar      1 <0>        -0.0613
      6 C5          1.8327   -4.8969    1.5720 C.ar      1 <0>        -0.1273
      7 C6          2.5081   -3.6925    1.6428 C.ar      1 <0>        -0.0651
      8 C7          3.8687   -3.6754    1.8814 C.ar      1 <0>        -0.2070
      9 C8          0.3473   -4.9124    1.3177 C.3       1 <0>        -0.1102
     10 H1          0.0201   -5.8573    1.3109 H         1 <0>         0.1128
     11 C9         -0.3798   -4.1094    2.4062 C.3       1 <0>         0.0734
     12 O2          0.0744   -2.7565    2.3783 O.3       1 <0>        -0.2998
     13 C10         0.0421   -2.0835    1.2034 C.ar      1 <0>         0.1856
     14 C11         0.0229   -0.6976    1.2014 C.ar      1 <0>        -0.1775
     15 C12         0.0021   -0.0041    0.0020 C.ar      1 <0>         0.1558
     16 C13        -0.0059   -0.6903   -1.2147 C.ar      1 <0>         0.0399
     17 C14         0.0160   -2.0690   -1.2295 C.ar      1 <0>        -0.0350
     18 C15         0.0345   -2.7735   -0.0208 C.ar      1 <0>        -0.2406
     19 C16         0.0431   -4.2440   -0.0111 C.2       1 <0>         0.4094
     20 O3         -0.1817   -4.8900   -1.0134 O.2       1 <0>        -0.4308
     21 O4         -0.0298    0.0021   -2.3857 O.3       1 <0>        -0.4804
     22 O5         -0.0163    1.3532    0.0095 O.3       1 <0>        -0.4814
     23 H2          6.3914   -3.0501    1.3905 H         1 <0>         0.0562
     24 H3          6.0901   -2.9927    3.1439 H         1 <0>         0.0573
     25 H4          7.5977   -3.7066    2.5228 H         1 <0>         0.1026
     26 H5          4.4156   -7.0056    2.0832 H         1 <0>         0.1354
     27 H6          1.9894   -7.0267    1.6685 H         1 <0>         0.1340
     28 H7          1.9709   -2.7643    1.5156 H         1 <0>         0.1322
     29 H8          4.3952   -2.7343    1.9411 H         1 <0>         0.1303
     30 H9         -1.4538   -4.1364    2.2219 H         1 <0>         0.0804
     31 H10        -0.1672   -4.5448    3.3826 H         1 <0>         0.1290
     32 H11         0.0245   -0.1572    2.1365 H         1 <0>         0.1524
     33 H12         0.0142   -2.6021   -2.1687 H         1 <0>         0.1491
     34 H13         0.8465    0.2129   -2.7360 H         1 <0>         0.3878
     35 H14         0.8616    1.7585    0.0033 H         1 <0>         0.3979
@<TRIPOS>BOND
     1    1    2 1
     2    1   23 1
     3    1   24 1
     4    1   25 1
     5    2    3 1
     6    3    8 ar
     7    3    4 ar
     8    4    5 ar
     9    4   26 1
    10    5    6 ar
    11    5   27 1
    12    6    7 ar
    13    6    9 1
    14    7    8 ar
    15    7   28 1
    16    8   29 1
    17    9   10 1
    18    9   19 1
    19    9   11 1
    20   11   12 1
    21   11   30 1
    22   11   31 1
    23   12   13 1
    24   13   18 ar
    25   13   14 ar
    26   14   15 ar
    27   14   32 1
    28   15   16 ar
    29   15   22 1
    30   16   17 ar
    31   16   21 1
    32   17   18 ar
    33   17   33 1
    34   18   19 1
    35   19   20 2
    36   21   34 1
    37   22   35 1
@<TRIPOS>MOLECULE
ZINC00391977
   30    32     0     0     0
SMALL
USER_CHARGES
6,7-dihydroxy-3-(4-hydroxyphenyl)-chromen-4-one
@<TRIPOS>ATOM
      1 C1         -1.4668   -1.7946   -0.9207 C.ar      1 <0>        -0.0711
      2 C2         -2.6426   -2.5156   -0.9068 C.ar      1 <0>        -0.1427
      3 C3         -3.6273   -2.2222    0.0265 C.ar      1 <0>         0.1106
      4 C4         -3.4304   -1.2062    0.9515 C.ar      1 <0>        -0.1437
      5 C5         -2.2545   -0.4851    0.9461 C.ar      1 <0>        -0.0943
      6 C6         -1.2636   -0.7776    0.0105 C.ar      1 <0>        -0.0370
      7 C7          0.0021   -0.0041    0.0020 C.2       1 <0>        -0.2443
      8 C8         -0.0163    1.3540    0.0095 C.2       1 <0>         0.1373
      9 O1          1.0993    2.0876    0.0028 O.3       1 <0>        -0.2166
     10 C9          2.3371    1.5531   -0.0120 C.ar      1 <0>         0.1565
     11 C10         3.4586    2.3735   -0.0183 C.ar      1 <0>        -0.1556
     12 C11         4.7238    1.8162   -0.0340 C.ar      1 <0>         0.1508
     13 C12         4.8894    0.4281   -0.0436 C.ar      1 <0>         0.0561
     14 C13         3.7863   -0.3994   -0.0370 C.ar      1 <0>        -0.0404
     15 C14         2.5061    0.1580   -0.0212 C.ar      1 <0>        -0.2136
     16 C15         1.3032   -0.6936   -0.0142 C.2       1 <0>         0.4294
     17 O2          1.3815   -1.9102   -0.0219 O.2       1 <0>        -0.4472
     18 O3          6.1399   -0.1068   -0.0590 O.3       1 <0>        -0.4790
     19 O4          5.8153    2.6244   -0.0396 O.3       1 <0>        -0.4788
     20 O5         -4.7870   -2.9309    0.0343 O.3       1 <0>        -0.4990
     21 H1         -0.7027   -2.0206   -1.6497 H         1 <0>         0.1278
     22 H2         -2.7991   -3.3062   -1.6257 H         1 <0>         0.1323
     23 H3         -4.1984   -0.9803    1.6764 H         1 <0>         0.1328
     24 H4         -2.1020    0.3056    1.6659 H         1 <0>         0.1292
     25 H5         -0.9704    1.8601    0.0167 H         1 <0>         0.2057
     26 H6          3.3418    3.4471   -0.0110 H         1 <0>         0.1570
     27 H7          3.9118   -1.4721   -0.0444 H         1 <0>         0.1549
     28 H8          6.4927   -0.2567   -0.9468 H         1 <0>         0.3913
     29 H9          6.1230    2.8635   -0.9246 H         1 <0>         0.3994
     30 H10        -5.4811   -2.5556   -0.5247 H         1 <0>         0.3923
@<TRIPOS>BOND
     1    1    6 ar
     2    1    2 ar
     3    1   21 1
     4    2    3 ar
     5    2   22 1
     6    3    4 ar
     7    3   20 1
     8    4    5 ar
     9    4   23 1
    10    5    6 ar
    11    5   24 1
    12    6    7 1
    13    7   16 1
    14    7    8 2
    15    8    9 1
    16    8   25 1
    17    9   10 1
    18   10   15 ar
    19   10   11 ar
    20   11   12 ar
    21   11   26 1
    22   12   13 ar
    23   12   19 1
    24   13   14 ar
    25   13   18 1
    26   14   15 ar
    27   14   27 1
    28   15   16 1
    29   16   17 2
    30   18   28 1
    31   19   29 1
    32   20   30 1
@<TRIPOS>MOLECULE
ZINC05758746
   36    38     0     0     0
SMALL
USER_CHARGES
3-(4-methoxyphenyl)chroman-6,7-diol
@<TRIPOS>ATOM
      1 C1          0.0021   -0.0041    0.0020 C.3       1 <0>         0.0262
      2 O1         -0.0173    1.4248    0.0099 O.3       1 <0>        -0.3171
      3 C2          1.1850    2.0582    0.0018 C.ar      1 <0>         0.1290
      4 C3          2.3594    1.3196   -0.0077 C.ar      1 <0>        -0.2050
      5 C4          3.5803    1.9659   -0.0221 C.ar      1 <0>        -0.0738
      6 C5          3.6326    3.3475   -0.0147 C.ar      1 <0>        -0.1186
      7 C6          2.4637    4.0858    0.0004 C.ar      1 <0>        -0.0691
      8 C7          1.2402    3.4444    0.0087 C.ar      1 <0>        -0.1485
      9 C8          4.9659    4.0499   -0.0238 C.3       1 <0>        -0.0795
     10 H1          4.8127    5.1289   -0.0065 H         1 <0>         0.0953
     11 C9          5.7461    3.6596   -1.2814 C.3       1 <0>        -0.0692
     12 C10         7.1778    4.1154   -1.1534 C.ar      1 <0>        -0.1514
     13 C11         7.9528    4.2028   -2.2996 C.ar      1 <0>        -0.0935
     14 C12         9.2714    4.6138   -2.2221 C.ar      1 <0>         0.0500
     15 C13         9.8231    4.9409   -0.9869 C.ar      1 <0>         0.1151
     16 C14         9.0490    4.8549    0.1563 C.ar      1 <0>        -0.1610
     17 C15         7.7227    4.4431    0.0753 C.ar      1 <0>         0.1415
     18 O2          6.9940    4.3809    1.2213 O.3       1 <0>        -0.3094
     19 C16         5.7834    3.6232    1.2022 C.3       1 <0>         0.0695
     20 O3         11.1192    5.3443   -0.9041 O.3       1 <0>        -0.4842
     21 O4         10.0273    4.6976   -3.3505 O.3       1 <0>        -0.4852
     22 H2          0.5293   -0.3651    0.8851 H         1 <0>         0.0565
     23 H3         -1.0205   -0.3814    0.0098 H         1 <0>         0.1020
     24 H4          0.5123   -0.3556   -0.8948 H         1 <0>         0.0564
     25 H5          2.3191    0.2404   -0.0085 H         1 <0>         0.1296
     26 H6          4.4947    1.3914   -0.0340 H         1 <0>         0.1245
     27 H7          2.5071    5.1650    0.0055 H         1 <0>         0.1314
     28 H8          0.3274    4.0215    0.0202 H         1 <0>         0.1330
     29 H9          5.7198    2.5767   -1.4030 H         1 <0>         0.0826
     30 H10         5.2913    4.1327   -2.1517 H         1 <0>         0.0875
     31 H11         7.5249    3.9487   -3.2580 H         1 <0>         0.1369
     32 H12         9.4760    5.1080    1.1155 H         1 <0>         0.1424
     33 H13         5.2131    3.8193    2.1102 H         1 <0>         0.1128
     34 H14         6.0161    2.5603    1.1365 H         1 <0>         0.0680
     35 H15        11.7482    4.6220   -0.7712 H         1 <0>         0.3908
     36 H16        10.5005    3.8830   -3.5683 H         1 <0>         0.3847
@<TRIPOS>BOND
     1    1    2 1
     2    1   22 1
     3    1   23 1
     4    1   24 1
     5    2    3 1
     6    3    8 ar
     7    3    4 ar
     8    4    5 ar
     9    4   25 1
    10    5    6 ar
    11    5   26 1
    12    6    7 ar
    13    6    9 1
    14    7    8 ar
    15    7   27 1
    16    8   28 1
    17    9   10 1
    18    9   19 1
    19    9   11 1
    20   11   12 1
    21   11   29 1
    22   11   30 1
    23   12   17 ar
    24   12   13 ar
    25   13   14 ar
    26   13   31 1
    27   14   15 ar
    28   14   21 1
    29   15   16 ar
    30   15   20 1
    31   16   17 ar
    32   16   32 1
    33   17   18 1
    34   18   19 1
    35   19   33 1
    36   19   34 1
    37   20   35 1
    38   21   36 1
@<TRIPOS>MOLECULE
ZINC26571939
   29    31     0     0     0
SMALL
USER_CHARGES
3-(4-chlorophenyl)-7,8-dihydroxy-chromen-4-one
@<TRIPOS>ATOM
      1 C1          6.4998    2.9860   -0.9702 C.ar      1 <0>        -0.0765
      2 C2          7.7416    3.5879   -0.9718 C.ar      1 <0>        -0.1072
      3 C3          8.7076    3.1896   -0.0636 C.ar      1 <0>        -0.0323
      4 C4          8.4318    2.1901    0.8537 C.ar      1 <0>        -0.1083
      5 C5          7.1916    1.5853    0.8667 C.ar      1 <0>        -0.1007
      6 C6          6.2156    1.9827   -0.0455 C.ar      1 <0>        -0.0188
      7 C7          4.8810    1.3357   -0.0363 C.2       1 <0>        -0.2559
      8 C8          4.7678   -0.0180   -0.0426 C.2       1 <0>         0.1436
      9 O1          3.5866   -0.6402   -0.0351 O.3       1 <0>        -0.2074
     10 C9          2.4066    0.0121   -0.0208 C.ar      1 <0>         0.1481
     11 C10         2.3728    1.4172   -0.0129 C.ar      1 <0>        -0.2230
     12 C11         3.6529    2.1484   -0.0207 C.2       1 <0>         0.4350
     13 O2          3.6930    3.3667   -0.0149 O.2       1 <0>        -0.4513
     14 C12         1.1528    2.0942    0.0023 C.ar      1 <0>        -0.0247
     15 C13        -0.0168    1.3874    0.0097 C.ar      1 <0>        -0.1452
     16 C14         0.0021   -0.0041    0.0020 C.ar      1 <0>         0.1317
     17 C15         1.2067   -0.6938   -0.0132 C.ar      1 <0>         0.0391
     18 O3          1.2147   -2.0545   -0.0201 O.3       1 <0>        -0.4838
     19 O4         -1.1686   -0.6934    0.0090 O.3       1 <0>        -0.4836
     20 Cl1        10.2702    3.9457   -0.0756 Cl        1 <0>        -0.0677
     21 H1          5.7484    3.2944   -1.6820 H         1 <0>         0.1332
     22 H2          7.9617    4.3678   -1.6857 H         1 <0>         0.1369
     23 H3          9.1888    1.8829    1.5601 H         1 <0>         0.1371
     24 H4          6.9776    0.8052    1.5822 H         1 <0>         0.1337
     25 H5          5.6684   -0.6141   -0.0537 H         1 <0>         0.2042
     26 H6          1.1329    3.1740    0.0079 H         1 <0>         0.1526
     27 H7         -0.9610    1.9116    0.0170 H         1 <0>         0.1474
     28 H8          0.2654   -2.6101   -0.0141 H         1 <0>         0.4200
     29 H9         -1.1593   -1.7933    0.0030 H         1 <0>         0.4239
@<TRIPOS>BOND
     1    1    6 ar
     2    1    2 ar
     3    1   21 1
     4    2    3 ar
     5    2   22 1
     6    3    4 ar
     7    3   20 1
     8    4    5 ar
     9    4   23 1
    10    5    6 ar
    11    5   24 1
    12    6    7 1
    13    7   12 1
    14    7    8 2
    15    8    9 1
    16    8   25 1
    17    9   10 1
    18   10   17 ar
    19   10   11 ar
    20   11   12 1
    21   11   14 ar
    22   12   13 2
    23   14   15 ar
    24   14   26 1
    25   15   16 ar
    26   15   27 1
    27   16   17 ar
    28   16   19 1
    29   17   18 1
    30   18   28 1
    31   19   29 1
@<TRIPOS>MOLECULE
ZINC00039111
   31    33     0     0     0
SMALL
USER_CHARGES

@<TRIPOS>ATOM
      1 C1          0.9742   -0.2756   -0.9644 C.ar      1 <0>        -0.0745
      2 C2          2.1570    0.4328   -0.9701 C.ar      1 <0>        -0.1346
      3 C3          2.3856    1.4156   -0.0177 C.ar      1 <0>         0.1033
      4 C4          1.4202    1.6919    0.9495 C.ar      1 <0>         0.0786
      5 C5          0.2328    0.9864    0.9617 C.ar      1 <0>        -0.0758
      6 C6          0.0021   -0.0041    0.0020 C.ar      1 <0>        -0.0456
      7 C7         -1.2635   -0.7604    0.0100 C.2       1 <0>         0.1403
      8 C8         -2.4368   -0.0754    0.1235 C.2       1 <0>        -0.0467
      9 C9         -3.6626   -0.7880    0.1323 C.2       1 <0>         0.4008
     10 O1         -4.7322   -0.2087    0.2318 O.2       1 <0>        -0.4629
     11 C10        -3.5944   -2.2557    0.0159 C.ar      1 <0>        -0.2366
     12 C11        -4.7512   -3.0365    0.0154 C.ar      1 <0>        -0.0073
     13 C12        -4.6525   -4.3943   -0.0945 C.ar      1 <0>        -0.1753
     14 C13        -3.4042   -5.0031   -0.2055 C.ar      1 <0>         0.1824
     15 C14        -2.2474   -4.2422   -0.2064 C.ar      1 <0>        -0.1738
     16 C15        -2.3310   -2.8613   -0.0960 C.ar      1 <0>         0.1711
     17 O2         -1.2180   -2.0989   -0.1002 O.3       1 <0>        -0.1986
     18 O3         -3.3214   -6.3539   -0.3130 O.3       1 <0>        -0.4899
     19 O4         -2.4315    1.2815    0.2279 O.3       1 <0>        -0.4510
     20 O5          1.6479    2.6559    1.8814 O.3       1 <0>        -0.4836
     21 O6          3.5534    2.1101   -0.0273 O.3       1 <0>        -0.4861
     22 H1          0.7972   -1.0372   -1.7094 H         1 <0>         0.1379
     23 H2          2.9076    0.2220   -1.7175 H         1 <0>         0.1421
     24 H3         -0.5155    1.1990    1.7108 H         1 <0>         0.1431
     25 H4         -5.7208   -2.5688    0.1018 H         1 <0>         0.1490
     26 H5         -5.5471   -4.9994   -0.0951 H         1 <0>         0.1454
     27 H6         -1.2834   -4.7216   -0.2925 H         1 <0>         0.1536
     28 H7         -3.3428   -6.6780   -1.2239 H         1 <0>         0.4038
     29 H8         -3.3122    1.6736    0.3036 H         1 <0>         0.4078
     30 H9          1.3507    3.5371    1.6164 H         1 <0>         0.3905
     31 H10         3.5286    2.9137   -0.5648 H         1 <0>         0.3925
@<TRIPOS>BOND
     1    1    6 ar
     2    1    2 ar
     3    1   22 1
     4    2    3 ar
     5    2   23 1
     6    3    4 ar
     7    3   21 1
     8    4    5 ar
     9    4   20 1
    10    5    6 ar
    11    5   24 1
    12    6    7 1
    13    7   17 1
    14    7    8 2
    15    8    9 1
    16    8   19 1
    17    9   10 2
    18    9   11 1
    19   11   16 ar
    20   11   12 ar
    21   12   13 ar
    22   12   25 1
    23   13   14 ar
    24   13   26 1
    25   14   15 ar
    26   14   18 1
    27   15   16 ar
    28   15   27 1
    29   16   17 1
    30   18   28 1
    31   19   29 1
    32   20   30 1
    33   21   31 1
@<TRIPOS>MOLECULE
ZINC05430812
   56    58     0     0     0
SMALL
USER_CHARGES

@<TRIPOS>ATOM
      1 C1         -0.1716    1.4909    0.0169 C.3       1 <0>        -0.1226
      2 C2         -0.0710   -0.0127    0.0071 C.2       1 <0>        -0.1279
      3 C3          0.1206   -0.6637    1.1276 C.2       1 <0>        -0.1623
      4 C4          0.1232    0.0784    2.4392 C.3       1 <0>        -0.0426
      5 C5         -0.8640   -0.5621    3.3807 C.ar      1 <0>        -0.1608
      6 C6         -2.1862   -0.1320    3.3999 C.ar      1 <0>         0.1967
      7 C7         -3.1061   -0.7076    4.2624 C.ar      1 <0>        -0.1812
      8 C8         -2.7173   -1.7274    5.1200 C.ar      1 <0>         0.1863
      9 C9         -1.3828   -2.1686    5.0932 C.ar      1 <0>        -0.2628
     10 C10        -0.4565   -1.5815    4.2215 C.ar      1 <0>         0.2209
     11 O1          0.8319   -2.0064    4.2059 O.3       1 <0>        -0.4717
     12 C11        -0.9877   -3.2676    5.9925 C.2       1 <0>         0.4418
     13 O2          0.1800   -3.5529    6.1898 O.2       1 <0>        -0.4213
     14 C12        -2.0942   -4.0017    6.6403 C.ar      1 <0>        -0.2216
     15 C13        -3.3860   -3.4536    6.5807 C.ar      1 <0>         0.1729
     16 O3         -3.6148   -2.2762    5.9633 O.3       1 <0>        -0.2206
     17 C14        -4.4378   -4.1396    7.1752 C.ar      1 <0>        -0.1673
     18 C15        -4.2074   -5.3413    7.8210 C.ar      1 <0>         0.1618
     19 C16        -2.9198   -5.8789    7.8846 C.ar      1 <0>         0.0416
     20 C17        -1.8650   -5.2121    7.2956 C.ar      1 <0>         0.0152
     21 C18        -0.4738   -5.7879    7.3594 C.3       1 <0>        -0.0611
     22 C19         0.2246   -5.2785    8.5939 C.2       1 <0>        -0.1431
     23 C20         0.7360   -6.1246    9.4533 C.2       1 <0>        -0.1263
     24 C21         0.6260   -7.6074    9.2075 C.3       1 <0>        -0.1213
     25 C22         1.4344   -5.6152   10.6878 C.3       1 <0>        -0.1161
     26 O4         -2.7058   -7.0591    8.5266 O.3       1 <0>        -0.3115
     27 C23        -2.8128   -8.2511    7.7457 C.3       1 <0>         0.0270
     28 O5         -5.2424   -6.0039    8.3988 O.3       1 <0>        -0.4773
     29 O6         -2.5804    0.8628    2.5651 O.3       1 <0>        -0.4836
     30 C24        -0.1908   -0.7674   -1.2918 C.3       1 <0>        -0.1196
     31 H1          0.7134    1.9111    0.4947 H         1 <0>         0.0659
     32 H2         -0.2400    1.8572   -1.0074 H         1 <0>         0.0609
     33 H3         -1.0610    1.7919    0.5705 H         1 <0>         0.0718
     34 H4          0.2767   -1.7323    1.1114 H         1 <0>         0.1096
     35 H5          1.1206    0.0392    2.8769 H         1 <0>         0.0834
     36 H6         -0.1585    1.1176    2.2692 H         1 <0>         0.0911
     37 H7         -4.1290   -0.3611    4.2673 H         1 <0>         0.1531
     38 H8          1.4088   -1.5356    4.8229 H         1 <0>         0.4030
     39 H9         -5.4378   -3.7339    7.1329 H         1 <0>         0.1555
     40 H10        -0.5322   -6.8756    7.3978 H         1 <0>         0.0833
     41 H11         0.0857   -5.4850    6.4744 H         1 <0>         0.1055
     42 H12         0.3034   -4.2159    8.7700 H         1 <0>         0.1070
     43 H13         1.1178   -7.8573    8.2674 H         1 <0>         0.0624
     44 H14         1.1061   -8.1475   10.0235 H         1 <0>         0.0590
     45 H15        -0.4254   -7.8898    9.1538 H         1 <0>         0.0729
     46 H16         0.7118   -5.5112   11.4972 H         1 <0>         0.0663
     47 H17         2.2113   -6.3205   10.9828 H         1 <0>         0.0623
     48 H18         1.8851   -4.6456   10.4762 H         1 <0>         0.0608
     49 H19        -3.8170   -8.3229    7.3280 H         1 <0>         0.0451
     50 H20        -2.0837   -8.2218    6.9360 H         1 <0>         0.0484
     51 H21        -2.6194   -9.1180    8.3776 H         1 <0>         0.1002
     52 H22        -5.6863   -6.6297    7.8103 H         1 <0>         0.3971
     53 H23        -2.8982    0.5527    1.7061 H         1 <0>         0.4013
     54 H24        -0.3461   -0.0626   -2.1086 H         1 <0>         0.0626
     55 H25         0.7239   -1.3331   -1.4690 H         1 <0>         0.0653
     56 H26        -1.0369   -1.4525   -1.2373 H         1 <0>         0.0647
@<TRIPOS>BOND
     1    1    2 1
     2    1   31 1
     3    1   32 1
     4    1   33 1
     5    2    3 2
     6    2   30 1
     7    3    4 1
     8    3   34 1
     9    4    5 1
    10    4   35 1
    11    4   36 1
    12    5   10 ar
    13    5    6 ar
    14    6    7 ar
    15    6   29 1
    16    7    8 ar
    17    7   37 1
    18    8   16 1
    19    8    9 ar
    20    9   10 ar
    21    9   12 1
    22   10   11 1
    23   11   38 1
    24   12   13 2
    25   12   14 1
    26   14   20 ar
    27   14   15 ar
    28   15   16 1
    29   15   17 ar
    30   17   18 ar
    31   17   39 1
    32   18   19 ar
    33   18   28 1
    34   19   20 ar
    35   19   26 1
    36   20   21 1
    37   21   22 1
    38   21   40 1
    39   21   41 1
    40   22   23 2
    41   22   42 1
    42   23   24 1
    43   23   25 1
    44   24   43 1
    45   24   44 1
    46   24   45 1
    47   25   46 1
    48   25   47 1
    49   25   48 1
    50   26   27 1
    51   27   49 1
    52   27   50 1
    53   27   51 1
    54   28   52 1
    55   29   53 1
    56   30   54 1
    57   30   55 1
    58   30   56 1
@<TRIPOS>MOLECULE
ZINC05430812
   55    57     0     0     0
SMALL
USER_CHARGES

@<TRIPOS>ATOM
      1 C1         -0.8510    2.1659    0.2391 C.3       1 <0>        -0.1183
      2 C2         -0.1716    0.8232    0.1586 C.2       1 <0>        -0.1427
      3 C3          0.1514    0.1856    1.2565 C.2       1 <0>        -0.1488
      4 C4         -0.2428    0.7478    2.5980 C.3       1 <0>        -0.0384
      5 C5         -1.0453   -0.2778    3.3563 C.ar      1 <0>        -0.1820
      6 C6         -2.4298   -0.3155    3.2190 C.ar      1 <0>         0.1874
      7 C7         -3.1836   -1.2526    3.9095 C.ar      1 <0>        -0.1950
      8 C8         -2.5634   -2.1659    4.7475 C.ar      1 <0>         0.1936
      9 C9         -1.1615   -2.1333    4.8907 C.ar      1 <0>        -0.2270
     10 C10        -0.4046   -1.1805    4.1805 C.ar      1 <0>         0.2239
     11 O1          0.9451   -1.1473    4.3100 O.3       1 <0>        -0.4627
     12 C11        -0.5258   -3.0644    5.7457 C.2       1 <0>         0.3796
     13 C12        -1.3292   -4.0001    6.4300 C.2       1 <0>        -0.3196
     14 C13        -0.7429   -4.9469    7.2931 C.2       1 <0>         0.0475
     15 C14        -1.5258   -5.8448    7.9490 C.2       1 <0>        -0.0640
     16 C15        -2.9266   -5.8317    7.7678 C.2       1 <0>         0.3280
     17 O2         -3.6876   -6.7149    8.4141 O.2       1 <0>        -0.6453
     18 C16        -3.5180   -4.8966    6.9144 C.2       1 <0>        -0.3028
     19 C17        -2.7299   -3.9806    6.2434 C.2       1 <0>         0.2005
     20 O3         -3.3003   -3.0762    5.4187 O.3       1 <0>        -0.2269
     21 O4         -0.9581   -6.7587    8.7818 O.3       1 <0>        -0.3135
     22 C18        -1.0509   -8.1320    8.3978 C.3       1 <0>         0.0309
     23 C19         0.7512   -4.9649    7.4891 C.3       1 <0>        -0.0625
     24 C20         1.1359   -3.9297    8.5145 C.2       1 <0>        -0.1004
     25 C21         1.7524   -4.2925    9.6120 C.2       1 <0>        -0.1689
     26 C22         1.9983   -5.7529    9.8906 C.3       1 <0>        -0.1179
     27 C23         2.2156   -3.2493   10.5959 C.3       1 <0>        -0.1056
     28 O5          0.8135   -3.0575    5.9019 O.3       1 <0>        -0.5491
     29 O6         -3.0481    0.5738    2.4019 O.3       1 <0>        -0.4874
     30 C24         0.1364    0.2138   -1.1849 C.3       1 <0>        -0.1158
     31 H1         -0.2504    2.8410    0.8486 H         1 <0>         0.0635
     32 H2         -0.9579    2.5797   -0.7637 H         1 <0>         0.0566
     33 H3         -1.8361    2.0481    0.6904 H         1 <0>         0.0714
     34 H4          0.7000   -0.7429    1.2002 H         1 <0>         0.1095
     35 H5          0.6540    0.9989    3.1644 H         1 <0>         0.0797
     36 H6         -0.8442    1.6453    2.4533 H         1 <0>         0.0858
     37 H7         -4.2573   -1.2707    3.7941 H         1 <0>         0.1462
     38 H8          1.2577   -0.5756    5.0245 H         1 <0>         0.3950
     39 H9         -4.5894   -4.8900    6.7786 H         1 <0>         0.1220
     40 H10        -0.4964   -8.2889    7.4726 H         1 <0>         0.0274
     41 H11        -0.6301   -8.7585    9.1843 H         1 <0>         0.0750
     42 H12        -2.0971   -8.3963    8.2436 H         1 <0>         0.0573
     43 H13         1.0605   -5.9513    7.8348 H         1 <0>         0.0683
     44 H14         1.2444   -4.7402    6.5433 H         1 <0>         0.1148
     45 H15         0.9033   -2.8888    8.3446 H         1 <0>         0.1011
     46 H16         2.9186   -6.0668    9.3981 H         1 <0>         0.0518
     47 H17         2.0906   -5.9072   10.9656 H         1 <0>         0.0488
     48 H18         1.1635   -6.3411    9.5095 H         1 <0>         0.0846
     49 H19         1.3575   -2.6792   10.9520 H         1 <0>         0.0561
     50 H20         2.7034   -3.7370   11.4399 H         1 <0>         0.0532
     51 H21         2.9211   -2.5770   10.1075 H         1 <0>         0.0558
     52 H22        -3.1450    0.2681    1.4896 H         1 <0>         0.3941
     53 H23        -0.2031    0.8843   -1.9744 H         1 <0>         0.0591
     54 H24         1.2116    0.0601   -1.2762 H         1 <0>         0.0627
     55 H25        -0.3766   -0.7436   -1.2758 H         1 <0>         0.0635
@<TRIPOS>BOND
     1    1    2 1
     2    1   31 1
     3    1   32 1
     4    1   33 1
     5    2    3 2
     6    2   30 1
     7    3    4 1
     8    3   34 1
     9    4    5 1
    10    4   35 1
    11    4   36 1
    12    5   10 ar
    13    5    6 ar
    14    6    7 ar
    15    6   29 1
    16    7    8 ar
    17    7   37 1
    18    8   20 1
    19    8    9 ar
    20    9   10 ar
    21    9   12 1
    22   10   11 1
    23   11   38 1
    24   12   13 2
    25   12   28 1
    26   13   19 1
    27   13   14 1
    28   14   15 2
    29   14   23 1
    30   15   16 1
    31   15   21 1
    32   16   17 2
    33   16   18 1
    34   18   19 2
    35   18   39 1
    36   19   20 1
    37   21   22 1
    38   22   40 1
    39   22   41 1
    40   22   42 1
    41   23   24 1
    42   23   43 1
    43   23   44 1
    44   24   25 2
    45   24   45 1
    46   25   26 1
    47   25   27 1
    48   26   46 1
    49   26   47 1
    50   26   48 1
    51   27   49 1
    52   27   50 1
    53   27   51 1
    54   29   52 1
    55   30   53 1
    56   30   54 1
    57   30   55 1
@<TRIPOS>MOLECULE
ZINC03869685
   32    34     0     0     0
SMALL
USER_CHARGES

@<TRIPOS>ATOM
      1 C1          0.9741   -0.2755   -0.9644 C.ar      1 <0>        -0.0748
      2 C2          2.1569    0.4329   -0.9701 C.ar      1 <0>        -0.1346
      3 C3          2.3856    1.4156   -0.0177 C.ar      1 <0>         0.1032
      4 C4          1.4203    1.6918    0.9495 C.ar      1 <0>         0.0788
      5 C5          0.2328    0.9863    0.9617 C.ar      1 <0>        -0.0762
      6 C6          0.0021   -0.0041    0.0020 C.ar      1 <0>        -0.0447
      7 C7         -1.2637   -0.7605    0.0100 C.2       1 <0>         0.1350
      8 C8         -2.4363   -0.0759    0.1235 C.2       1 <0>        -0.0429
      9 C9         -3.6628   -0.7894    0.1327 C.2       1 <0>         0.4011
     10 O1         -4.7327   -0.2102    0.2323 O.2       1 <0>        -0.4484
     11 C10        -3.5946   -2.2549    0.0170 C.ar      1 <0>        -0.2690
     12 C11        -4.7561   -3.0387    0.0170 C.ar      1 <0>         0.2244
     13 C12        -4.6504   -4.4123   -0.0941 C.ar      1 <0>        -0.2081
     14 C13        -3.3994   -5.0103   -0.2044 C.ar      1 <0>         0.2000
     15 C14        -2.2463   -4.2416   -0.2047 C.ar      1 <0>        -0.1854
     16 C15        -2.3316   -2.8618   -0.0952 C.ar      1 <0>         0.1876
     17 O2         -1.2182   -2.0992   -0.1003 O.3       1 <0>        -0.1970
     18 O3         -3.3070   -6.3605   -0.3125 O.3       1 <0>        -0.4866
     19 O4         -5.9758   -2.4535    0.1257 O.3       1 <0>        -0.4726
     20 O5         -2.4312    1.2810    0.2275 O.3       1 <0>        -0.4502
     21 O6          1.6480    2.6557    1.8815 O.3       1 <0>        -0.4836
     22 O7          3.5534    2.1101   -0.0273 O.3       1 <0>        -0.4861
     23 H1          0.7971   -1.0371   -1.7094 H         1 <0>         0.1379
     24 H2          2.9075    0.2221   -1.7176 H         1 <0>         0.1421
     25 H3         -0.5155    1.1988    1.7108 H         1 <0>         0.1429
     26 H4         -5.5413   -5.0229   -0.0948 H         1 <0>         0.1515
     27 H5         -1.2805   -4.7174   -0.2903 H         1 <0>         0.1559
     28 H6         -3.3257   -6.6843   -1.2235 H         1 <0>         0.4050
     29 H7         -6.3751   -2.2160   -0.7224 H         1 <0>         0.4036
     30 H8         -3.3120    1.6729    0.3033 H         1 <0>         0.4079
     31 H9          1.3508    3.5370    1.6166 H         1 <0>         0.3905
     32 H10         3.5287    2.9137   -0.5647 H         1 <0>         0.3924
@<TRIPOS>BOND
     1    1    6 ar
     2    1    2 ar
     3    1   23 1
     4    2    3 ar
     5    2   24 1
     6    3    4 ar
     7    3   22 1
     8    4    5 ar
     9    4   21 1
    10    5    6 ar
    11    5   25 1
    12    6    7 1
    13    7   17 1
    14    7    8 2
    15    8    9 1
    16    8   20 1
    17    9   10 2
    18    9   11 1
    19   11   16 ar
    20   11   12 ar
    21   12   13 ar
    22   12   19 1
    23   13   14 ar
    24   13   26 1
    25   14   15 ar
    26   14   18 1
    27   15   16 ar
    28   15   27 1
    29   16   17 1
    30   18   28 1
    31   19   29 1
    32   20   30 1
    33   21   31 1
    34   22   32 1
@<TRIPOS>MOLECULE
ZINC03869685
   31    33     0     0     0
SMALL
USER_CHARGES

@<TRIPOS>ATOM
      1 C1          0.1390    1.1246   -0.8120 C.ar      1 <0>        -0.0626
      2 C2          1.3229    1.8301   -0.8179 C.ar      1 <0>        -0.1333
      3 C3          2.3812    1.4233   -0.0172 C.ar      1 <0>         0.0878
      4 C4          2.2522    0.2984    0.7970 C.ar      1 <0>         0.0757
      5 C5          1.0694   -0.4139    0.8086 C.ar      1 <0>        -0.0997
      6 C6          0.0021   -0.0041    0.0020 C.ar      1 <0>        -0.0194
      7 C7         -1.2620   -0.7597    0.0100 C.2       1 <0>         0.1007
      8 C8         -2.4587   -0.0763    0.1245 C.2       1 <0>        -0.0038
      9 C9         -3.6655   -0.7872    0.1324 C.2       1 <0>         0.3349
     10 C10        -3.6167   -2.1939    0.0219 C.2       1 <0>        -0.3331
     11 C11        -4.8018   -2.9593    0.0240 C.2       1 <0>         0.2664
     12 C12        -4.7326   -4.3182   -0.0844 C.2       1 <0>        -0.3749
     13 C13        -3.4871   -4.9570   -0.1979 C.2       1 <0>         0.3648
     14 O1         -3.4307   -6.2860   -0.3033 O.2       1 <0>        -0.6598
     15 C14        -2.3054   -4.2086   -0.2016 C.2       1 <0>        -0.3143
     16 C15        -2.3616   -2.8325   -0.0921 C.2       1 <0>         0.2118
     17 O2         -1.2290   -2.0988   -0.0996 O.3       1 <0>        -0.2018
     18 O3         -6.0073   -2.3463    0.1339 O.3       1 <0>        -0.4482
     19 O4         -4.8484   -0.1420    0.2437 O.3       1 <0>        -0.5747
     20 O5         -2.4638    1.2803    0.2294 O.3       1 <0>        -0.4649
     21 O6          3.2919   -0.0973    1.5794 O.3       1 <0>        -0.4856
     22 O7          3.5458    2.1225   -0.0269 O.3       1 <0>        -0.4881
     23 H1         -0.6843    1.4460   -1.4327 H         1 <0>         0.1397
     24 H2          1.4276    2.7014   -1.4473 H         1 <0>         0.1381
     25 H3          0.9685   -1.2854    1.4384 H         1 <0>         0.1410
     26 H4         -5.6395   -4.9047   -0.0825 H         1 <0>         0.1180
     27 H5         -1.3506   -4.7057   -0.2895 H         1 <0>         0.1230
     28 H6         -6.7597   -2.9537    0.1258 H         1 <0>         0.3847
     29 H7         -3.3475    1.6656    0.3047 H         1 <0>         0.4058
     30 H8          3.2925    0.2977    2.4620 H         1 <0>         0.3855
     31 H9          3.5825    2.8346    0.6263 H         1 <0>         0.3863
@<TRIPOS>BOND
     1    1    6 ar
     2    1    2 ar
     3    1   23 1
     4    2    3 ar
     5    2   24 1
     6    3    4 ar
     7    3   22 1
     8    4    5 ar
     9    4   21 1
    10    5    6 ar
    11    5   25 1
    12    6    7 1
    13    7   17 1
    14    7    8 2
    15    8    9 1
    16    8   20 1
    17    9   10 2
    18    9   19 1
    19   10   16 1
    20   10   11 1
    21   11   12 2
    22   11   18 1
    23   12   13 1
    24   12   26 1
    25   13   14 2
    26   13   15 1
    27   15   16 2
    28   15   27 1
    29   16   17 1
    30   18   28 1
    31   20   29 1
    32   21   30 1
    33   22   31 1
@<TRIPOS>MOLECULE
ZINC00056472
   44    45     0     0     0
SMALL
USER_CHARGES

@<TRIPOS>ATOM
      1 C1         -0.0187    1.5258    0.0104 C.3       1 <0>        -0.1531
      2 C2          0.0021   -0.0041    0.0020 C.3       1 <0>        -0.0796
      3 H1          0.5293   -0.3651    0.8851 H         1 <0>         0.0740
      4 C3         -1.4333   -0.5336    0.0129 C.3       1 <0>        -0.0824
      5 C4         -2.1001   -0.1511    1.3091 C.ar      1 <0>        -0.0689
      6 C5         -2.0198   -0.9949    2.4013 C.ar      1 <0>        -0.1099
      7 C6         -2.6297   -0.6485    3.5925 C.ar      1 <0>        -0.1273
      8 C7         -3.3231    0.5469    3.6939 C.ar      1 <0>         0.0740
      9 C8         -3.4036    1.3964    2.5947 C.ar      1 <0>         0.0820
     10 C9         -2.7858    1.0454    1.4050 C.ar      1 <0>        -0.1267
     11 O1         -4.0829    2.5707    2.6892 O.3       1 <0>        -0.4883
     12 O2         -3.9241    0.8890    4.8649 O.3       1 <0>        -0.4888
     13 C10         0.7182   -0.4975   -1.2568 C.3       1 <0>        -0.0796
     14 H2          0.1910   -0.1364   -2.1398 H         1 <0>         0.0740
     15 C11         2.1536    0.0321   -1.2676 C.3       1 <0>        -0.1531
     16 C12         0.7390   -2.0273   -1.2652 C.3       1 <0>        -0.0824
     17 C13         1.3339   -2.5145   -2.5613 C.ar      1 <0>        -0.0689
     18 C14         0.5162   -2.7441   -3.6522 C.ar      1 <0>        -0.1099
     19 C15         1.0571   -3.1910   -4.8433 C.ar      1 <0>        -0.1273
     20 C16         2.4216   -3.4095   -4.9459 C.ar      1 <0>         0.0740
     21 C17         3.2446   -3.1780   -3.8479 C.ar      1 <0>         0.0820
     22 C18         2.6966   -2.7254   -2.6584 C.ar      1 <0>        -0.1267
     23 O3          4.5844   -3.3909   -3.9436 O.3       1 <0>        -0.4884
     24 O4          2.9552   -3.8496   -6.1168 O.3       1 <0>        -0.4888
     25 H3          1.0039    1.9031    0.0027 H         1 <0>         0.0586
     26 H4         -0.5459    1.8868   -0.8726 H         1 <0>         0.0549
     27 H5         -0.5289    1.8773    0.9072 H         1 <0>         0.0570
     28 H6         -1.9862   -0.1019   -0.8214 H         1 <0>         0.0754
     29 H7         -1.4207   -1.6194   -0.0826 H         1 <0>         0.0803
     30 H8         -1.4796   -1.9269    2.3236 H         1 <0>         0.1296
     31 H9         -2.5661   -1.3097    4.4441 H         1 <0>         0.1331
     32 H10        -2.8436    1.7047    0.5515 H         1 <0>         0.1323
     33 H11        -3.5398    3.3172    2.9769 H         1 <0>         0.3871
     34 H12        -3.3584    1.3947    5.4643 H         1 <0>         0.3869
     35 H13         2.1388    1.1220   -1.2617 H         1 <0>         0.0587
     36 H14         2.6808   -0.3290   -0.3846 H         1 <0>         0.0549
     37 H15         2.6638   -0.3194   -2.1644 H         1 <0>         0.0570
     38 H16         1.3413   -2.3871   -0.4310 H         1 <0>         0.0754
     39 H17        -0.2789   -2.4050   -1.1679 H         1 <0>         0.0803
     40 H18        -0.5474   -2.5742   -3.5736 H         1 <0>         0.1296
     41 H19         0.4161   -3.3703   -5.6939 H         1 <0>         0.1331
     42 H20         3.3337   -2.5414   -1.8059 H         1 <0>         0.1323
     43 H21         5.0860   -2.6165   -4.2331 H         1 <0>         0.3871
     44 H22         3.2237   -3.1410   -6.7176 H         1 <0>         0.3869
@<TRIPOS>BOND
     1    1    2 1
     2    1   25 1
     3    1   26 1
     4    1   27 1
     5    2    3 1
     6    2    4 1
     7    2   13 1
     8    4    5 1
     9    4   28 1
    10    4   29 1
    11    5   10 ar
    12    5    6 ar
    13    6    7 ar
    14    6   30 1
    15    7    8 ar
    16    7   31 1
    17    8    9 ar
    18    8   12 1
    19    9   10 ar
    20    9   11 1
    21   10   32 1
    22   11   33 1
    23   12   34 1
    24   13   14 1
    25   13   15 1
    26   13   16 1
    27   15   35 1
    28   15   36 1
    29   15   37 1
    30   16   17 1
    31   16   38 1
    32   16   39 1
    33   17   22 ar
    34   17   18 ar
    35   18   19 ar
    36   18   40 1
    37   19   20 ar
    38   19   41 1
    39   20   21 ar
    40   20   24 1
    41   21   22 ar
    42   21   23 1
    43   22   42 1
    44   23   43 1
    45   24   44 1
@<TRIPOS>MOLECULE
ZINC00087274
   35    37     0     0     0
SMALL
USER_CHARGES
N-[(5-chloro-8-hydroxy-7-quinolyl)-(2-thienyl)methyl]acetamide
@<TRIPOS>ATOM
      1 C1          2.3874    0.6969   -0.2847 C.3       1 <0>        -0.1703
      2 C2          1.0940    1.4680   -0.3442 C.2       1 <0>         0.5080
      3 O1          1.1010    2.6410   -0.6522 O.2       1 <0>        -0.5177
      4 N1         -0.0704    0.8541   -0.0550 N.am      1 <0>        -0.7195
      5 C3         -1.3167    1.6237   -0.0260 C.3       1 <0>         0.2880
      6 H1         -2.1579    0.9473    0.1255 H         1 <0>         0.1204
      7 C4         -1.2649    2.6214    1.1022 C.2       1 <0>        -0.1803
      8 C5         -2.2475    2.9935    1.9585 C.2       1 <0>        -0.1396
      9 C6         -1.9684    3.9361    2.9302 C.2       1 <0>        -0.1644
     10 C7         -0.7233    4.4683    2.9914 C.2       1 <0>        -0.1944
     11 S1          0.1046    3.6258    1.6527 S.3       1 <0>         0.1110
     12 C8         -1.4875    2.3526   -1.3338 C.ar      1 <0>        -0.0972
     13 C9         -1.2752    3.7277   -1.3849 C.ar      1 <0>        -0.0422
     14 C10        -1.4211    4.4159   -2.5520 C.ar      1 <0>        -0.0326
     15 C11        -1.7908    3.7314   -3.7225 C.ar      1 <0>        -0.0775
     16 C12        -1.9507    4.4072   -4.9466 C.ar      1 <0>        -0.0594
     17 C13        -2.3111    3.6773   -6.0434 C.ar      1 <0>        -0.1624
     18 C14        -2.5094    2.3030   -5.9291 C.ar      1 <0>         0.1295
     19 N2         -2.3590    1.6772   -4.7871 N.ar      1 <0>        -0.4557
     20 C15        -2.0082    2.3326   -3.6768 C.ar      1 <0>         0.1079
     21 C16        -1.8426    1.6533   -2.4518 C.ar      1 <0>         0.1570
     22 O2         -2.0400    0.3107   -2.3833 O.3       1 <0>        -0.4733
     23 Cl1        -1.1508    6.1303   -2.5930 Cl        1 <0>        -0.0539
     24 H2          2.1832   -0.3331    0.0076 H         1 <0>         0.0764
     25 H3          2.8629    0.7088   -1.2655 H         1 <0>         0.0950
     26 H4          3.0516    1.1573    0.4467 H         1 <0>         0.0970
     27 H5         -0.0839   -0.0980    0.1300 H         1 <0>         0.4097
     28 H6         -3.2330    2.5580    1.8844 H         1 <0>         0.1325
     29 H7         -2.7321    4.2468    3.6279 H         1 <0>         0.1317
     30 H8         -0.3333    5.2098    3.6729 H         1 <0>         0.1826
     31 H9         -0.9907    4.2563   -0.4870 H         1 <0>         0.1475
     32 H10        -1.7932    5.4734   -5.0167 H         1 <0>         0.1455
     33 H11        -2.4426    4.1650   -6.9980 H         1 <0>         0.1437
     34 H12        -2.7942    1.7383   -6.8046 H         1 <0>         0.1648
     35 H13        -2.9500    0.0570   -2.1770 H         1 <0>         0.3922
@<TRIPOS>BOND
     1    1    2 1
     2    1   24 1
     3    1   25 1
     4    1   26 1
     5    2    3 2
     6    2    4 am
     7    4    5 1
     8    4   27 1
     9    5    6 1
    10    5    7 1
    11    5   12 1
    12    7   11 1
    13    7    8 2
    14    8    9 1
    15    8   28 1
    16    9   10 2
    17    9   29 1
    18   10   11 1
    19   10   30 1
    20   12   21 ar
    21   12   13 ar
    22   13   14 ar
    23   13   31 1
    24   14   15 ar
    25   14   23 1
    26   15   20 ar
    27   15   16 ar
    28   16   17 ar
    29   16   32 1
    30   17   18 ar
    31   17   33 1
    32   18   19 ar
    33   18   34 1
    34   19   20 ar
    35   20   21 ar
    36   21   22 1
    37   22   35 1
@<TRIPOS>MOLECULE
ZINC00087281
   35    37     0     0     0
SMALL
USER_CHARGES

@<TRIPOS>ATOM
      1 C1          0.1614    1.5259   -0.0716 C.3       1 <0>        -0.1737
      2 C2          0.1243    0.0196   -0.0465 C.2       1 <0>         0.5167
      3 O1          0.1558   -0.5702    1.0127 O.2       1 <0>        -0.5330
      4 N1          0.0560   -0.6721   -1.2012 N.am      1 <0>        -0.7311
      5 C3          0.0199   -2.1365   -1.1769 C.3       1 <0>         0.2854
      6 H1         -0.5080   -2.4721   -0.2842 H         1 <0>         0.1250
      7 C4          1.4279   -2.6734   -1.1595 C.2       1 <0>        -0.1558
      8 C5          1.9327   -3.7231   -0.4662 C.2       1 <0>        -0.1285
      9 C6          3.2711   -4.0382   -0.6073 C.2       1 <0>        -0.1556
     10 C7          4.0394   -3.2882   -1.4346 C.2       1 <0>        -0.1697
     11 S1          2.8622   -2.0968   -2.0527 S.3       1 <0>         0.0373
     12 C8         -0.6953   -2.6418   -2.4033 C.ar      1 <0>        -0.1035
     13 C9         -0.6900   -1.8741   -3.5649 C.ar      1 <0>        -0.0828
     14 C10        -1.3269   -2.3032   -4.6907 C.ar      1 <0>        -0.0174
     15 C11        -1.9995   -3.5372   -4.6828 C.ar      1 <0>        -0.0833
     16 C12        -2.6681   -4.0144   -5.8257 C.ar      1 <0>        -0.0568
     17 C13        -3.3002   -5.2225   -5.7451 C.ar      1 <0>        -0.1600
     18 C14        -3.2702   -5.9445   -4.5539 C.ar      1 <0>         0.1370
     19 N2         -2.6462   -5.4965   -3.4917 N.ar      1 <0>        -0.4547
     20 C15        -2.0085   -4.3225   -3.5042 C.ar      1 <0>         0.1161
     21 C16        -1.3339   -3.8481   -2.3598 C.ar      1 <0>         0.1695
     22 O2         -1.3237   -4.5853   -1.2186 O.3       1 <0>        -0.4704
     23 Cl1        -1.3080   -1.3296   -6.1279 Cl        1 <0>        -0.0468
     24 H2          1.1967    1.8631   -0.1227 H         1 <0>         0.0975
     25 H3         -0.3822    1.8883   -0.9441 H         1 <0>         0.0817
     26 H4         -0.3035    1.9160    0.8339 H         1 <0>         0.0972
     27 H5          0.0308   -0.2004   -2.0484 H         1 <0>         0.4019
     28 H6          1.2986   -4.3044    0.1868 H         1 <0>         0.1371
     29 H7          3.6985   -4.8694   -0.0660 H         1 <0>         0.1356
     30 H8          5.0901   -3.3880   -1.6637 H         1 <0>         0.1862
     31 H9         -0.1742   -0.9253   -3.5737 H         1 <0>         0.1398
     32 H10        -2.6813   -3.4410   -6.7408 H         1 <0>         0.1476
     33 H11        -3.8229   -5.6175   -6.6037 H         1 <0>         0.1463
     34 H12        -3.7746   -6.8982   -4.5043 H         1 <0>         0.1676
     35 H13        -2.0612   -4.3972   -0.6222 H         1 <0>         0.3975
@<TRIPOS>BOND
     1    1    2 1
     2    1   24 1
     3    1   25 1
     4    1   26 1
     5    2    3 2
     6    2    4 am
     7    4    5 1
     8    4   27 1
     9    5    6 1
    10    5    7 1
    11    5   12 1
    12    7   11 1
    13    7    8 2
    14    8    9 1
    15    8   28 1
    16    9   10 2
    17    9   29 1
    18   10   11 1
    19   10   30 1
    20   12   21 ar
    21   12   13 ar
    22   13   14 ar
    23   13   31 1
    24   14   15 ar
    25   14   23 1
    26   15   20 ar
    27   15   16 ar
    28   16   17 ar
    29   16   32 1
    30   17   18 ar
    31   17   33 1
    32   18   19 ar
    33   18   34 1
    34   19   20 ar
    35   20   21 ar
    36   21   22 1
    37   22   35 1
@<TRIPOS>MOLECULE
ZINC00087281
   34    36     0     0     0
SMALL
USER_CHARGES

@<TRIPOS>ATOM
      1 C1          0.1613    1.5259   -0.0716 C.3       1 <0>        -0.1714
      2 C2          0.1242    0.0196   -0.0465 C.2       1 <0>         0.5083
      3 O1          0.1558   -0.5702    1.0127 O.2       1 <0>        -0.5444
      4 N1          0.0560   -0.6721   -1.2012 N.am      1 <0>        -0.7222
      5 C3          0.0199   -2.1365   -1.1769 C.3       1 <0>         0.3066
      6 H1         -0.5079   -2.4721   -0.2842 H         1 <0>         0.1178
      7 C4          1.4279   -2.6734   -1.1595 C.2       1 <0>        -0.0939
      8 C5          1.9327   -3.7231   -0.4663 C.2       1 <0>        -0.1607
      9 C6          3.2712   -4.0382   -0.6073 C.2       1 <0>        -0.1403
     10 C7          4.0394   -3.2881   -1.4347 C.2       1 <0>        -0.2019
     11 S1          2.8621   -2.0968   -2.0527 S.3       1 <0>         0.0056
     12 C8         -0.6953   -2.6418   -2.4033 C.ar      1 <0>        -0.2973
     13 C9         -0.6900   -1.8741   -3.5649 C.ar      1 <0>         0.0040
     14 C10        -1.3269   -2.3032   -4.6907 C.ar      1 <0>        -0.1772
     15 C11        -1.9995   -3.5372   -4.6828 C.ar      1 <0>        -0.0238
     16 C12        -2.6681   -4.0144   -5.8257 C.ar      1 <0>        -0.1068
     17 C13        -3.3002   -5.2225   -5.7451 C.ar      1 <0>        -0.1566
     18 C14        -3.2702   -5.9445   -4.5539 C.ar      1 <0>         0.0498
     19 N2         -2.6462   -5.4965   -3.4917 N.ar      1 <0>        -0.4137
     20 C15        -2.0085   -4.3225   -3.5042 C.ar      1 <0>         0.0499
     21 C16        -1.3339   -3.8481   -2.3598 C.ar      1 <0>         0.3313
     22 O2         -1.3237   -4.5853   -1.2186 O.3       1 <0>        -0.6429
     23 Cl1        -1.3080   -1.3296   -6.1279 Cl        1 <0>        -0.1120
     24 H2          1.1966    1.8631   -0.1227 H         1 <0>         0.0904
     25 H3         -0.3823    1.8883   -0.9440 H         1 <0>         0.0781
     26 H4         -0.3035    1.9159    0.8340 H         1 <0>         0.0901
     27 H5          0.0307   -0.2003   -2.0484 H         1 <0>         0.3967
     28 H6          1.2987   -4.3044    0.1868 H         1 <0>         0.1363
     29 H7          3.6985   -4.8693   -0.0661 H         1 <0>         0.1261
     30 H8          5.0901   -3.3879   -1.6638 H         1 <0>         0.1771
     31 H9         -0.1742   -0.9253   -3.5737 H         1 <0>         0.1037
     32 H10        -2.6813   -3.4410   -6.7408 H         1 <0>         0.1279
     33 H11        -3.8229   -5.6175   -6.6037 H         1 <0>         0.1219
     34 H12        -3.7746   -6.8982   -4.5043 H         1 <0>         0.1433
@<TRIPOS>BOND
     1    1    2 1
     2    1   24 1
     3    1   25 1
     4    1   26 1
     5    2    3 2
     6    2    4 am
     7    4    5 1
     8    4   27 1
     9    5    6 1
    10    5    7 1
    11    5   12 1
    12    7   11 1
    13    7    8 2
    14    8    9 1
    15    8   28 1
    16    9   10 2
    17    9   29 1
    18   10   11 1
    19   10   30 1
    20   12   21 ar
    21   12   13 ar
    22   13   14 ar
    23   13   31 1
    24   14   15 ar
    25   14   23 1
    26   15   20 ar
    27   15   16 ar
    28   16   17 ar
    29   16   32 1
    30   17   18 ar
    31   17   33 1
    32   18   19 ar
    33   18   34 1
    34   19   20 ar
    35   20   21 ar
    36   21   22 1
@<TRIPOS>MOLECULE
ZINC00087288
   38    40     0     0     0
SMALL
USER_CHARGES

@<TRIPOS>ATOM
      1 C1          2.4806   -0.1116   -1.6784 C.3       1 <0>        -0.1391
      2 C2          1.3317   -0.6568   -0.8276 C.3       1 <0>        -0.1432
      3 C3          1.8820   -1.2231    0.4559 C.2       1 <0>         0.5134
      4 O1          3.0755   -1.1936    0.6693 O.2       1 <0>        -0.5231
      5 N1          1.0477   -1.7624    1.3668 N.am      1 <0>        -0.7314
      6 C4          1.5826   -2.3130    2.6146 C.3       1 <0>         0.2831
      7 H1          2.4293   -1.7107    2.9440 H         1 <0>         0.1366
      8 C5          0.5100   -2.2931    3.6730 C.2       1 <0>        -0.0299
      9 C6          0.6878   -1.9729    4.9673 C.2       1 <0>        -0.1859
     10 C7         -0.5744   -2.0856    5.5942 C.2       1 <0>        -0.2117
     11 C8         -1.4480   -2.4680    4.6456 C.2       1 <0>        -0.0283
     12 O2         -0.7867   -2.5865    3.4826 O.3       1 <0>        -0.1720
     13 C9          2.0349   -3.7320    2.3844 C.ar      1 <0>        -0.1078
     14 C10         1.4937   -4.4612    1.3290 C.ar      1 <0>        -0.0694
     15 C11         1.8820   -5.7461    1.0939 C.ar      1 <0>        -0.0255
     16 C12         2.8419   -6.3469    1.9263 C.ar      1 <0>        -0.0823
     17 C13         3.2687   -7.6713    1.7151 C.ar      1 <0>        -0.0580
     18 C14         4.2051   -8.1897    2.5637 C.ar      1 <0>        -0.1611
     19 C15         4.7093   -7.4100    3.6024 C.ar      1 <0>         0.1344
     20 N2          4.3091   -6.1767    3.7956 N.ar      1 <0>        -0.4545
     21 C16         3.3960   -5.6102    3.0016 C.ar      1 <0>         0.1138
     22 C17         2.9734   -4.2808    3.2108 C.ar      1 <0>         0.1667
     23 O3          3.4938   -3.5516    4.2324 O.3       1 <0>        -0.4709
     24 Cl1         1.1936   -6.6371   -0.2275 Cl        1 <0>        -0.0510
     25 H2          3.1781   -0.9176   -1.9064 H         1 <0>         0.0624
     26 H3          2.0826    0.2980   -2.6068 H         1 <0>         0.0637
     27 H4          2.9996    0.6732   -1.1280 H         1 <0>         0.0629
     28 H5          0.6342    0.1492   -0.5996 H         1 <0>         0.0962
     29 H6          0.8127   -1.4416   -1.3780 H         1 <0>         0.0954
     30 H7          0.0931   -1.7861    1.1962 H         1 <0>         0.4080
     31 H8          1.6166   -1.6854    5.4374 H         1 <0>         0.1550
     32 H9         -0.7947   -1.9006    6.6352 H         1 <0>         0.1532
     33 H10        -2.5030   -2.6456    4.7932 H         1 <0>         0.2067
     34 H11         0.7556   -4.0022    0.6879 H         1 <0>         0.1411
     35 H12         2.8666   -8.2615    0.9049 H         1 <0>         0.1466
     36 H13         4.5539   -9.2030    2.4298 H         1 <0>         0.1454
     37 H14         5.4490   -7.8328    4.2660 H         1 <0>         0.1669
     38 H15         3.0039   -3.6317    5.0622 H         1 <0>         0.3937
@<TRIPOS>BOND
     1    1    2 1
     2    1   25 1
     3    1   26 1
     4    1   27 1
     5    2    3 1
     6    2   28 1
     7    2   29 1
     8    3    4 2
     9    3    5 am
    10    5    6 1
    11    5   30 1
    12    6    7 1
    13    6    8 1
    14    6   13 1
    15    8   12 1
    16    8    9 2
    17    9   10 1
    18    9   31 1
    19   10   11 2
    20   10   32 1
    21   11   12 1
    22   11   33 1
    23   13   22 ar
    24   13   14 ar
    25   14   15 ar
    26   14   34 1
    27   15   16 ar
    28   15   24 1
    29   16   21 ar
    30   16   17 ar
    31   17   18 ar
    32   17   35 1
    33   18   19 ar
    34   18   36 1
    35   19   20 ar
    36   19   37 1
    37   20   21 ar
    38   21   22 ar
    39   22   23 1
    40   23   38 1
@<TRIPOS>MOLECULE
ZINC00087288
   37    39     0     0     0
SMALL
USER_CHARGES

@<TRIPOS>ATOM
      1 C1          2.4778   -0.1138   -1.6800 C.3       1 <0>        -0.1356
      2 C2          1.3294   -0.6581   -0.8281 C.3       1 <0>        -0.1430
      3 C3          1.8805   -1.2242    0.4552 C.2       1 <0>         0.5087
      4 O1          3.0743   -1.1950    0.6675 O.2       1 <0>        -0.5282
      5 N1          1.0469   -1.7628    1.3670 N.am      1 <0>        -0.7274
      6 C4          1.5826   -2.3130    2.6146 C.3       1 <0>         0.3140
      7 H1          2.4294   -1.7105    2.9433 H         1 <0>         0.1186
      8 C5          0.5107   -2.2930    3.6736 C.2       1 <0>         0.0057
      9 C6          0.6893   -1.9725    4.9678 C.2       1 <0>        -0.1898
     10 C7         -0.5725   -2.0852    5.5956 C.2       1 <0>        -0.2115
     11 C8         -1.4467   -2.4679    4.6476 C.2       1 <0>        -0.0605
     12 O2         -0.7861   -2.5866    3.4842 O.3       1 <0>        -0.1788
     13 C9          2.0349   -3.7320    2.3844 C.ar      1 <0>        -0.2987
     14 C10         1.4937   -4.4612    1.3290 C.ar      1 <0>         0.0147
     15 C11         1.8820   -5.7461    1.0939 C.ar      1 <0>        -0.1842
     16 C12         2.8419   -6.3469    1.9263 C.ar      1 <0>        -0.0231
     17 C13         3.2687   -7.6713    1.7151 C.ar      1 <0>        -0.1089
     18 C14         4.2051   -8.1897    2.5637 C.ar      1 <0>        -0.1574
     19 C15         4.7093   -7.4100    3.6024 C.ar      1 <0>         0.0457
     20 N2          4.3091   -6.1767    3.7956 N.ar      1 <0>        -0.4129
     21 C16         3.3960   -5.6102    3.0016 C.ar      1 <0>         0.0470
     22 C17         2.9734   -4.2808    3.2108 C.ar      1 <0>         0.3314
     23 O3          3.4938   -3.5516    4.2324 O.3       1 <0>        -0.6471
     24 Cl1         1.1936   -6.6371   -0.2275 Cl        1 <0>        -0.1163
     25 H2          3.1748   -0.9201   -1.9083 H         1 <0>         0.0621
     26 H3          2.0792    0.2956   -2.6083 H         1 <0>         0.0564
     27 H4          2.9975    0.6710   -1.1305 H         1 <0>         0.0604
     28 H5          0.6324    0.1482   -0.5998 H         1 <0>         0.0886
     29 H6          0.8097   -1.4429   -1.3777 H         1 <0>         0.0903
     30 H7          0.0921   -1.7861    1.1972 H         1 <0>         0.3971
     31 H8          1.6184   -1.6849    5.4373 H         1 <0>         0.1501
     32 H9         -0.7922   -1.9000    6.6366 H         1 <0>         0.1423
     33 H10        -2.5016   -2.6456    4.7959 H         1 <0>         0.1957
     34 H11         0.7556   -4.0022    0.6879 H         1 <0>         0.1049
     35 H12         2.8666   -8.2615    0.9049 H         1 <0>         0.1265
     36 H13         4.5539   -9.2030    2.4298 H         1 <0>         0.1207
     37 H14         5.4490   -7.8328    4.2660 H         1 <0>         0.1422
@<TRIPOS>BOND
     1    1    2 1
     2    1   25 1
     3    1   26 1
     4    1   27 1
     5    2    3 1
     6    2   28 1
     7    2   29 1
     8    3    4 2
     9    3    5 am
    10    5    6 1
    11    5   30 1
    12    6    7 1
    13    6    8 1
    14    6   13 1
    15    8   12 1
    16    8    9 2
    17    9   10 1
    18    9   31 1
    19   10   11 2
    20   10   32 1
    21   11   12 1
    22   11   33 1
    23   13   22 ar
    24   13   14 ar
    25   14   15 ar
    26   14   34 1
    27   15   16 ar
    28   15   24 1
    29   16   21 ar
    30   16   17 ar
    31   17   18 ar
    32   17   35 1
    33   18   19 ar
    34   18   36 1
    35   19   20 ar
    36   19   37 1
    37   20   21 ar
    38   21   22 ar
    39   22   23 1
@<TRIPOS>MOLECULE
ZINC00087295
   38    40     0     0     0
SMALL
USER_CHARGES

@<TRIPOS>ATOM
      1 C1          0.1596    1.4593   -0.1830 C.3       1 <0>        -0.1387
      2 C2          0.1348   -0.0695   -0.1287 C.3       1 <0>        -0.1438
      3 C3          0.8190   -0.5386    1.1295 C.2       1 <0>         0.5162
      4 O1          1.2809    0.2702    1.9062 O.2       1 <0>        -0.5274
      5 N1          0.9175   -1.8570    1.3915 N.am      1 <0>        -0.7310
      6 C4          1.5826   -2.3130    2.6146 C.3       1 <0>         0.2864
      7 H1          1.4133   -1.5891    3.4118 H         1 <0>         0.1319
      8 C5          3.0624   -2.4453    2.3622 C.2       1 <0>        -0.0303
      9 C6          4.0404   -2.1029    3.2200 C.2       1 <0>        -0.1745
     10 C7          5.2670   -2.3934    2.5797 C.2       1 <0>        -0.2134
     11 C8          4.9653   -2.8959    1.3690 C.2       1 <0>        -0.0379
     12 O2          3.6284   -2.9304    1.2451 O.3       1 <0>        -0.1713
     13 C9          1.0211   -3.6505    3.0230 C.ar      1 <0>        -0.1088
     14 C10         0.4935   -4.4977    2.0521 C.ar      1 <0>        -0.0801
     15 C11        -0.0213   -5.7137    2.3887 C.ar      1 <0>        -0.0190
     16 C12        -0.0213   -6.1218    3.7336 C.ar      1 <0>        -0.0825
     17 C13        -0.5435   -7.3703    4.1203 C.ar      1 <0>        -0.0572
     18 C14        -0.5099   -7.7004    5.4452 C.ar      1 <0>        -0.1594
     19 C15         0.0311   -6.8098    6.3699 C.ar      1 <0>         0.1369
     20 N2          0.5165   -5.6478    6.0056 N.ar      1 <0>        -0.4541
     21 C16         0.5139   -5.2644    4.7257 C.ar      1 <0>         0.1152
     22 C17         1.0428   -4.0153    4.3387 C.ar      1 <0>         0.1708
     23 O3          1.5665   -3.1771    5.2711 O.3       1 <0>        -0.4702
     24 Cl1        -0.6746   -6.7538    1.1619 Cl        1 <0>        -0.0467
     25 H2          1.1929    1.8063   -0.1804 H         1 <0>         0.0624
     26 H3         -0.3353    1.7986   -1.0930 H         1 <0>         0.0636
     27 H4         -0.3612    1.8622    0.6856 H         1 <0>         0.0627
     28 H5         -0.8985   -0.4165   -0.1313 H         1 <0>         0.0960
     29 H6          0.6556   -0.4725   -0.9973 H         1 <0>         0.0956
     30 H7          0.5481   -2.5039    0.7703 H         1 <0>         0.4030
     31 H8          3.9131   -1.6856    4.2079 H         1 <0>         0.1512
     32 H9          6.2565   -2.2408    2.9848 H         1 <0>         0.1497
     33 H10         5.6772   -3.2204    0.6245 H         1 <0>         0.2032
     34 H11         0.4919   -4.1865    1.0179 H         1 <0>         0.1413
     35 H12        -0.9594   -8.0483    3.3897 H         1 <0>         0.1477
     36 H13        -0.9026   -8.6507    5.7757 H         1 <0>         0.1465
     37 H14         0.0508   -7.0837    7.4144 H         1 <0>         0.1679
     38 H15         0.9235   -2.5661    5.6562 H         1 <0>         0.3980
@<TRIPOS>BOND
     1    1    2 1
     2    1   25 1
     3    1   26 1
     4    1   27 1
     5    2    3 1
     6    2   28 1
     7    2   29 1
     8    3    4 2
     9    3    5 am
    10    5    6 1
    11    5   30 1
    12    6    7 1
    13    6    8 1
    14    6   13 1
    15    8   12 1
    16    8    9 2
    17    9   10 1
    18    9   31 1
    19   10   11 2
    20   10   32 1
    21   11   12 1
    22   11   33 1
    23   13   22 ar
    24   13   14 ar
    25   14   15 ar
    26   14   34 1
    27   15   16 ar
    28   15   24 1
    29   16   21 ar
    30   16   17 ar
    31   17   18 ar
    32   17   35 1
    33   18   19 ar
    34   18   36 1
    35   19   20 ar
    36   19   37 1
    37   20   21 ar
    38   21   22 ar
    39   22   23 1
    40   23   38 1
@<TRIPOS>MOLECULE
ZINC00087295
   37    39     0     0     0
SMALL
USER_CHARGES

@<TRIPOS>ATOM
      1 C1          0.1596    1.4593   -0.1830 C.3       1 <0>        -0.1349
      2 C2          0.1348   -0.0695   -0.1287 C.3       1 <0>        -0.1444
      3 C3          0.8190   -0.5386    1.1295 C.2       1 <0>         0.5086
      4 O1          1.2809    0.2702    1.9062 O.2       1 <0>        -0.5391
      5 N1          0.9175   -1.8570    1.3915 N.am      1 <0>        -0.7225
      6 C4          1.5826   -2.3130    2.6146 C.3       1 <0>         0.3105
      7 H1          1.4133   -1.5891    3.4118 H         1 <0>         0.1238
      8 C5          3.0624   -2.4453    2.3622 C.2       1 <0>         0.0098
      9 C6          4.0404   -2.1029    3.2200 C.2       1 <0>        -0.1964
     10 C7          5.2670   -2.3934    2.5797 C.2       1 <0>        -0.2113
     11 C8          4.9653   -2.8959    1.3690 C.2       1 <0>        -0.0677
     12 O2          3.6284   -2.9304    1.2451 O.3       1 <0>        -0.1754
     13 C9          1.0211   -3.6505    3.0230 C.ar      1 <0>        -0.3029
     14 C10         0.4935   -4.4977    2.0521 C.ar      1 <0>         0.0062
     15 C11        -0.0213   -5.7137    2.3887 C.ar      1 <0>        -0.1785
     16 C12        -0.0213   -6.1218    3.7336 C.ar      1 <0>        -0.0236
     17 C13        -0.5435   -7.3703    4.1203 C.ar      1 <0>        -0.1070
     18 C14        -0.5099   -7.7004    5.4452 C.ar      1 <0>        -0.1565
     19 C15         0.0311   -6.8098    6.3699 C.ar      1 <0>         0.0498
     20 N2          0.5165   -5.6478    6.0056 N.ar      1 <0>        -0.4134
     21 C16         0.5139   -5.2644    4.7257 C.ar      1 <0>         0.0501
     22 C17         1.0428   -4.0153    4.3387 C.ar      1 <0>         0.3313
     23 O3          1.5665   -3.1771    5.2711 O.3       1 <0>        -0.6420
     24 Cl1        -0.6746   -6.7538    1.1619 Cl        1 <0>        -0.1122
     25 H2          1.1929    1.8063   -0.1804 H         1 <0>         0.0601
     26 H3         -0.3353    1.7986   -1.0930 H         1 <0>         0.0570
     27 H4         -0.3612    1.8622    0.6856 H         1 <0>         0.0613
     28 H5         -0.8985   -0.4165   -0.1313 H         1 <0>         0.0916
     29 H6          0.6556   -0.4725   -0.9973 H         1 <0>         0.0899
     30 H7          0.5480   -2.5039    0.7703 H         1 <0>         0.3974
     31 H8          3.9131   -1.6856    4.2079 H         1 <0>         0.1476
     32 H9          6.2565   -2.2408    2.9848 H         1 <0>         0.1404
     33 H10         5.6772   -3.2204    0.6245 H         1 <0>         0.1933
     34 H11         0.4919   -4.1865    1.0179 H         1 <0>         0.1052
     35 H12        -0.9594   -8.0483    3.3897 H         1 <0>         0.1279
     36 H13        -0.9026   -8.6507    5.7757 H         1 <0>         0.1221
     37 H14         0.0508   -7.0837    7.4144 H         1 <0>         0.1435
@<TRIPOS>BOND
     1    1    2 1
     2    1   25 1
     3    1   26 1
     4    1   27 1
     5    2    3 1
     6    2   28 1
     7    2   29 1
     8    3    4 2
     9    3    5 am
    10    5    6 1
    11    5   30 1
    12    6    7 1
    13    6    8 1
    14    6   13 1
    15    8   12 1
    16    8    9 2
    17    9   10 1
    18    9   31 1
    19   10   11 2
    20   10   32 1
    21   11   12 1
    22   11   33 1
    23   13   22 ar
    24   13   14 ar
    25   14   15 ar
    26   14   34 1
    27   15   16 ar
    28   15   24 1
    29   16   21 ar
    30   16   17 ar
    31   17   18 ar
    32   17   35 1
    33   18   19 ar
    34   18   36 1
    35   19   20 ar
    36   19   37 1
    37   20   21 ar
    38   21   22 ar
    39   22   23 1
@<TRIPOS>MOLECULE
ZINC02769764
   22    23     0     0     0
SMALL
USER_CHARGES

@<TRIPOS>ATOM
      1 C1         -0.0167    1.3786    0.0096 C.ar      1 <0>        -0.1712
      2 C2          1.1695    2.0894    0.0021 C.ar      1 <0>        -0.0675
      3 C3          2.3774    1.4200   -0.0135 C.ar      1 <0>        -0.1944
      4 C4          2.3998    0.0311   -0.0212 C.ar      1 <0>         0.2306
      5 C5          1.2064   -0.6798   -0.0132 C.ar      1 <0>        -0.1836
      6 C6          0.0021   -0.0041    0.0020 C.ar      1 <0>        -0.0668
      7 N1          3.6196   -0.6492   -0.0374 N.pl3     1 <0>        -0.4473
      8 C7          3.7779   -2.1099   -0.0528 C.3       1 <0>         0.1242
      9 C8          5.3017   -2.3314   -0.0670 C.3       1 <0>        -0.1664
     10 C9          5.8824   -0.9355   -0.0582 C.2       1 <0>         0.5258
     11 N2          4.8770   -0.0489   -0.0477 N.am      1 <0>        -0.5205
     12 O1          7.0641   -0.6626   -0.0649 O.2       1 <0>        -0.5170
     13 H1         -0.9598    1.9046    0.0260 H         1 <0>         0.1230
     14 H2          1.1513    3.1692    0.0081 H         1 <0>         0.1253
     15 H3          3.3034    1.9757   -0.0201 H         1 <0>         0.1161
     16 H4          1.2204   -1.7597   -0.0195 H         1 <0>         0.1259
     17 H5         -0.9261   -0.5561    0.0079 H         1 <0>         0.1277
     18 H6          3.3377   -2.5498    0.8421 H         1 <0>         0.0872
     19 H7          3.3235   -2.5325   -0.9488 H         1 <0>         0.0868
     20 H8          5.6153   -2.8803    0.8210 H         1 <0>         0.1186
     21 H9          5.6011   -2.8630   -0.9703 H         1 <0>         0.1187
     22 H10         5.0111    0.9118   -0.0443 H         1 <0>         0.4247
@<TRIPOS>BOND
     1    1    6 ar
     2    1    2 ar
     3    1   13 1
     4    2    3 ar
     5    2   14 1
     6    3    4 ar
     7    3   15 1
     8    4    5 ar
     9    4    7 1
    10    5    6 ar
    11    5   16 1
    12    6   17 1
    13    7   11 1
    14    7    8 1
    15    8    9 1
    16    8   18 1
    17    8   19 1
    18    9   10 1
    19    9   20 1
    20    9   21 1
    21   10   11 am
    22   10   12 2
    23   11   22 1
@<TRIPOS>MOLECULE
ZINC03871633
   30    32     0     0     0
SMALL
USER_CHARGES

@<TRIPOS>ATOM
      1 C1         -0.0167    1.3795    0.0096 C.ar      1 <0>        -0.0921
      2 C2          1.1683    2.0940    0.0021 C.ar      1 <0>        -0.1230
      3 C3          2.3774    1.4303   -0.0130 C.ar      1 <0>        -0.0790
      4 C4          2.4038    0.0341   -0.0208 C.ar      1 <0>        -0.0756
      5 C5          1.2040   -0.6806   -0.0131 C.ar      1 <0>        -0.0796
      6 C6          0.0021   -0.0041    0.0020 C.ar      1 <0>        -0.1207
      7 C7          3.6945   -0.6834   -0.0374 C.2       1 <0>         0.2091
      8 C8          3.6864   -2.0423   -0.0503 C.2       1 <0>        -0.3117
      9 C9          4.9141   -2.7479   -0.0669 C.2       1 <0>         0.4234
     10 O1          4.9443   -3.9678   -0.0790 O.2       1 <0>        -0.4507
     11 C10         6.1530   -1.9519   -0.0693 C.ar      1 <0>        -0.2508
     12 C11         6.0489   -0.5496   -0.0552 C.ar      1 <0>         0.1748
     13 O2          4.8301    0.0318   -0.0449 O.3       1 <0>        -0.2163
     14 C12         7.2014    0.2203   -0.0572 C.ar      1 <0>        -0.1662
     15 C13         8.4452   -0.3910   -0.0736 C.ar      1 <0>         0.1647
     16 C14         8.5528   -1.7804   -0.0881 C.ar      1 <0>         0.0244
     17 C15         7.4110   -2.5656   -0.0858 C.ar      1 <0>         0.1934
     18 O3          7.5117   -3.9201   -0.0990 O.3       1 <0>        -0.4665
     19 O4          9.7814   -2.3670   -0.1045 O.3       1 <0>        -0.4726
     20 O5          9.5696    0.3710   -0.0759 O.3       1 <0>        -0.4763
     21 H1         -0.9606    1.9042    0.0260 H         1 <0>         0.1310
     22 H2          1.1464    3.1737    0.0078 H         1 <0>         0.1327
     23 H3          3.3016    1.9892   -0.0192 H         1 <0>         0.1352
     24 H4          1.2173   -1.7605   -0.0194 H         1 <0>         0.1363
     25 H5         -0.9265   -0.5555    0.0079 H         1 <0>         0.1348
     26 H6          2.7501   -2.5805   -0.0475 H         1 <0>         0.1647
     27 H7          7.1302    1.2979   -0.0464 H         1 <0>         0.1582
     28 H8          7.5333   -4.3043   -0.9861 H         1 <0>         0.4056
     29 H9         10.1439   -2.5451    0.7741 H         1 <0>         0.3918
     30 H10         9.9027    0.5834    0.8067 H         1 <0>         0.4008
@<TRIPOS>BOND
     1    1    6 ar
     2    1    2 ar
     3    1   21 1
     4    2    3 ar
     5    2   22 1
     6    3    4 ar
     7    3   23 1
     8    4    5 ar
     9    4    7 1
    10    5    6 ar
    11    5   24 1
    12    6   25 1
    13    7   13 1
    14    7    8 2
    15    8    9 1
    16    8   26 1
    17    9   10 2
    18    9   11 1
    19   11   17 ar
    20   11   12 ar
    21   12   13 1
    22   12   14 ar
    23   14   15 ar
    24   14   27 1
    25   15   16 ar
    26   15   20 1
    27   16   17 ar
    28   16   19 1
    29   17   18 1
    30   18   28 1
    31   19   29 1
    32   20   30 1
