@<TRIPOS>MOLECULE
ZINC01684315
   26    28     0     0     0
SMALL
USER_CHARGES

@<TRIPOS>ATOM
      1 C1         -0.0143    1.3817    0.0473 C.ar      1 <0>        -0.1347
      2 C2          0.1249    0.1881    0.7317 C.ar      1 <0>        -0.0950
      3 C3          1.3287   -0.4881    0.7059 C.ar      1 <0>        -0.1226
      4 C4          2.4005    0.0319   -0.0085 C.ar      1 <0>         0.1629
      5 C5          2.2573    1.2310   -0.6949 C.ar      1 <0>        -0.1454
      6 C6          1.0507    1.9022   -0.6649 C.ar      1 <0>        -0.0964
      7 N1          3.6208   -0.6499   -0.0363 N.pl3     1 <0>        -0.6178
      8 C7          3.6445   -2.0242    0.0601 C.2       1 <0>         0.4934
      9 N2          2.5860   -2.7934    0.0709 N.2       1 <0>        -0.5175
     10 C8          2.9892   -4.0891    0.1772 C.ar      1 <0>         0.0552
     11 C9          2.3114   -5.3077    0.2346 C.ar      1 <0>        -0.0759
     12 C10         3.0241   -6.4815    0.3449 C.ar      1 <0>        -0.1089
     13 C11         4.4093   -6.4585    0.3991 C.ar      1 <0>        -0.1070
     14 C12         5.0920   -5.2602    0.3433 C.ar      1 <0>        -0.0816
     15 C13         4.3910   -4.0705    0.2324 C.ar      1 <0>        -0.0054
     16 O1          4.7590   -2.7711    0.1511 O.3       1 <0>        -0.2288
     17 H1         -0.9582    1.9062    0.0654 H         1 <0>         0.1253
     18 H2         -0.7087   -0.2154    1.2873 H         1 <0>         0.1276
     19 H3          1.4369   -1.4200    1.2410 H         1 <0>         0.1405
     20 H4          3.0886    1.6380   -1.2513 H         1 <0>         0.1273
     21 H5          0.9386    2.8344   -1.1986 H         1 <0>         0.1290
     22 H6          4.4508   -0.1554   -0.1235 H         1 <0>         0.4274
     23 H7          1.2324   -5.3304    0.1930 H         1 <0>         0.1359
     24 H8          2.5007   -7.4251    0.3897 H         1 <0>         0.1376
     25 H9          4.9579   -7.3847    0.4859 H         1 <0>         0.1406
     26 H10         6.1711   -5.2501    0.3861 H         1 <0>         0.1342
@<TRIPOS>BOND
     1    1    6 ar
     2    1    2 ar
     3    1   17 1
     4    2    3 ar
     5    2   18 1
     6    3    4 ar
     7    3   19 1
     8    4    5 ar
     9    4    7 1
    10    5    6 ar
    11    5   20 1
    12    6   21 1
    13    7    8 1
    14    7   22 1
    15    8   16 1
    16    8    9 2
    17    9   10 1
    18   10   15 ar
    19   10   11 ar
    20   11   12 ar
    21   11   23 1
    22   12   13 ar
    23   12   24 1
    24   13   14 ar
    25   13   25 1
    26   14   15 ar
    27   14   26 1
    28   15   16 1
@<TRIPOS>MOLECULE
ZINC32686273
   32    34     0     0     0
SMALL
USER_CHARGES
N-(4-ethylphenyl)-1,3-benzoxazol-2-amine
@<TRIPOS>ATOM
      1 C1         -0.7382    1.7249   -1.2549 C.3       1 <0>        -0.1494
      2 C2         -0.0760    1.0916   -0.0296 C.3       1 <0>        -0.0860
      3 C3         -0.7645    1.5761    1.2202 C.ar      1 <0>        -0.0986
      4 C4         -0.3125    2.7162    1.8591 C.ar      1 <0>        -0.0881
      5 C5         -0.9442    3.1656    3.0021 C.ar      1 <0>        -0.1413
      6 C6         -2.0285    2.4654    3.5154 C.ar      1 <0>         0.1533
      7 C7         -2.4767    1.3176    2.8742 C.ar      1 <0>        -0.1434
      8 C8         -1.8434    0.8764    1.7289 C.ar      1 <0>        -0.0858
      9 N1         -2.6670    2.9146    4.6753 N.pl3     1 <0>        -0.6270
     10 C9         -3.2596    2.0106    5.5297 C.2       1 <0>         0.5015
     11 N2         -3.9738    2.3278    6.5792 N.2       1 <0>        -0.5305
     12 C10        -4.3965    1.1829    7.1817 C.ar      1 <0>         0.0585
     13 C11        -5.1717    0.9181    8.3117 C.ar      1 <0>        -0.0782
     14 C12        -5.4311   -0.3860    8.6721 C.ar      1 <0>        -0.1089
     15 C13        -4.9271   -1.4353    7.9189 C.ar      1 <0>        -0.1088
     16 C14        -4.1586   -1.1874    6.7995 C.ar      1 <0>        -0.0814
     17 C15        -3.8882    0.1181    6.4228 C.ar      1 <0>        -0.0096
     18 O1         -3.1933    0.6734    5.4034 O.3       1 <0>        -0.2247
     19 H1         -0.2356    1.3712   -2.1672 H         1 <0>         0.0594
     20 H2         -0.6552    2.8199   -1.1916 H         1 <0>         0.0564
     21 H3         -1.7999    1.4389   -1.2868 H         1 <0>         0.0560
     22 H4         -0.1590   -0.0034   -0.0929 H         1 <0>         0.0728
     23 H5          0.9857    1.3776    0.0023 H         1 <0>         0.0734
     24 H6          0.5330    3.2580    1.4616 H         1 <0>         0.1294
     25 H7         -0.5932    4.0583    3.4983 H         1 <0>         0.1305
     26 H8         -3.3192    0.7707    3.2709 H         1 <0>         0.1269
     27 H9         -2.1914   -0.0159    1.2299 H         1 <0>         0.1271
     28 H10        -2.6963    3.9898    4.9058 H         1 <0>         0.4706
     29 H11        -5.5670    1.7323    8.9009 H         1 <0>         0.1353
     30 H12        -6.0308   -0.5922    9.5462 H         1 <0>         0.1372
     31 H13        -5.1369   -2.4539    8.2104 H         1 <0>         0.1400
     32 H14        -3.7688   -2.0098    6.2181 H         1 <0>         0.1334
@<TRIPOS>BOND
     1    1    2 1
     2    1   19 1
     3    1   20 1
     4    1   21 1
     5    2    3 1
     6    2   22 1
     7    2   23 1
     8    3    8 ar
     9    3    4 ar
    10    4    5 ar
    11    4   24 1
    12    5    6 ar
    13    5   25 1
    14    6    7 ar
    15    6    9 1
    16    7    8 ar
    17    7   26 1
    18    8   27 1
    19    9   10 1
    20    9   28 1
    21   10   18 1
    22   10   11 2
    23   11   12 1
    24   12   17 ar
    25   12   13 ar
    26   13   14 ar
    27   13   29 1
    28   14   15 ar
    29   14   30 1
    30   15   16 ar
    31   15   31 1
    32   16   17 ar
    33   16   32 1
    34   17   18 1
@<TRIPOS>MOLECULE
ZINC33559155
   26    28     0     0     0
SMALL
USER_CHARGES
5-chloro-N-phenyl-1,3-benzoxazol-2-amine
@<TRIPOS>ATOM
      1 C1          7.9510   -2.8175    0.2247 C.ar      1 <0>        -0.1354
      2 C2          8.5293   -1.7160   -0.3793 C.ar      1 <0>        -0.0963
      3 C3          7.8280   -0.5299   -0.4721 C.ar      1 <0>        -0.1455
      4 C4          6.5405   -0.4440    0.0421 C.ar      1 <0>         0.1669
      5 C5          5.9648   -1.5505    0.6533 C.ar      1 <0>        -0.1250
      6 C6          6.6694   -2.7353    0.7377 C.ar      1 <0>        -0.0945
      7 N1          5.8278    0.7553   -0.0502 N.pl3     1 <0>        -0.6299
      8 C7          4.4534    0.7343   -0.1460 C.2       1 <0>         0.5051
      9 N2          3.7268   -0.3470   -0.2688 N.2       1 <0>        -0.5213
     10 C8          2.4158    0.0133   -0.3351 C.ar      1 <0>         0.0716
     11 C9          1.2252   -0.7031   -0.4654 C.ar      1 <0>        -0.0694
     12 C10         0.0229   -0.0296   -0.5032 C.ar      1 <0>        -0.0249
     13 C11        -0.0088    1.3546   -0.4125 C.ar      1 <0>        -0.1016
     14 C12         1.1619    2.0741   -0.2833 C.ar      1 <0>        -0.0644
     15 C13         2.3786    1.4127   -0.2438 C.ar      1 <0>        -0.0033
     16 O1          3.6630    1.8221   -0.1276 O.3       1 <0>        -0.2261
     17 Cl1        -1.4596   -0.9182   -0.6658 Cl        1 <0>        -0.0525
     18 H1          8.5017   -3.7438    0.2963 H         1 <0>         0.1250
     19 H2          9.5305   -1.7834   -0.7786 H         1 <0>         0.1287
     20 H3          8.2803    0.3301   -0.9436 H         1 <0>         0.1275
     21 H4          4.9657   -1.4857    1.0581 H         1 <0>         0.1393
     22 H5          6.2207   -3.5974    1.2088 H         1 <0>         0.1272
     23 H6          6.3643    1.7156   -0.0463 H         1 <0>         0.4560
     24 H7          1.2457   -1.7806   -0.5367 H         1 <0>         0.1465
     25 H8         -0.9557    1.8728   -0.4476 H         1 <0>         0.1512
     26 H9          1.1295    3.1513   -0.2135 H         1 <0>         0.1449
@<TRIPOS>BOND
     1    1    6 ar
     2    1    2 ar
     3    1   18 1
     4    2    3 ar
     5    2   19 1
     6    3    4 ar
     7    3   20 1
     8    4    5 ar
     9    4    7 1
    10    5    6 ar
    11    5   21 1
    12    6   22 1
    13    7    8 1
    14    7   23 1
    15    8   16 1
    16    8    9 2
    17    9   10 1
    18   10   15 ar
    19   10   11 ar
    20   11   12 ar
    21   11   24 1
    22   12   13 ar
    23   12   17 1
    24   13   14 ar
    25   13   25 1
    26   14   15 ar
    27   14   26 1
    28   15   16 1
@<TRIPOS>MOLECULE
ZINC00597557
   49    53     0     0     0
SMALL
USER_CHARGES
2-[1-methoxy-6-(2-naphthylmethoxy)indan-1-yl]thiazole
@<TRIPOS>ATOM
      1 C1          2.9278    3.0805    2.2657 C.3       1 <0>         0.0260
      2 O1          2.9504    4.1111    1.2761 O.3       1 <0>        -0.3642
      3 C2          2.5450    3.6777   -0.0238 C.3       1 <0>         0.2551
      4 C3          3.4079    2.4835   -0.4835 C.3       1 <0>        -0.1346
      5 C4          2.5727    1.2722   -0.0174 C.3       1 <0>        -0.0839
      6 C5          1.1425    1.7671    0.0184 C.ar      1 <0>        -0.1174
      7 C6          1.1267    3.1501    0.0147 C.ar      1 <0>        -0.0769
      8 C7         -0.0802    3.8263    0.0446 C.ar      1 <0>        -0.1091
      9 C8         -1.2733    3.1211    0.0783 C.ar      1 <0>         0.1300
     10 C9         -1.2551    1.7341    0.0753 C.ar      1 <0>        -0.1939
     11 C10        -0.0493    1.0623    0.0516 C.ar      1 <0>        -0.0669
     12 O2         -2.4577    3.7869    0.1081 O.3       1 <0>        -0.3064
     13 C11        -3.6466    2.9947    0.1418 C.3       1 <0>         0.1014
     14 C12        -4.8519    3.8988    0.1715 C.ar      1 <0>        -0.0933
     15 C13        -5.4332    4.3074   -1.0275 C.ar      1 <0>        -0.0964
     16 C14        -6.5226    5.1231   -1.0359 C.ar      1 <0>        -0.1061
     17 C15        -7.0719    5.5622    0.1809 C.ar      1 <0>        -0.0445
     18 C16        -8.1965    6.4045    0.2124 C.ar      1 <0>        -0.1088
     19 C17        -8.7012    6.8094    1.4097 C.ar      1 <0>        -0.1112
     20 C18        -8.1195    6.4012    2.6086 C.ar      1 <0>        -0.1168
     21 C19        -7.0301    5.5856    2.6169 C.ar      1 <0>        -0.1026
     22 C20        -6.4804    5.1472    1.4001 C.ar      1 <0>        -0.0564
     23 C21        -5.3598    4.2996    1.3688 C.ar      1 <0>        -0.0752
     24 C22         2.6543    4.8120   -1.0100 C.2       1 <0>         0.0952
     25 N1          2.4284    4.8051   -2.3034 N.2       1 <0>        -0.4958
     26 C23         2.5664    5.8941   -3.0305 C.2       1 <0>         0.0278
     27 C24         2.9630    7.0361   -2.4132 C.2       1 <0>        -0.2193
     28 S1          3.1186    6.4615   -0.7282 S.3       1 <0>         0.0838
     29 H1          1.9429    2.6138    2.2819 H         1 <0>         0.0527
     30 H2          3.6814    2.3302    2.0262 H         1 <0>         0.0529
     31 H3          3.1419    3.5112    3.2438 H         1 <0>         0.0937
     32 H4          4.3804    2.4960    0.0087 H         1 <0>         0.0941
     33 H5          3.5212    2.4819   -1.5676 H         1 <0>         0.0972
     34 H6          2.8883    0.9552    0.9766 H         1 <0>         0.0868
     35 H7          2.6708    0.4500   -0.7262 H         1 <0>         0.0857
     36 H8         -0.0927    4.9062    0.0413 H         1 <0>         0.1253
     37 H9         -2.1823    1.1808    0.0967 H         1 <0>         0.1331
     38 H10        -0.0354   -0.0176    0.0545 H         1 <0>         0.1288
     39 H11        -3.6878    2.3633   -0.7457 H         1 <0>         0.0735
     40 H12        -3.6404    2.3680    1.0336 H         1 <0>         0.0730
     41 H13        -5.0131    3.9714   -1.9640 H         1 <0>         0.1254
     42 H14        -6.9625    5.4316   -1.9728 H         1 <0>         0.1309
     43 H15        -8.6575    6.7291   -0.7088 H         1 <0>         0.1286
     44 H16        -9.5657    7.4563    1.4310 H         1 <0>         0.1249
     45 H17        -8.5397    6.7370    3.5452 H         1 <0>         0.1250
     46 H18        -6.5898    5.2774    3.5537 H         1 <0>         0.1283
     47 H19        -4.9018    3.9711    2.2901 H         1 <0>         0.1297
     48 H20         2.3732    5.8779   -4.0929 H         1 <0>         0.1718
     49 H21         3.1363    8.0190   -2.8258 H         1 <0>         0.1988
@<TRIPOS>BOND
     1    1    2 1
     2    1   29 1
     3    1   30 1
     4    1   31 1
     5    2    3 1
     6    3    7 1
     7    3    4 1
     8    3   24 1
     9    4    5 1
    10    4   32 1
    11    4   33 1
    12    5    6 1
    13    5   34 1
    14    5   35 1
    15    6   11 ar
    16    6    7 ar
    17    7    8 ar
    18    8    9 ar
    19    8   36 1
    20    9   10 ar
    21    9   12 1
    22   10   11 ar
    23   10   37 1
    24   11   38 1
    25   12   13 1
    26   13   14 1
    27   13   39 1
    28   13   40 1
    29   14   23 ar
    30   14   15 ar
    31   15   16 ar
    32   15   41 1
    33   16   17 ar
    34   16   42 1
    35   17   22 ar
    36   17   18 ar
    37   18   19 ar
    38   18   43 1
    39   19   20 ar
    40   19   44 1
    41   20   21 ar
    42   20   45 1
    43   21   22 ar
    44   21   46 1
    45   22   23 ar
    46   23   47 1
    47   24   28 1
    48   24   25 2
    49   25   26 1
    50   26   27 2
    51   26   48 1
    52   27   28 1
    53   27   49 1
@<TRIPOS>MOLECULE
ZINC03784103
   49    53     0     0     0
SMALL
USER_CHARGES
2-[1-methoxy-6-(2-naphthylmethoxy)indan-1-yl]thiazole
@<TRIPOS>ATOM
      1 C1          7.3797    2.4477   -5.2486 C.3       1 <0>         0.0085
      2 O1          8.1997    3.5589   -4.8815 O.3       1 <0>        -0.3493
      3 C2          7.4776    4.6485   -4.3041 C.3       1 <0>         0.2533
      4 C3          8.4496    5.7688   -3.8771 C.3       1 <0>        -0.0968
      5 C4          8.7388    5.4128   -2.4034 C.3       1 <0>        -0.0766
      6 C5          7.5199    4.6475   -1.9340 C.ar      1 <0>        -0.1062
      7 C6          6.7949    4.2081   -3.0268 C.ar      1 <0>        -0.0786
      8 C7          5.6325    3.4819   -2.8368 C.ar      1 <0>        -0.1182
      9 C8          5.1930    3.1934   -1.5539 C.ar      1 <0>         0.1284
     10 C9          5.9189    3.6398   -0.4595 C.ar      1 <0>        -0.1927
     11 C10         7.0812    4.3593   -0.6523 C.ar      1 <0>        -0.0672
     12 O2          4.0511    2.4801   -1.3692 O.3       1 <0>        -0.3074
     13 C11         3.6594    2.2207   -0.0196 C.3       1 <0>         0.1013
     14 C12         2.3803    1.4239   -0.0121 C.ar      1 <0>        -0.0933
     15 C13         1.1564    2.0906    0.0022 C.ar      1 <0>        -0.0964
     16 C14        -0.0170    1.4012    0.0097 C.ar      1 <0>        -0.1062
     17 C15         0.0021   -0.0041    0.0020 C.ar      1 <0>        -0.0445
     18 C16        -1.1888   -0.7503    0.0088 C.ar      1 <0>        -0.1089
     19 C17        -1.1315   -2.1100    0.0006 C.ar      1 <0>        -0.1112
     20 C18         0.0924   -2.7766   -0.0145 C.ar      1 <0>        -0.1167
     21 C19         1.2657   -2.0872   -0.0219 C.ar      1 <0>        -0.1027
     22 C20         1.2466   -0.6819   -0.0134 C.ar      1 <0>        -0.0566
     23 C21         2.4375    0.0642   -0.0204 C.ar      1 <0>        -0.0752
     24 C22         6.4628    5.1815   -5.2824 C.2       1 <0>         0.0617
     25 N1          5.6161    6.1740   -5.1339 N.2       1 <0>        -0.4897
     26 C23         4.7892    6.5214   -6.0977 C.2       1 <0>         0.0266
     27 C24         4.8195    5.8185   -7.2585 C.2       1 <0>        -0.2199
     28 S1          6.1082    4.6357   -6.8924 S.3       1 <0>         0.0621
     29 H1          6.8709    2.0638   -4.3643 H         1 <0>         0.0577
     30 H2          6.6404    2.7684   -5.9825 H         1 <0>         0.0500
     31 H3          8.0022    1.6632   -5.6789 H         1 <0>         0.1005
     32 H4          7.9723    6.7457   -3.9532 H         1 <0>         0.0980
     33 H5          9.3635    5.7356   -4.4702 H         1 <0>         0.0977
     34 H6          8.8661    6.3202   -1.8131 H         1 <0>         0.0850
     35 H7          9.6288    4.7875   -2.3314 H         1 <0>         0.0894
     36 H8          5.0663    3.1387   -3.6900 H         1 <0>         0.1224
     37 H9          5.5777    3.4212    0.5416 H         1 <0>         0.1331
     38 H10         7.6485    4.7029    0.2001 H         1 <0>         0.1296
     39 H11         3.5022    3.1653    0.5011 H         1 <0>         0.0737
     40 H12         4.4431    1.6544    0.4837 H         1 <0>         0.0732
     41 H13         1.1389    3.1704    0.0082 H         1 <0>         0.1254
     42 H14        -0.9579    1.9313    0.0171 H         1 <0>         0.1308
     43 H15        -2.1445   -0.2473    0.0202 H         1 <0>         0.1286
     44 H16        -2.0482   -2.6810    0.0055 H         1 <0>         0.1250
     45 H17         0.1099   -3.8564   -0.0207 H         1 <0>         0.1250
     46 H18         2.2067   -2.6171   -0.0336 H         1 <0>         0.1283
     47 H19         3.3931   -0.4388   -0.0325 H         1 <0>         0.1297
     48 H20         4.1002    7.3427   -5.9662 H         1 <0>         0.1710
     49 H21         4.2289    5.9401   -8.1545 H         1 <0>         0.1977
@<TRIPOS>BOND
     1    1    2 1
     2    1   29 1
     3    1   30 1
     4    1   31 1
     5    2    3 1
     6    3    7 1
     7    3    4 1
     8    3   24 1
     9    4    5 1
    10    4   32 1
    11    4   33 1
    12    5    6 1
    13    5   34 1
    14    5   35 1
    15    6   11 ar
    16    6    7 ar
    17    7    8 ar
    18    8    9 ar
    19    8   36 1
    20    9   10 ar
    21    9   12 1
    22   10   11 ar
    23   10   37 1
    24   11   38 1
    25   12   13 1
    26   13   14 1
    27   13   39 1
    28   13   40 1
    29   14   23 ar
    30   14   15 ar
    31   15   16 ar
    32   15   41 1
    33   16   17 ar
    34   16   42 1
    35   17   22 ar
    36   17   18 ar
    37   18   19 ar
    38   18   43 1
    39   19   20 ar
    40   19   44 1
    41   20   21 ar
    42   20   45 1
    43   21   22 ar
    44   21   46 1
    45   22   23 ar
    46   23   47 1
    47   24   28 1
    48   24   25 2
    49   25   26 1
    50   26   27 2
    51   26   48 1
    52   27   28 1
    53   27   49 1
@<TRIPOS>MOLECULE
ZINC04091593
   27    28     0     0     0
SMALL
USER_CHARGES

@<TRIPOS>ATOM
      1 C1         -0.0167    1.3800    0.0096 C.ar      1 <0>        -0.1034
      2 C2          1.1681    2.0959    0.0022 C.ar      1 <0>        -0.1251
      3 C3          2.3775    1.4342   -0.0133 C.ar      1 <0>        -0.0911
      4 C4          2.4052    0.0353   -0.0211 C.ar      1 <0>        -0.0875
      5 C5          1.2031   -0.6808   -0.0130 C.ar      1 <0>        -0.0937
      6 C6          0.0021   -0.0041    0.0020 C.ar      1 <0>        -0.1242
      7 C7          3.6908   -0.6786   -0.0381 C.2       1 <0>        -0.0009
      8 C8          3.7134   -2.0301   -0.0455 C.2       1 <0>        -0.2325
      9 C9          4.9534   -2.7186   -0.0620 C.2       1 <0>         0.4414
     10 O1          5.9969   -2.0926   -0.0694 O.2       1 <0>        -0.4547
     11 C10         4.9781   -4.2002   -0.0701 C.ar      1 <0>         0.0520
     12 C11         6.1999   -4.8710   -0.0805 C.ar      1 <0>        -0.1163
     13 C12         6.2068   -6.2564   -0.0880 C.ar      1 <0>        -0.0842
     14 C13         4.9916   -6.9240   -0.0849 C.ar      1 <0>        -0.1458
     15 C14         3.8148   -6.1928   -0.0744 C.ar      1 <0>         0.0949
     16 N1          3.8367   -4.8776   -0.0620 N.ar      1 <0>        -0.4467
     17 H1         -0.9608    1.9042    0.0260 H         1 <0>         0.1256
     18 H2          1.1449    3.1756    0.0081 H         1 <0>         0.1274
     19 H3          3.3010    1.9941   -0.0199 H         1 <0>         0.1288
     20 H4          1.2161   -1.7607   -0.0189 H         1 <0>         0.1317
     21 H5         -0.9266   -0.5553    0.0082 H         1 <0>         0.1275
     22 H6          4.6169   -0.1230   -0.0447 H         1 <0>         0.1359
     23 H7          2.7873   -2.5857   -0.0390 H         1 <0>         0.1446
     24 H8          7.1279   -4.3186   -0.0830 H         1 <0>         0.1465
     25 H9          7.1377   -6.8039   -0.0965 H         1 <0>         0.1428
     26 H10         4.9626   -8.0036   -0.0909 H         1 <0>         0.1423
     27 H11         2.8665   -6.7097   -0.0723 H         1 <0>         0.1647
@<TRIPOS>BOND
     1    1    6 ar
     2    1    2 ar
     3    1   17 1
     4    2    3 ar
     5    2   18 1
     6    3    4 ar
     7    3   19 1
     8    4    5 ar
     9    4    7 1
    10    5    6 ar
    11    5   20 1
    12    6   21 1
    13    7    8 2
    14    7   22 1
    15    8    9 1
    16    8   23 1
    17    9   10 2
    18    9   11 1
    19   11   16 ar
    20   11   12 ar
    21   12   13 ar
    22   12   24 1
    23   13   14 ar
    24   13   25 1
    25   14   15 ar
    26   14   26 1
    27   15   16 ar
    28   15   27 1
@<TRIPOS>MOLECULE
ZINC01529186
   50    50     0     0     0
SMALL
USER_CHARGES
2-(12-hydroxydodeca-5,10-diynyl)-3,5,6-trimethyl-cyclohexa-2,5-diene-1,4-dione
@<TRIPOS>ATOM
      1 C1          1.4677    1.5669    2.3919 C.3       1 <0>        -0.1195
      2 C2         -0.0212    1.7985    2.3699 C.2       1 <0>        -0.1257
      3 C3         -0.7181    1.5718    1.2479 C.2       1 <0>        -0.1245
      4 C4         -2.1766    1.8042    1.2247 C.2       1 <0>         0.4092
      5 O1         -2.8074    1.6032    0.2066 O.2       1 <0>        -0.4119
      6 C5         -2.8688    2.2756    2.4415 C.2       1 <0>        -0.1225
      7 C6         -2.1720    2.5019    3.5636 C.2       1 <0>        -0.1188
      8 C7         -0.7126    2.2749    3.5852 C.2       1 <0>         0.4088
      9 O2         -0.0812    2.4795    4.6022 O.2       1 <0>        -0.4133
     10 C8         -2.8774    2.9874    4.8036 C.3       1 <0>        -0.1211
     11 C9         -4.3577    2.5072    2.4195 C.3       1 <0>        -0.0834
     12 C10        -4.6478    3.9101    1.8822 C.3       1 <0>        -0.1136
     13 C11        -6.1594    4.1453    1.8598 C.3       1 <0>        -0.1133
     14 C12        -6.4494    5.5481    1.3225 C.3       1 <0>        -0.0068
     15 C13        -7.9038    5.7744    1.3010 C.1       1 <0>        -0.1832
     16 C14        -9.0637    5.9548    1.2839 C.1       1 <0>        -0.1875
     17 C15       -10.5181    6.1810    1.2624 C.3       1 <0>        -0.0054
     18 C16       -11.0751    6.0532    2.6817 C.3       1 <0>        -0.1096
     19 C17       -12.5868    6.2883    2.6593 C.3       1 <0>        -0.0095
     20 C18       -13.1227    6.1654    4.0248 C.1       1 <0>        -0.1522
     21 C19       -13.5501    6.0673    5.1138 C.1       1 <0>        -0.1964
     22 C20       -14.0861    5.9443    6.4792 C.3       1 <0>         0.1926
     23 O3        -15.4979    6.1639    6.4584 O.3       1 <0>        -0.5684
     24 C21        -0.0127    1.0858    0.0080 C.3       1 <0>        -0.1196
     25 H1          1.9823    2.4836    2.1041 H         1 <0>         0.0846
     26 H2          1.7756    1.2775    3.3967 H         1 <0>         0.0810
     27 H3          1.7222    0.7719    1.6909 H         1 <0>         0.0811
     28 H4         -2.1528    3.1133    5.6081 H         1 <0>         0.0812
     29 H5         -3.3601    3.9426    4.5966 H         1 <0>         0.0837
     30 H6         -3.6296    2.2576    5.1030 H         1 <0>         0.0841
     31 H7         -4.8312    1.7664    1.7752 H         1 <0>         0.0865
     32 H8         -4.7546    2.4162    3.4306 H         1 <0>         0.0868
     33 H9         -4.1743    4.6510    2.5264 H         1 <0>         0.0677
     34 H10        -4.2509    4.0012    0.8711 H         1 <0>         0.0697
     35 H11        -6.6329    3.4044    1.2156 H         1 <0>         0.0694
     36 H12        -6.5563    4.0542    2.8709 H         1 <0>         0.0684
     37 H13        -5.9760    6.2890    1.9668 H         1 <0>         0.0856
     38 H14        -6.0526    5.6392    0.3114 H         1 <0>         0.0861
     39 H15       -10.7247    7.1804    0.8796 H         1 <0>         0.0885
     40 H16       -10.9915    5.4401    0.6182 H         1 <0>         0.0884
     41 H17       -10.8685    5.0538    3.0644 H         1 <0>         0.0711
     42 H18       -10.6017    6.7941    3.3259 H         1 <0>         0.0710
     43 H19       -12.7934    7.2878    2.2765 H         1 <0>         0.0912
     44 H20       -13.0602    5.5475    2.0151 H         1 <0>         0.0913
     45 H21       -13.8794    4.9449    6.8620 H         1 <0>         0.0714
     46 H22       -13.6126    6.6852    7.1235 H         1 <0>         0.0714
     47 H23       -15.9191    6.0981    7.3264 H         1 <0>         0.3885
     48 H24         0.0021   -0.0041    0.0020 H         1 <0>         0.0846
     49 H25         1.0099    1.4631    0.0003 H         1 <0>         0.0811
     50 H26        -0.5399    1.4469   -0.8751 H         1 <0>         0.0812
@<TRIPOS>BOND
     1    1    2 1
     2    1   25 1
     3    1   26 1
     4    1   27 1
     5    2    8 1
     6    2    3 2
     7    3    4 1
     8    3   24 1
     9    4    5 2
    10    4    6 1
    11    6    7 2
    12    6   11 1
    13    7    8 1
    14    7   10 1
    15    8    9 2
    16   10   28 1
    17   10   29 1
    18   10   30 1
    19   11   12 1
    20   11   31 1
    21   11   32 1
    22   12   13 1
    23   12   33 1
    24   12   34 1
    25   13   14 1
    26   13   35 1
    27   13   36 1
    28   14   15 1
    29   14   37 1
    30   14   38 1
    31   15   16 3
    32   16   17 1
    33   17   18 1
    34   17   39 1
    35   17   40 1
    36   18   19 1
    37   18   41 1
    38   18   42 1
    39   19   20 1
    40   19   43 1
    41   19   44 1
    42   20   21 3
    43   21   22 1
    44   22   23 1
    45   22   45 1
    46   22   46 1
    47   23   47 1
    48   24   48 1
    49   24   49 1
    50   24   50 1
@<TRIPOS>MOLECULE
ZINC17222026
   22    23     0     0     0
SMALL
USER_CHARGES
(E)-1-(2-thienyl)-3-(3-thienyl)prop-2-en-1-one
@<TRIPOS>ATOM
      1 C1          8.8122    3.9092   -0.0604 C.2       1 <0>        -0.1801
      2 C2          8.2116    2.6747   -0.0607 C.2       1 <0>        -0.0771
      3 C3          6.8254    2.6472   -0.0480 C.2       1 <0>        -0.2562
      4 S1          6.4244    4.3856   -0.0433 S.3       1 <0>         0.1515
      5 C4          8.0360    5.0246   -0.0479 C.2       1 <0>        -0.1843
      6 C5          5.9231    1.4897   -0.0456 C.2       1 <0>         0.4696
      7 O1          6.3811    0.3594   -0.0556 O.2       1 <0>        -0.4582
      8 C6          4.5191    1.6854   -0.0316 C.2       1 <0>        -0.2505
      9 C7          3.6871    0.6181   -0.0294 C.2       1 <0>         0.0323
     10 C8          2.2346    0.8206   -0.0149 C.2       1 <0>        -0.1348
     11 C9          1.3178   -0.2930   -0.0121 C.2       1 <0>        -0.1338
     12 C10         0.0021   -0.0041    0.0020 C.2       1 <0>        -0.1892
     13 S2         -0.0221    1.7767    0.0118 S.3       1 <0>         0.1192
     14 C11         1.6813    2.0877   -0.0028 C.2       1 <0>        -0.1787
     15 H1          9.8889    3.9930   -0.0703 H         1 <0>         0.1402
     16 H2          8.7934    1.7649   -0.0700 H         1 <0>         0.1462
     17 H3          8.3475    6.0587   -0.0462 H         1 <0>         0.1911
     18 H4          4.1135    2.6863   -0.0227 H         1 <0>         0.1288
     19 H5          4.0927   -0.3828   -0.0382 H         1 <0>         0.1384
     20 H6          1.6706   -1.3137   -0.0206 H         1 <0>         0.1452
     21 H7         -0.8349   -0.6866    0.0058 H         1 <0>         0.1899
     22 H8          2.1888    3.0410   -0.0025 H         1 <0>         0.1907
@<TRIPOS>BOND
     1    1    5 2
     2    1    2 1
     3    1   15 1
     4    2    3 2
     5    2   16 1
     6    3    4 1
     7    3    6 1
     8    4    5 1
     9    5   17 1
    10    6    7 2
    11    6    8 1
    12    8    9 2
    13    8   18 1
    14    9   10 1
    15    9   19 1
    16   10   14 2
    17   10   11 1
    18   11   12 2
    19   11   20 1
    20   12   13 1
    21   12   21 1
    22   13   14 1
    23   14   22 1
@<TRIPOS>MOLECULE
ZINC04276954
   25    26     0     0     0
SMALL
USER_CHARGES
1-phenyl-3-(2-thienyl)prop-2-en-1-one
@<TRIPOS>ATOM
      1 C1          6.9430    7.2879   -0.0248 C.ar      1 <0>        -0.0904
      2 C2          6.0642    8.3567   -0.0107 C.ar      1 <0>        -0.1319
      3 C3          4.7028    8.1340    0.0010 C.ar      1 <0>        -0.0636
      4 C4          4.2125    6.8272   -0.0015 C.ar      1 <0>        -0.1615
      5 C5          5.1043    5.7536   -0.0099 C.ar      1 <0>        -0.0760
      6 C6          6.4634    5.9900   -0.0268 C.ar      1 <0>        -0.1325
      7 C7          2.7534    6.5811    0.0109 C.2       1 <0>         0.4264
      8 O1          1.9772    7.5202    0.0233 O.2       1 <0>        -0.4637
      9 C8          2.2608    5.2583    0.0084 C.2       1 <0>        -0.2473
     10 C9          0.9199    5.0320    0.0198 C.2       1 <0>         0.0472
     11 C10         0.4267    3.7075    0.0172 C.2       1 <0>        -0.1818
     12 C11        -0.8919    3.2622    0.0272 C.2       1 <0>        -0.1054
     13 C12        -1.0905    1.9055    0.0167 C.2       1 <0>        -0.1735
     14 C13        -0.0126    1.0758    0.0080 C.2       1 <0>        -0.1911
     15 S1          1.3319    2.1702    0.0010 S.3       1 <0>         0.1398
     16 H1          8.0079    7.4676   -0.0338 H         1 <0>         0.1276
     17 H2          6.4449    9.3673   -0.0084 H         1 <0>         0.1294
     18 H3          4.0180    8.9691    0.0123 H         1 <0>         0.1339
     19 H4          4.7313    4.7401   -0.0070 H         1 <0>         0.1306
     20 H5          7.1545    5.1602   -0.0375 H         1 <0>         0.1295
     21 H6          2.9488    4.4258   -0.0026 H         1 <0>         0.1307
     22 H7          0.2319    5.8645    0.0307 H         1 <0>         0.1503
     23 H8         -1.7212    3.9540    0.0385 H         1 <0>         0.1448
     24 H9         -2.0915    1.5001    0.0187 H         1 <0>         0.1388
     25 H10         0.0021   -0.0041    0.0020 H         1 <0>         0.1896
@<TRIPOS>BOND
     1    1    6 ar
     2    1    2 ar
     3    1   16 1
     4    2    3 ar
     5    2   17 1
     6    3    4 ar
     7    3   18 1
     8    4    5 ar
     9    4    7 1
    10    5    6 ar
    11    5   19 1
    12    6   20 1
    13    7    8 2
    14    7    9 1
    15    9   10 2
    16    9   21 1
    17   10   11 1
    18   10   22 1
    19   11   15 1
    20   11   12 2
    21   12   13 1
    22   12   23 1
    23   13   14 2
    24   13   24 1
    25   14   15 1
    26   14   25 1
@<TRIPOS>MOLECULE
ZINC25664385
   24    25     0     0     0
SMALL
USER_CHARGES
(E)-1-(2-pyridyl)-3-(2-thienyl)prop-2-en-1-one
@<TRIPOS>ATOM
      1 C1         -6.1002    1.7137    0.0408 C.ar      1 <0>        -0.0843
      2 C2         -6.0664    3.1000    0.0481 C.ar      1 <0>        -0.1461
      3 C3         -4.8431    3.7496    0.0454 C.ar      1 <0>         0.0950
      4 N1         -3.7169    3.0694    0.0364 N.ar      1 <0>        -0.4467
      5 C4         -3.7052    1.7422    0.0291 C.ar      1 <0>         0.0529
      6 C5         -4.8992    1.0234    0.0251 C.ar      1 <0>        -0.1163
      7 C6         -2.4118    1.0188    0.0190 C.2       1 <0>         0.4429
      8 O1         -2.3953   -0.1994    0.0123 O.2       1 <0>        -0.4566
      9 C7         -1.2004    1.7403    0.0172 C.2       1 <0>        -0.2364
     10 C8         -0.0126    1.0758    0.0080 C.2       1 <0>         0.0401
     11 C9          1.2010    1.7987    0.0003 C.2       1 <0>        -0.1801
     12 C10         2.5082    1.3193   -0.0148 C.2       1 <0>        -0.1079
     13 C11         3.5125    2.2522   -0.0202 C.2       1 <0>        -0.1741
     14 C12         3.1922    3.5746   -0.0107 C.2       1 <0>        -0.1956
     15 S1          1.4587    3.5641   -0.0007 S.3       1 <0>         0.1495
     16 H1         -7.0415    1.1842    0.0423 H         1 <0>         0.1426
     17 H2         -6.9852    3.6677    0.0563 H         1 <0>         0.1420
     18 H3         -4.8133    4.8291    0.0511 H         1 <0>         0.1646
     19 H4         -4.8883   -0.0565    0.0144 H         1 <0>         0.1466
     20 H5         -1.2153    2.8402    0.0232 H         1 <0>         0.1447
     21 H6          0.0023   -0.0241    0.0066 H         1 <0>         0.1527
     22 H7          2.7212    0.2606   -0.0216 H         1 <0>         0.1440
     23 H8          4.5467    1.9411   -0.0321 H         1 <0>         0.1376
     24 H9          3.8573    4.4254   -0.0135 H         1 <0>         0.1888
@<TRIPOS>BOND
     1    1    6 ar
     2    1    2 ar
     3    1   16 1
     4    2    3 ar
     5    2   17 1
     6    3    4 ar
     7    3   18 1
     8    4    5 ar
     9    5    6 ar
    10    5    7 1
    11    6   19 1
    12    7    8 2
    13    7    9 1
    14    9   10 2
    15    9   20 1
    16   10   11 1
    17   10   21 1
    18   11   15 1
    19   11   12 2
    20   12   13 1
    21   12   22 1
    22   13   14 2
    23   13   23 1
    24   14   15 1
    25   14   24 1
@<TRIPOS>MOLECULE
ZINC06338807
   24    25     0     0     0
SMALL
USER_CHARGES
(E)-1-(3-pyridyl)-3-(3-thienyl)prop-2-en-1-one
@<TRIPOS>ATOM
      1 C1          9.0254    3.6011   -0.0634 C.ar      1 <0>        -0.1821
      2 C2          8.2181    2.4770   -0.0618 C.ar      1 <0>        -0.0211
      3 C3          6.8300    2.6571   -0.0480 C.ar      1 <0>        -0.2135
      4 C4          6.3188    3.9558   -0.0424 C.ar      1 <0>         0.1441
      5 N1          7.1286    4.9941   -0.0387 N.ar      1 <0>        -0.4911
      6 C5          8.4407    4.8545   -0.0515 C.ar      1 <0>         0.1247
      7 C6          5.9200    1.4904   -0.0456 C.2       1 <0>         0.4327
      8 O1          6.3772    0.3615   -0.0556 O.2       1 <0>        -0.4630
      9 C7          4.5199    1.6860   -0.0316 C.2       1 <0>        -0.2572
     10 C8          3.6862    0.6171   -0.0294 C.2       1 <0>         0.0342
     11 C9          2.2350    0.8198   -0.0149 C.2       1 <0>        -0.1362
     12 C10         1.3173   -0.2935   -0.0121 C.2       1 <0>        -0.1341
     13 C11         0.0021   -0.0041    0.0020 C.2       1 <0>        -0.1893
     14 S1         -0.0221    1.7767    0.0118 S.3       1 <0>         0.1211
     15 C12         1.6812    2.0880   -0.0028 C.2       1 <0>        -0.1786
     16 H1         10.1006    3.5006   -0.0742 H         1 <0>         0.1435
     17 H2          8.6480    1.4863   -0.0712 H         1 <0>         0.1456
     18 H3          5.2500    4.1104   -0.0366 H         1 <0>         0.1630
     19 H4          9.0683    5.7335   -0.0524 H         1 <0>         0.1626
     20 H5          4.1146    2.6870   -0.0227 H         1 <0>         0.1314
     21 H6          4.0915   -0.3839   -0.0382 H         1 <0>         0.1372
     22 H7          1.6696   -1.3143   -0.0206 H         1 <0>         0.1449
     23 H8         -0.8350   -0.6864    0.0063 H         1 <0>         0.1899
     24 H9          2.1887    3.0413   -0.0030 H         1 <0>         0.1912
@<TRIPOS>BOND
     1    1    6 ar
     2    1    2 ar
     3    1   16 1
     4    2    3 ar
     5    2   17 1
     6    3    4 ar
     7    3    7 1
     8    4    5 ar
     9    4   18 1
    10    5    6 ar
    11    6   19 1
    12    7    8 2
    13    7    9 1
    14    9   10 2
    15    9   20 1
    16   10   11 1
    17   10   21 1
    18   11   15 2
    19   11   12 1
    20   12   13 2
    21   12   22 1
    22   13   14 1
    23   13   23 1
    24   14   15 1
    25   15   24 1
@<TRIPOS>MOLECULE
ZINC26571692
   27    28     0     0     0
SMALL
USER_CHARGES
(E)-3-(3-methyl-2-thienyl)-1-(2-pyridyl)prop-2-en-1-one
@<TRIPOS>ATOM
      1 C1          8.9720   -1.5367   -0.0887 C.3       1 <0>        -0.1082
      2 C2          8.6191   -0.0717   -0.0793 C.2       1 <0>        -0.0710
      3 C3          9.5873    0.8986   -0.0842 C.2       1 <0>        -0.1720
      4 C4          9.2170    2.2079   -0.0748 C.2       1 <0>        -0.1917
      5 S1          7.4852    2.1317   -0.0655 S.3       1 <0>         0.1464
      6 C5          7.2946    0.3578   -0.0647 C.2       1 <0>        -0.1869
      7 C6          6.1093   -0.4106   -0.0575 C.2       1 <0>         0.0440
      8 C7          4.8972    0.2083   -0.0431 C.2       1 <0>        -0.2400
      9 C8          3.7140   -0.5586   -0.0359 C.2       1 <0>         0.4431
     10 O1          3.7767   -1.7752   -0.0426 O.2       1 <0>        -0.4579
     11 C9          2.3942    0.1153   -0.0202 C.ar      1 <0>         0.0533
     12 C10         1.2283   -0.6483   -0.0132 C.ar      1 <0>        -0.1166
     13 C11         0.0021   -0.0041    0.0020 C.ar      1 <0>        -0.0844
     14 C12        -0.0167    1.3825    0.0096 C.ar      1 <0>        -0.1464
     15 C13         1.1811    2.0780    0.0019 C.ar      1 <0>         0.0949
     16 N1          2.3322    1.4411   -0.0125 N.ar      1 <0>        -0.4466
     17 H1         10.0661   -1.6502   -0.0998 H         1 <0>         0.0708
     18 H2          8.5450   -2.0109   -0.9847 H         1 <0>         0.0761
     19 H3          8.5625   -2.0183    0.8115 H         1 <0>         0.0761
     20 H4         10.6325    0.6269   -0.0950 H         1 <0>         0.1373
     21 H5          9.8495    3.0833   -0.0769 H         1 <0>         0.1891
     22 H6          6.1659   -1.5091   -0.0635 H         1 <0>         0.1510
     23 H7          4.8406    1.3068   -0.0371 H         1 <0>         0.1440
     24 H8          1.2802   -1.7271   -0.0198 H         1 <0>         0.1465
     25 H9         -0.9185   -0.5689    0.0074 H         1 <0>         0.1425
     26 H10        -0.9563    1.9150    0.0170 H         1 <0>         0.1419
     27 H11         1.1699    3.1580    0.0075 H         1 <0>         0.1644
@<TRIPOS>BOND
     1    1    2 1
     2    1   17 1
     3    1   18 1
     4    1   19 1
     5    2    6 2
     6    2    3 1
     7    3    4 2
     8    3   20 1
     9    4    5 1
    10    4   21 1
    11    5    6 1
    12    6    7 1
    13    7    8 2
    14    7   22 1
    15    8    9 1
    16    8   23 1
    17    9   10 2
    18    9   11 1
    19   11   16 ar
    20   11   12 ar
    21   12   13 ar
    22   12   24 1
    23   13   14 ar
    24   13   25 1
    25   14   15 ar
    26   14   26 1
    27   15   16 ar
    28   15   27 1
@<TRIPOS>MOLECULE
ZINC26572318
   22    23     0     0     0
SMALL
USER_CHARGES
(E)-1-(5-chloro-2-thienyl)-3-(2-furyl)prop-2-en-1-one
@<TRIPOS>ATOM
      1 C1         -3.4262    2.2464    0.0308 C.2       1 <0>        -0.2214
      2 C2         -2.5021    1.1908    0.0149 C.2       1 <0>        -0.1467
      3 C3         -1.2480    1.7669    0.0176 C.2       1 <0>        -0.0277
      4 O1         -1.4097    3.1065    0.0252 O.3       1 <0>        -0.1640
      5 C4         -2.7180    3.3978    0.0331 C.2       1 <0>        -0.0064
      6 C5         -0.0126    1.0758    0.0080 C.2       1 <0>         0.0329
      7 C6          1.1532    1.7702    0.0006 C.2       1 <0>        -0.2422
      8 C7          2.3895    1.0786   -0.0150 C.2       1 <0>         0.4707
      9 O2          2.4060   -0.1412   -0.0217 O.2       1 <0>        -0.4508
     10 C8          3.6495    1.8292   -0.0230 C.2       1 <0>        -0.2500
     11 C9          4.9516    1.3511   -0.0323 C.2       1 <0>        -0.0687
     12 C10         5.9593    2.2826   -0.0421 C.2       1 <0>        -0.1626
     13 C11         5.6401    3.6056   -0.0316 C.2       1 <0>        -0.1351
     14 S1          3.9066    3.5946   -0.0153 S.3       1 <0>         0.2099
     15 Cl1         6.7097    4.9729   -0.0343 Cl        1 <0>         0.0265
     16 H1         -4.5024    2.1560    0.0362 H         1 <0>         0.1571
     17 H2         -2.7279    0.1347    0.0046 H         1 <0>         0.1597
     18 H3         -3.1387    4.3925    0.0402 H         1 <0>         0.2102
     19 H4          0.0024   -0.0241    0.0065 H         1 <0>         0.1671
     20 H5          1.1383    2.8701    0.0067 H         1 <0>         0.1370
     21 H6          5.1631    0.2920   -0.0349 H         1 <0>         0.1554
     22 H7          6.9929    1.9696   -0.0532 H         1 <0>         0.1490
@<TRIPOS>BOND
     1    1    5 2
     2    1    2 1
     3    1   16 1
     4    2    3 2
     5    2   17 1
     6    3    4 1
     7    3    6 1
     8    4    5 1
     9    5   18 1
    10    6    7 2
    11    6   19 1
    12    7    8 1
    13    7   20 1
    14    8    9 2
    15    8   10 1
    16   10   14 1
    17   10   11 2
    18   11   12 1
    19   11   21 1
    20   12   13 2
    21   12   22 1
    22   13   14 1
    23   13   15 1
@<TRIPOS>MOLECULE
ZINC03864891
   22    23     0     0     0
SMALL
USER_CHARGES
1,3-bis(2-thienyl)prop-2-en-1-one
@<TRIPOS>ATOM
      1 C1         -1.0898    1.9051    0.0167 C.2       1 <0>        -0.1745
      2 C2         -0.8909    3.2626    0.0281 C.2       1 <0>        -0.1030
      3 C3          0.4266    3.7075    0.0179 C.2       1 <0>        -0.1843
      4 S1          1.3318    2.1702    0.0010 S.3       1 <0>         0.1420
      5 C4         -0.0126    1.0758    0.0080 C.2       1 <0>        -0.1898
      6 C5          0.9205    5.0337    0.0203 C.2       1 <0>         0.0531
      7 C6          2.2589    5.2595    0.0082 C.2       1 <0>        -0.2462
      8 C7          2.7530    6.5862    0.0107 C.2       1 <0>         0.4706
      9 O1          1.9759    7.5264    0.0236 O.2       1 <0>        -0.4565
     10 C8          4.2004    6.8304   -0.0024 C.2       1 <0>        -0.2577
     11 C9          4.8831    8.0371   -0.0025 C.2       1 <0>        -0.0759
     12 C10         6.2548    7.9791   -0.0165 C.2       1 <0>        -0.1807
     13 C11         6.8674    6.7662   -0.0293 C.2       1 <0>        -0.1840
     14 S2          5.5396    5.6517   -0.0144 S.3       1 <0>         0.1541
     15 H1         -2.0909    1.4999    0.0184 H         1 <0>         0.1390
     16 H2         -1.7201    3.9545    0.0401 H         1 <0>         0.1453
     17 H3          0.0021   -0.0041    0.0020 H         1 <0>         0.1898
     18 H4          0.2325    5.8661    0.0318 H         1 <0>         0.1521
     19 H5          2.9469    4.4271   -0.0032 H         1 <0>         0.1289
     20 H6          4.3588    8.9813    0.0076 H         1 <0>         0.1464
     21 H7          6.8400    8.8868   -0.0170 H         1 <0>         0.1401
     22 H8          7.9252    6.5491   -0.0408 H         1 <0>         0.1911
@<TRIPOS>BOND
     1    1    5 2
     2    1    2 1
     3    1   15 1
     4    2    3 2
     5    2   16 1
     6    3    4 1
     7    3    6 1
     8    4    5 1
     9    5   17 1
    10    6    7 2
    11    6   18 1
    12    7    8 1
    13    7   19 1
    14    8    9 2
    15    8   10 1
    16   10   14 1
    17   10   11 2
    18   11   12 1
    19   11   20 1
    20   12   13 2
    21   12   21 1
    22   13   14 1
    23   13   22 1
