@<TRIPOS>MOLECULE
ZINC01210352
   41    44     0     0     0
SMALL
USER_CHARGES
2-[3-(4-nitrophenoxy)phenyl]-1,3-dioxo-isoindoline-5-carboxylic acid
@<TRIPOS>ATOM
      1 C1          3.9598   -0.0873    1.0010 C.ar      1 <0>        -0.0575
      2 C2          2.6559    0.3624    0.9190 C.ar      1 <0>        -0.1652
      3 C3          2.3933    1.6619    0.5061 C.ar      1 <0>         0.1770
      4 C4          3.4424    2.5118    0.1859 C.ar      1 <0>        -0.1639
      5 C5          4.7495    2.0590    0.2744 C.ar      1 <0>         0.1363
      6 C6          5.0059    0.7572    0.6827 C.ar      1 <0>        -0.2065
      7 O1          5.7792    2.8889   -0.0380 O.3       1 <0>        -0.2539
      8 C7          7.0433    2.3987    0.0516 C.ar      1 <0>         0.1464
      9 C8          7.7501    2.5120    1.2403 C.ar      1 <0>        -0.1258
     10 C9          9.0331    2.0081    1.3303 C.ar      1 <0>        -0.0387
     11 C10         9.6170    1.4005    0.2340 C.ar      1 <0>        -0.0480
     12 C11         8.9170    1.2913   -0.9534 C.ar      1 <0>        -0.0386
     13 C12         7.6318    1.7889   -1.0471 C.ar      1 <0>        -0.1258
     14 N1         10.9941    0.8665    0.3317 N.pl3     1 <0>         0.0280
     15 O2         11.5097    0.3314   -0.6335 O.2       1 <0>        -0.1560
     16 O3         11.6117    0.9621    1.3771 O.3       1 <0>        -0.1557
     17 N2          1.0705    2.1164    0.4183 N.am      1 <0>        -0.5241
     18 C13         0.7157    3.3557    0.0341 C.2       1 <0>         0.5820
     19 O4          1.4787    4.2442   -0.2864 O.2       1 <0>        -0.4565
     20 C14        -0.7611    3.4544    0.0671 C.ar      1 <0>        -0.1536
     21 C15        -1.6670    4.4635   -0.2186 C.ar      1 <0>        -0.0492
     22 C16        -3.0250    4.2305   -0.0838 C.ar      1 <0>        -0.0535
     23 C17        -3.4868    2.9837    0.3387 C.ar      1 <0>        -0.0832
     24 C18        -2.5794    1.9604    0.6294 C.ar      1 <0>        -0.0021
     25 C19        -1.2216    2.1898    0.4885 C.ar      1 <0>        -0.1614
     26 C20        -0.0109    1.3703    0.7065 C.2       1 <0>         0.5835
     27 O5          0.0046    0.2143    1.0787 O.2       1 <0>        -0.4514
     28 C21        -4.9394    2.7439    0.4798 C.2       1 <0>         0.4878
     29 O6         -5.3429    1.6591    0.8475 O.co2     1 <0>        -0.6161
     30 H1          4.1618   -1.0997    1.3185 H         1 <0>         0.1379
     31 H2          1.8401   -0.2984    1.1727 H         1 <0>         0.1629
     32 H3          3.2409    3.5244   -0.1312 H         1 <0>         0.1690
     33 H4          6.0243    0.4043    0.7521 H         1 <0>         0.1276
     34 H5          7.2960    2.9902    2.0956 H         1 <0>         0.1584
     35 H6          9.5820    2.0922    2.2566 H         1 <0>         0.1625
     36 H7          9.3754    0.8163   -1.8082 H         1 <0>         0.1625
     37 H8          7.0853    1.7030   -1.9747 H         1 <0>         0.1584
     38 H9         -1.3141    5.4302   -0.5463 H         1 <0>         0.1411
     39 H10        -3.7301    5.0177   -0.3064 H         1 <0>         0.1546
     40 H11        -2.9360    0.9950    0.9568 H         1 <0>         0.1495
     41 O7         -5.8148    3.7288    0.2006 O.co2     1 <0>        -0.7387
@<TRIPOS>BOND
     1    1    6 ar
     2    1    2 ar
     3    1   30 1
     4    2    3 ar
     5    2   31 1
     6    3    4 ar
     7    3   17 1
     8    4    5 ar
     9    4   32 1
    10    5    6 ar
    11    5    7 1
    12    6   33 1
    13    7    8 1
    14    8   13 ar
    15    8    9 ar
    16    9   10 ar
    17    9   34 1
    18   10   11 ar
    19   10   35 1
    20   11   12 ar
    21   11   14 1
    22   12   13 ar
    23   12   36 1
    24   13   37 1
    25   14   15 2
    26   14   16 1
    27   17   26 am
    28   17   18 am
    29   18   19 2
    30   18   20 1
    31   20   25 ar
    32   20   21 ar
    33   21   22 ar
    34   21   38 1
    35   22   23 ar
    36   22   39 1
    37   23   24 ar
    38   23   28 1
    39   24   25 ar
    40   24   40 1
    41   25   26 1
    42   26   27 2
    43   28   29 2
    44   28   41 1
