@<TRIPOS>MOLECULE
ZINC03794711
   37    37     0     0     0
SMALL
USER_CHARGES

@<TRIPOS>ATOM
      1 C1         -0.5626    1.3318    0.0235 C.3       1 <0>        -0.1592
      2 C2         -0.3431   -0.1823    0.0355 C.3       1 <0>        -0.1202
      3 C3          0.4110   -0.5984   -1.2291 C.3       1 <0>        -0.1495
      4 C4          0.6305   -2.1125   -1.2171 C.3       1 <0>        -0.0135
      5 N1          1.3545   -2.5120   -2.4312 N.4       1 <0>        -0.3726
      6 C5          0.5252   -2.2296   -3.6089 C.3       1 <0>        -0.0105
      7 C6          1.3061   -2.5684   -4.8805 C.3       1 <0>         0.0589
      8 H1          2.2125   -1.9645   -4.9227 H         1 <0>         0.0900
      9 C7          1.6810   -4.0530   -4.8624 C.3       1 <0>         0.0258
     10 H2          0.7744   -4.6581   -4.8718 H         1 <0>         0.0912
     11 C8          2.4827   -4.3515   -3.5921 C.3       1 <0>         0.1122
     12 H3          3.4136   -3.7847   -3.6076 H         1 <0>         0.0961
     13 C9          1.6582   -3.9467   -2.3683 C.3       1 <0>         0.0358
     14 H4          0.7277   -4.5142   -2.3537 H         1 <0>         0.1569
     15 C10         2.4551   -4.2433   -1.0964 C.3       1 <0>         0.0568
     16 O1          3.7102   -3.5623   -1.1509 O.3       1 <0>        -0.5781
     17 O2          2.7758   -5.7488   -3.5301 O.3       1 <0>        -0.5411
     18 O3          2.4724   -4.3601   -6.0119 O.3       1 <0>        -0.5475
     19 O4          0.4961   -2.2938   -6.0253 O.3       1 <0>        -0.5410
     20 H5          0.4020    1.8385   -0.0076 H         1 <0>         0.0598
     21 H6         -1.1462    1.6074   -0.8548 H         1 <0>         0.0596
     22 H7         -1.0998    1.6282    0.9244 H         1 <0>         0.0677
     23 H8          0.2405   -0.4579    0.9138 H         1 <0>         0.0739
     24 H9         -1.3077   -0.6890    0.0666 H         1 <0>         0.0741
     25 H10        -0.1727   -0.3228   -2.1074 H         1 <0>         0.0883
     26 H11         1.3756   -0.0917   -1.2601 H         1 <0>         0.0893
     27 H12         1.2141   -2.3881   -0.3387 H         1 <0>         0.1385
     28 H13        -0.3341   -2.6192   -1.1860 H         1 <0>         0.1342
     29 H14        -0.3811   -2.8337   -3.5678 H         1 <0>         0.1416
     30 H15         0.2565   -1.1733   -3.6187 H         1 <0>         0.1496
     31 H16         1.8933   -3.9008   -0.2274 H         1 <0>         0.0779
     32 H17         2.6274   -5.3168   -1.0176 H         1 <0>         0.1050
     33 H18         4.2694   -3.7053   -0.3751 H         1 <0>         0.4108
     34 H19         3.2946   -6.0754   -4.2779 H         1 <0>         0.4110
     35 H20         2.0271   -4.1891   -6.8531 H         1 <0>         0.3955
     36 H21         0.9288   -2.4859   -6.8685 H         1 <0>         0.4021
     37 H22         2.2153   -1.9895   -2.4955 H         1 <0>         0.4306
@<TRIPOS>BOND
     1    1    2 1
     2    1   20 1
     3    1   21 1
     4    1   22 1
     5    2    3 1
     6    2   23 1
     7    2   24 1
     8    3    4 1
     9    3   25 1
    10    3   26 1
    11    4    5 1
    12    4   27 1
    13    4   28 1
    14    5   13 1
    15    5    6 1
    16    5   37 1
    17    6    7 1
    18    6   29 1
    19    6   30 1
    20    7    8 1
    21    7    9 1
    22    7   19 1
    23    9   10 1
    24    9   11 1
    25    9   18 1
    26   11   12 1
    27   11   13 1
    28   11   17 1
    29   13   14 1
    30   13   15 1
    31   15   16 1
    32   15   31 1
    33   15   32 1
    34   16   33 1
    35   17   34 1
    36   18   35 1
    37   19   36 1
@<TRIPOS>MOLECULE
ZINC13719785
   37    37     0     0     0
SMALL
USER_CHARGES

@<TRIPOS>ATOM
      1 C1         -0.5154    1.3602    0.0038 C.3       1 <0>        -0.1592
      2 C2         -0.3088   -0.1557    0.0219 C.3       1 <0>        -0.1199
      3 C3          0.4399   -0.5834   -1.2420 C.3       1 <0>        -0.1494
      4 C4          0.6464   -2.0993   -1.2240 C.3       1 <0>        -0.0156
      5 N1          1.3653   -2.5100   -2.4375 N.4       1 <0>        -0.3722
      6 C5          0.5360   -2.2269   -3.6151 C.3       1 <0>        -0.0071
      7 C6          1.3120   -2.5777   -4.8864 C.3       1 <0>         0.0607
      8 H1          2.2230   -1.9809   -4.9331 H         1 <0>         0.0939
      9 C7          1.6758   -4.0650   -4.8619 C.3       1 <0>         0.0285
     10 H2          0.7646   -4.6632   -4.8669 H         1 <0>         0.0886
     11 C8          2.4774   -4.3636   -3.5916 C.3       1 <0>         0.1047
     12 H3          2.6923   -5.4309   -3.5393 H         1 <0>         0.1087
     13 C9          1.6582   -3.9467   -2.3683 C.3       1 <0>         0.0405
     14 H4          0.7235   -4.5071   -2.3493 H         1 <0>         0.1590
     15 C10         2.4551   -4.2433   -1.0964 C.3       1 <0>         0.0543
     16 O1          3.7102   -3.5623   -1.1509 O.3       1 <0>        -0.5525
     17 O2          3.7038   -3.6306   -3.6181 O.3       1 <0>        -0.5395
     18 O3          2.4628   -4.3835   -6.0113 O.3       1 <0>        -0.5478
     19 O4          0.5021   -2.3024   -6.0311 O.3       1 <0>        -0.5451
     20 H5          0.4534    1.8585   -0.0307 H         1 <0>         0.0599
     21 H6         -1.0980    1.6371   -0.8748 H         1 <0>         0.0594
     22 H7         -1.0488    1.6649    0.9043 H         1 <0>         0.0673
     23 H8          0.2738   -0.4326    0.9005 H         1 <0>         0.0735
     24 H9         -1.2776   -0.6540    0.0564 H         1 <0>         0.0734
     25 H10        -0.1427   -0.3065   -2.1207 H         1 <0>         0.0871
     26 H11         1.4087   -0.0851   -1.2766 H         1 <0>         0.0887
     27 H12         1.2290   -2.3762   -0.3454 H         1 <0>         0.1366
     28 H13        -0.3224   -2.5976   -1.1894 H         1 <0>         0.1313
     29 H14        -0.3748   -2.8240   -3.5695 H         1 <0>         0.1377
     30 H15         0.2753   -1.1687   -3.6294 H         1 <0>         0.1458
     31 H16         1.8933   -3.9008   -0.2274 H         1 <0>         0.0752
     32 H17         2.6274   -5.3168   -1.0176 H         1 <0>         0.0930
     33 H18         4.2694   -3.7053   -0.3751 H         1 <0>         0.4011
     34 H19         4.2728   -3.8429   -4.3706 H         1 <0>         0.4048
     35 H20         2.0173   -4.2131   -6.8525 H         1 <0>         0.3955
     36 H21         0.9319   -2.5017   -6.8741 H         1 <0>         0.4006
     37 H22         2.2299   -1.9944   -2.5057 H         1 <0>         0.4384
@<TRIPOS>BOND
     1    1    2 1
     2    1   20 1
     3    1   21 1
     4    1   22 1
     5    2    3 1
     6    2   23 1
     7    2   24 1
     8    3    4 1
     9    3   25 1
    10    3   26 1
    11    4    5 1
    12    4   27 1
    13    4   28 1
    14    5   13 1
    15    5    6 1
    16    5   37 1
    17    6    7 1
    18    6   29 1
    19    6   30 1
    20    7    8 1
    21    7    9 1
    22    7   19 1
    23    9   10 1
    24    9   11 1
    25    9   18 1
    26   11   12 1
    27   11   13 1
    28   11   17 1
    29   13   14 1
    30   13   15 1
    31   15   16 1
    32   15   31 1
    33   15   32 1
    34   16   33 1
    35   17   34 1
    36   18   35 1
    37   19   36 1
@<TRIPOS>MOLECULE
ZINC01636704
   25    25     0     0     0
SMALL
USER_CHARGES

@<TRIPOS>ATOM
      1 C1         -0.0178    1.4636    0.0101 C.3       1 <0>        -0.0435
      2 C2          1.4163    1.9970   -0.0007 C.3       1 <0>         0.0576
      3 H1          1.9452    1.6372    0.8818 H         1 <0>         0.0953
      4 C3          2.1299    1.5015   -1.2619 C.3       1 <0>         0.0740
      5 H2          1.6316    1.9031   -2.1442 H         1 <0>         0.0896
      6 C4          2.0795   -0.0286   -1.2972 C.3       1 <0>         0.1002
      7 H3          2.5366   -0.3867   -2.2197 H         1 <0>         0.1194
      8 C5          0.6208   -0.4870   -1.2383 C.3       1 <0>         0.0442
      9 H4          0.0792   -0.0848   -2.0945 H         1 <0>         0.1594
     10 N1          0.0021   -0.0041    0.0020 N.4       1 <0>        -0.4939
     11 C6          0.5654   -2.0156   -1.2729 C.3       1 <0>         0.0552
     12 O1         -0.7972   -2.4415   -1.3354 O.3       1 <0>        -0.5823
     13 O2          2.7918   -0.5555   -0.1760 O.3       1 <0>        -0.5657
     14 O3          3.4911    1.9360   -1.2427 O.3       1 <0>        -0.5491
     15 O4          1.3941    3.4258    0.0058 O.3       1 <0>        -0.5404
     16 H5         -0.5288    1.8147    0.9066 H         1 <0>         0.1416
     17 H6         -0.5458    1.8242   -0.8727 H         1 <0>         0.1407
     18 H7          0.5329   -0.3366    0.7931 H         1 <0>         0.4344
     19 H8          1.1002   -2.3788   -2.1504 H         1 <0>         0.0978
     20 H9          1.0304   -2.4165   -0.3722 H         1 <0>         0.0847
     21 H10        -0.9084   -3.4018   -1.3601 H         1 <0>         0.4135
     22 H11         3.7244   -0.3017   -0.1479 H         1 <0>         0.4180
     23 H12         3.5970    2.8968   -1.2145 H         1 <0>         0.4076
     24 H13         0.9534    3.8088    0.7767 H         1 <0>         0.4003
     25 H14        -0.9428   -0.3526    0.0632 H         1 <0>         0.4412
@<TRIPOS>BOND
     1    1   10 1
     2    1    2 1
     3    1   16 1
     4    1   17 1
     5    2    3 1
     6    2    4 1
     7    2   15 1
     8    4    5 1
     9    4    6 1
    10    4   14 1
    11    6    7 1
    12    6    8 1
    13    6   13 1
    14    8    9 1
    15    8   10 1
    16    8   11 1
    17   10   18 1
    18   10   25 1
    19   11   12 1
    20   11   19 1
    21   11   20 1
    22   12   21 1
    23   13   22 1
    24   14   23 1
    25   15   24 1
@<TRIPOS>MOLECULE
ZINC04097426
   32    32     0     0     0
SMALL
USER_CHARGES

@<TRIPOS>ATOM
      1 C1          0.0582    1.4326   -0.0932 C.3       1 <0>        -0.0174
      2 C2          1.4600    2.0177   -0.2786 C.3       1 <0>         0.0589
      3 H1          2.0720    1.7790    0.5912 H         1 <0>         0.0866
      4 C3          2.0972    1.4141   -1.5335 C.3       1 <0>         0.0245
      5 H2          1.5136    1.6954   -2.4100 H         1 <0>         0.0903
      6 C4          2.1180   -0.1114   -1.4002 C.3       1 <0>         0.1132
      7 H3          2.7437   -0.3942   -0.5536 H         1 <0>         0.0954
      8 C5          0.6919   -0.6176   -1.1732 C.3       1 <0>         0.0332
      9 H4          0.0672   -0.3344   -2.0203 H         1 <0>         0.1567
     10 N1          0.1481   -0.0250    0.0547 N.4       1 <0>        -0.3697
     11 C6         -1.1906   -0.5733    0.3100 C.3       1 <0>        -0.0097
     12 C7         -1.6812   -0.1033    1.6809 C.3       1 <0>         0.0488
     13 O1         -1.9530    1.2988    1.6346 O.3       1 <0>        -0.5731
     14 C8          0.7077   -2.1416   -1.0388 C.3       1 <0>         0.0563
     15 O2          1.5849   -2.5169    0.0250 O.3       1 <0>        -0.5784
     16 O3          2.6451   -0.6878   -2.5968 O.3       1 <0>        -0.5418
     17 O4          3.4334    1.9014   -1.6725 O.3       1 <0>        -0.5488
     18 O5          1.3695    3.4364   -0.4236 O.3       1 <0>        -0.5398
     19 H5         -0.3984    1.8604    0.7993 H         1 <0>         0.1754
     20 H6         -0.5530    1.6721   -0.9634 H         1 <0>         0.1362
     21 H7         -1.8785   -0.2259   -0.4608 H         1 <0>         0.1421
     22 H8         -1.1464   -1.6622    0.2936 H         1 <0>         0.1498
     23 H9         -2.5916   -0.6414    1.9450 H         1 <0>         0.1017
     24 H10        -0.9130   -0.3000    2.4287 H         1 <0>         0.0742
     25 H11        -2.2689    1.6661    2.4715 H         1 <0>         0.4078
     26 H12        -0.2994   -2.4977   -0.8221 H         1 <0>         0.0772
     27 H13         1.0571   -2.5849   -1.9713 H         1 <0>         0.1054
     28 H14         1.6442   -3.4715    0.1676 H         1 <0>         0.4107
     29 H15         3.5471   -0.4075   -2.8042 H         1 <0>         0.4109
     30 H16         3.4946    2.8628   -1.7564 H         1 <0>         0.3952
     31 H17         2.2229    3.8746   -0.5453 H         1 <0>         0.3999
     32 H18         0.7538   -0.2466    0.8307 H         1 <0>         0.4280
@<TRIPOS>BOND
     1    1   10 1
     2    1    2 1
     3    1   19 1
     4    1   20 1
     5    2    3 1
     6    2    4 1
     7    2   18 1
     8    4    5 1
     9    4    6 1
    10    4   17 1
    11    6    7 1
    12    6    8 1
    13    6   16 1
    14    8    9 1
    15    8   10 1
    16    8   14 1
    17   10   11 1
    18   10   32 1
    19   11   12 1
    20   11   21 1
    21   11   22 1
    22   12   13 1
    23   12   23 1
    24   12   24 1
    25   13   25 1
    26   14   15 1
    27   14   26 1
    28   14   27 1
    29   15   28 1
    30   16   29 1
    31   17   30 1
    32   18   31 1
@<TRIPOS>MOLECULE
ZINC03794714
   25    25     0     0     0
SMALL
USER_CHARGES

@<TRIPOS>ATOM
      1 C1         -0.0178    1.4636    0.0101 C.3       1 <0>        -0.0466
      2 C2          1.4163    1.9970   -0.0007 C.3       1 <0>         0.0566
      3 H1          1.9452    1.6372    0.8818 H         1 <0>         0.0917
      4 C3          2.1299    1.5015   -1.2619 C.3       1 <0>         0.0695
      5 H2          1.6316    1.9031   -2.1442 H         1 <0>         0.0909
      6 C4          2.0795   -0.0286   -1.2972 C.3       1 <0>         0.1094
      7 H3          2.6221   -0.4305   -0.4415 H         1 <0>         0.0913
      8 C5          0.6208   -0.4870   -1.2383 C.3       1 <0>         0.0351
      9 H4          0.0792   -0.0848   -2.0945 H         1 <0>         0.1577
     10 N1          0.0021   -0.0041    0.0020 N.4       1 <0>        -0.4918
     11 C6          0.5654   -2.0156   -1.2729 C.3       1 <0>         0.0570
     12 O1         -0.7972   -2.4415   -1.3354 O.3       1 <0>        -0.5813
     13 O2          2.6797   -0.4981   -2.5061 O.3       1 <0>        -0.5386
     14 O3          3.4911    1.9360   -1.2427 O.3       1 <0>        -0.5488
     15 O4          1.3941    3.4258    0.0058 O.3       1 <0>        -0.5365
     16 H5         -0.5288    1.8147    0.9066 H         1 <0>         0.1451
     17 H6         -0.5458    1.8242   -0.8727 H         1 <0>         0.1438
     18 H7          0.5329   -0.3366    0.7931 H         1 <0>         0.4276
     19 H8          1.1002   -2.3788   -2.1504 H         1 <0>         0.1086
     20 H9          1.0304   -2.4165   -0.3722 H         1 <0>         0.0746
     21 H10        -0.9084   -3.4018   -1.3601 H         1 <0>         0.4135
     22 H11         3.6059   -0.2409   -2.6111 H         1 <0>         0.4148
     23 H12         3.5970    2.8968   -1.2145 H         1 <0>         0.4074
     24 H13         0.9534    3.8088    0.7767 H         1 <0>         0.4013
     25 H14        -0.9428   -0.3526    0.0632 H         1 <0>         0.4478
@<TRIPOS>BOND
     1    1   10 1
     2    1    2 1
     3    1   16 1
     4    1   17 1
     5    2    3 1
     6    2    4 1
     7    2   15 1
     8    4    5 1
     9    4    6 1
    10    4   14 1
    11    6    7 1
    12    6    8 1
    13    6   13 1
    14    8    9 1
    15    8   10 1
    16    8   11 1
    17   10   18 1
    18   10   25 1
    19   11   12 1
    20   11   19 1
    21   11   20 1
    22   12   21 1
    23   13   22 1
    24   14   23 1
    25   15   24 1
@<TRIPOS>MOLECULE
ZINC03788703
   40    40     0     0     0
SMALL
USER_CHARGES

@<TRIPOS>ATOM
      1 C1         -0.0919    1.7492    0.0029 C.3       1 <0>        -0.1355
      2 C2          1.3788    2.1706    0.0206 C.3       1 <0>         0.0429
      3 H1          1.4459    3.2577   -0.0226 H         1 <0>         0.1550
      4 C3          2.0374    1.6697    1.3076 C.3       1 <0>         0.0981
      5 H2          1.5259    2.0998    2.1686 H         1 <0>         0.1093
      6 C4          1.9433    0.1438    1.3682 C.3       1 <0>         0.0321
      7 H3          2.4549   -0.2862    0.5071 H         1 <0>         0.0699
      8 C5          0.4726   -0.2775    1.3505 C.3       1 <0>         0.0497
      9 H4         -0.0389    0.1525    2.2116 H         1 <0>         0.0857
     10 C6         -0.1860    0.2233    0.0635 C.3       1 <0>         0.1388
     11 C7         -1.6567   -0.1980    0.0459 C.3       1 <0>         0.0541
     12 O1         -1.7488   -1.6135    0.2195 O.3       1 <0>        -0.5485
     13 O2          0.4846   -0.3405   -1.0654 O.3       1 <0>        -0.5774
     14 O3          0.3847   -1.7027    1.4071 O.3       1 <0>        -0.5272
     15 O4          2.5584   -0.3240    2.5702 O.3       1 <0>        -0.5499
     16 O5          3.4111    2.0633    1.3241 O.3       1 <0>        -0.5596
     17 N1          2.0682    1.5910   -1.1399 N.4       1 <0>        -0.4912
     18 C8          1.4490    2.0880   -2.3758 C.3       1 <0>         0.0377
     19 C9          1.6824    3.5956   -2.4927 C.3       1 <0>         0.0531
     20 O6          3.0839    3.8537   -2.5992 O.3       1 <0>        -0.5479
     21 C10         2.0740    1.3803   -3.5798 C.3       1 <0>         0.0594
     22 O7          3.4542    1.7372   -3.6784 O.3       1 <0>        -0.5522
     23 H5         -0.6034    2.1793    0.8640 H         1 <0>         0.1360
     24 H6         -0.5611    2.1060   -0.9139 H         1 <0>         0.1168
     25 H7         -2.1879    0.3027    0.8554 H         1 <0>         0.0621
     26 H8         -2.1031    0.0807   -0.9087 H         1 <0>         0.0632
     27 H9         -2.6547   -1.9517    0.2186 H         1 <0>         0.3898
     28 H10         0.4650   -1.3069   -1.0922 H         1 <0>         0.4203
     29 H11         0.7831   -2.0902    2.1985 H         1 <0>         0.3835
     30 H12         2.5357   -1.2849    2.6754 H         1 <0>         0.3957
     31 H13         3.9107    1.7160    2.0756 H         1 <0>         0.4134
     32 H14         3.0413    1.8573   -1.1206 H         1 <0>         0.4406
     33 H15         0.3780    1.8869   -2.3519 H         1 <0>         0.1560
     34 H16         1.1748    3.9741   -3.3800 H         1 <0>         0.0879
     35 H17         1.2873    4.0941   -1.6076 H         1 <0>         0.0637
     36 H18         3.3062    4.7916   -2.6768 H         1 <0>         0.3971
     37 H19         1.9859    0.3013   -3.4529 H         1 <0>         0.0696
     38 H20         1.5546    1.6828   -4.4890 H         1 <0>         0.0874
     39 H21         3.9152    1.3240   -4.4213 H         1 <0>         0.3964
     40 H22         1.9940    0.5853   -1.1074 H         1 <0>         0.4246
@<TRIPOS>BOND
     1    1   10 1
     2    1    2 1
     3    1   23 1
     4    1   24 1
     5    2    3 1
     6    2    4 1
     7    2   17 1
     8    4    5 1
     9    4    6 1
    10    4   16 1
    11    6    7 1
    12    6    8 1
    13    6   15 1
    14    8    9 1
    15    8   10 1
    16    8   14 1
    17   10   11 1
    18   10   13 1
    19   11   12 1
    20   11   25 1
    21   11   26 1
    22   12   27 1
    23   13   28 1
    24   14   29 1
    25   15   30 1
    26   16   31 1
    27   17   18 1
    28   17   32 1
    29   17   40 1
    30   18   19 1
    31   18   21 1
    32   18   33 1
    33   19   20 1
    34   19   34 1
    35   19   35 1
    36   20   36 1
    37   21   22 1
    38   21   37 1
    39   21   38 1
    40   22   39 1
@<TRIPOS>MOLECULE
ZINC05131852
   29    29     0     0     0
SMALL
USER_CHARGES
2,6-bis(hydroxymethyl)piperidine-3,4,5-triol
@<TRIPOS>ATOM
      1 C1         -0.0707   -0.4444   -2.4062 C.3       1 <0>         0.0507
      2 C2         -0.0919    1.0854   -2.4140 C.3       1 <0>         0.0469
      3 H1         -0.6593    1.4364   -3.2760 H         1 <0>         0.1570
      4 C3          1.3415    1.6149   -2.4971 C.3       1 <0>         0.0643
      5 H2          1.8155    1.2408   -3.4046 H         1 <0>         0.1052
      6 C4          2.1290    1.1362   -1.2744 C.3       1 <0>         0.0293
      7 C5          1.4231    1.6153   -0.0029 C.3       1 <0>         0.1043
      8 H3          1.9555    1.2415    0.8718 H         1 <0>         0.1094
      9 C6         -0.0127    1.0858    0.0080 C.3       1 <0>         0.0447
     10 H4          0.0021   -0.0041    0.0020 H         1 <0>         0.1533
     11 C7         -0.7284    1.5790    1.2671 C.3       1 <0>         0.0574
     12 O1         -2.0290    0.9910    1.3370 O.3       1 <0>        -0.5796
     13 O2          1.4050    3.0440    0.0233 O.3       1 <0>        -0.5491
     14 O3          3.4521    1.6744   -1.3177 O.3       1 <0>        -0.5481
     15 O4          1.3225    3.0436   -2.5230 O.3       1 <0>        -0.5450
     16 O5         -1.4105   -0.9396   -2.4461 O.3       1 <0>        -0.5704
     17 H5          0.4759   -0.8046   -3.2777 H         1 <0>         0.0974
     18 H6          0.4199   -0.7963   -1.4987 H         1 <0>         0.0716
     19 H7          2.1785    0.0473   -1.2752 H         1 <0>         0.0893
     20 H8         -0.1528    1.2935    2.1476 H         1 <0>         0.0946
     21 H9         -0.8219    2.6644    1.2304 H         1 <0>         0.0841
     22 H10        -2.5410    1.2598    2.1121 H         1 <0>         0.4114
     23 H11         2.2832    3.4486    0.0181 H         1 <0>         0.4097
     24 H12         3.9583    1.4113   -2.0985 H         1 <0>         0.4007
     25 H13         2.1995    3.4478   -2.5726 H         1 <0>         0.4070
     26 H14        -1.4734   -1.9046   -2.4436 H         1 <0>         0.4123
     27 N1         -0.7339    1.5791   -1.1808 N.4       1 <0>        -0.5003
     28 H15        -1.7051    1.2474   -1.1490 H         1 <0>         0.4466
     29 H16        -0.7227    2.6058   -1.1813 H         1 <0>         0.4456
@<TRIPOS>BOND
     1    1    2 1
     2    1   16 1
     3    1   17 1
     4    1   18 1
     5    2    3 1
     6    2    4 1
     7    2   27 1
     8    4    5 1
     9    4    6 1
    10    4   15 1
    11    6    7 1
    12    6   14 1
    13    6   19 1
    14    7    8 1
    15    7    9 1
    16    7   13 1
    17    9   10 1
    18    9   11 1
    19    9   27 1
    20   11   12 1
    21   11   20 1
    22   11   21 1
    23   12   22 1
    24   13   23 1
    25   14   24 1
    26   15   25 1
    27   16   26 1
    28   27   28 1
    29   27   29 1
@<TRIPOS>MOLECULE
ZINC03795332
   28    28     0     0     0
SMALL
USER_CHARGES
2-(hydroxymethyl)-1-methyl-piperidine-3,4,5-triol
@<TRIPOS>ATOM
      1 C1          4.2144    1.1727   -2.1735 C.3       1 <0>        -0.0442
      2 C2          2.0526    1.1150   -1.0854 C.3       1 <0>        -0.0415
      3 C3          1.2504    1.6650    0.0961 C.3       1 <0>         0.0559
      4 H1          1.7824    1.4599    1.0250 H         1 <0>         0.0907
      5 C4          1.0772    3.1772   -0.0706 C.3       1 <0>         0.0682
      6 H2          0.5107    3.3810   -0.9793 H         1 <0>         0.0869
      7 C5          2.4572    3.8331   -0.1701 C.3       1 <0>         0.1102
      8 H3          3.0089    3.6621    0.7543 H         1 <0>         0.0966
      9 C6          3.2245    3.2203   -1.3439 C.3       1 <0>         0.0409
     10 H4          2.6792    3.4036   -2.2696 H         1 <0>         0.1584
     11 C7          4.6121    3.8584   -1.4347 C.3       1 <0>         0.0560
     12 O1          5.2926    3.6981   -0.1884 O.3       1 <0>        -0.5796
     13 O2          2.3036    5.2381   -0.3811 O.3       1 <0>        -0.5401
     14 O3          0.3778    3.7051    1.0582 O.3       1 <0>        -0.5485
     15 O4         -0.0337    1.0390    0.1335 O.3       1 <0>        -0.5374
     16 H5          5.2344    1.5417   -2.0657 H         1 <0>         0.1275
     17 H6          4.2072    0.0881   -2.0660 H         1 <0>         0.1286
     18 H7          3.8324    1.4429   -3.1580 H         1 <0>         0.1271
     19 H8          2.1900    0.0407   -0.9624 H         1 <0>         0.1396
     20 H9          1.5128    1.3082   -2.0124 H         1 <0>         0.1421
     21 H10         5.1840    3.3736   -2.2259 H         1 <0>         0.0778
     22 H11         4.5097    4.9202   -1.6588 H         1 <0>         0.1041
     23 H12         6.1809    4.0799   -0.1733 H         1 <0>         0.4111
     24 H13         1.8227    5.6915    0.3247 H         1 <0>         0.4123
     25 H14        -0.5043    3.3297    1.1851 H         1 <0>         0.4052
     26 H15         0.0000    0.0782    0.2377 H         1 <0>         0.4000
     27 N1          3.3786    1.7686   -1.1108 N.4       1 <0>        -0.3849
     28 H16         3.8386    1.6239   -0.2043 H         1 <0>         0.4370
@<TRIPOS>BOND
     1    1   16 1
     2    1   17 1
     3    1   18 1
     4    1   27 1
     5    2    3 1
     6    2   19 1
     7    2   20 1
     8    2   27 1
     9    3    4 1
    10    3    5 1
    11    3   15 1
    12    5    6 1
    13    5    7 1
    14    5   14 1
    15    7    8 1
    16    7    9 1
    17    7   13 1
    18    9   10 1
    19    9   11 1
    20    9   27 1
    21   11   12 1
    22   11   21 1
    23   11   22 1
    24   12   23 1
    25   13   24 1
    26   14   25 1
    27   15   26 1
    28   27   28 1
