@<TRIPOS>MOLECULE
ZINC05644396
   37    40     0     0     0
SMALL
USER_CHARGES

@<TRIPOS>ATOM
      1 C1          0.9414   -0.7512   -2.5177 C.3       1 <0>        -0.1525
      2 C2          0.4206   -0.9968   -1.1001 C.3       1 <0>         0.0536
      3 O1         -0.8914   -1.5593   -1.1654 O.3       1 <0>        -0.3444
      4 C3         -1.4971   -1.8375    0.0065 C.2       1 <0>         0.5461
      5 C4         -2.8479   -2.4179    0.0163 C.2       1 <0>        -0.1897
      6 C5         -3.0317   -3.7978   -0.0881 C.2       1 <0>         0.0976
      7 C6         -4.3992   -4.3258   -0.0729 C.ar      1 <0>        -0.0871
      8 C7         -4.6264   -5.7130   -0.1766 C.ar      1 <0>        -0.0979
      9 C8         -5.9295   -6.1957   -0.1608 C.ar      1 <0>        -0.0758
     10 C9         -6.9951   -5.3137   -0.0440 C.ar      1 <0>        -0.0666
     11 C10        -6.7828   -3.9567    0.0574 C.ar      1 <0>        -0.1266
     12 C11        -5.4831   -3.4430    0.0451 C.ar      1 <0>         0.1906
     13 N1         -5.2680   -2.0863    0.1463 N.am      1 <0>        -0.6205
     14 C12        -4.0315   -1.5595    0.1422 C.2       1 <0>         0.5642
     15 O2         -3.8918   -0.3536    0.2390 O.2       1 <0>        -0.5092
     16 C13        -3.4821   -6.6365   -0.3002 C.2       1 <0>         0.4376
     17 O3         -3.6719   -7.8339   -0.3906 O.2       1 <0>        -0.4255
     18 C14        -2.1057   -6.1017   -0.3142 C.ar      1 <0>        -0.1303
     19 C15        -1.8863   -4.7139   -0.2109 C.ar      1 <0>        -0.0372
     20 C16        -0.5838   -4.2197   -0.2255 C.ar      1 <0>        -0.1158
     21 C17         0.4831   -5.0914   -0.3410 C.ar      1 <0>        -0.0817
     22 C18         0.2675   -6.4544   -0.4425 C.ar      1 <0>        -0.1036
     23 C19        -1.0179   -6.9637   -0.4303 C.ar      1 <0>        -0.0570
     24 O4         -0.9264   -1.6085    1.0550 O.2       1 <0>        -0.4810
     25 H1          1.9421   -0.3221   -2.4679 H         1 <0>         0.0841
     26 H2          0.9777   -1.6960   -3.0601 H         1 <0>         0.0683
     27 H3          0.2753   -0.0607   -3.0349 H         1 <0>         0.0698
     28 H4          1.0867   -1.6873   -0.5829 H         1 <0>         0.0711
     29 H5          0.3843   -0.0520   -0.5577 H         1 <0>         0.0758
     30 H6         -6.1132   -7.2570   -0.2397 H         1 <0>         0.1506
     31 H7         -8.0048   -5.6969   -0.0328 H         1 <0>         0.1488
     32 H8         -7.6247   -3.2863    0.1471 H         1 <0>         0.1484
     33 H9         -0.4077   -3.1571   -0.1471 H         1 <0>         0.1406
     34 H10         1.4919   -4.7057   -0.3524 H         1 <0>         0.1394
     35 H11         1.1091   -7.1252   -0.5326 H         1 <0>         0.1421
     36 H12        -1.1783   -8.0287   -0.5107 H         1 <0>         0.1473
     37 H13        -6.0316   -1.4936    0.2271 H         1 <0>         0.4263
@<TRIPOS>BOND
     1    1    2 1
     2    1   25 1
     3    1   26 1
     4    1   27 1
     5    2    3 1
     6    2   28 1
     7    2   29 1
     8    3    4 1
     9    4    5 1
    10    4   24 2
    11    5   14 1
    12    5    6 2
    13    6   19 1
    14    6    7 1
    15    7   12 ar
    16    7    8 ar
    17    8    9 ar
    18    8   16 1
    19    9   10 ar
    20    9   30 1
    21   10   11 ar
    22   10   31 1
    23   11   12 ar
    24   11   32 1
    25   12   13 1
    26   13   14 am
    27   13   37 1
    28   14   15 2
    29   16   17 2
    30   16   18 1
    31   18   23 ar
    32   18   19 ar
    33   19   20 ar
    34   20   21 ar
    35   20   33 1
    36   21   22 ar
    37   21   34 1
    38   22   23 ar
    39   22   35 1
    40   23   36 1
@<TRIPOS>MOLECULE
ZINC03814434
   62    69     0     0     0
SMALL
USER_CHARGES

@<TRIPOS>ATOM
      1 C1         -0.1295    1.5952   -0.2973 C.3       1 <0>        -0.1687
      2 C2         -0.0862    0.0696   -0.1900 C.3       1 <0>         0.3342
      3 C3          0.5692   -0.4501   -1.4637 C.3       1 <0>         0.0405
      4 H1          1.4796    0.1159   -1.6612 H         1 <0>         0.1372
      5 C4          0.9167   -1.9328   -1.2889 C.3       1 <0>        -0.0061
      6 H2          1.3963   -2.3075   -2.1932 H         1 <0>         0.1555
      7 C5          1.8785   -2.0596   -0.1021 C.3       1 <0>        -0.1827
      8 C6          1.2061   -1.5198    1.1541 C.3       1 <0>         0.2999
      9 H3          1.9797   -1.4243    1.9161 H         1 <0>         0.1550
     10 O1          0.6555   -0.2442    0.9666 O.3       1 <0>        -0.3234
     11 N1          0.2189   -2.4746    1.6600 N.pl3     1 <0>        -0.5366
     12 C7          0.4705   -3.5508    2.4739 C.ar      1 <0>         0.1469
     13 C8          1.6649   -4.0152    3.0240 C.ar      1 <0>        -0.1522
     14 C9          1.5948   -5.1456    3.8201 C.ar      1 <0>        -0.0582
     15 C10         0.4006   -5.7997    4.0696 C.ar      1 <0>        -0.1457
     16 C11        -0.7984   -5.3597    3.5358 C.ar      1 <0>        -0.0280
     17 C12        -0.7487   -4.2198    2.7307 C.ar      1 <0>        -0.1131
     18 C13        -1.7893   -3.4830    2.0197 C.ar      1 <0>         0.0276
     19 C14        -1.1442   -2.4197    1.3841 C.ar      1 <0>         0.0376
     20 C15        -1.8806   -1.5095    0.6175 C.ar      1 <0>         0.0894
     21 N2         -1.4718   -0.3951   -0.1095 N.pl3     1 <0>        -0.5183
     22 C16        -2.5611    0.1913   -0.7090 C.ar      1 <0>         0.1618
     23 C17        -2.6521    1.3277   -1.5118 C.ar      1 <0>        -0.1305
     24 C18        -3.9109    1.6745   -1.9733 C.ar      1 <0>        -0.0737
     25 C19        -5.0393    0.9368   -1.6616 C.ar      1 <0>        -0.1358
     26 C20        -4.9745   -0.1955   -0.8662 C.ar      1 <0>        -0.0503
     27 C21        -3.7147   -0.5596   -0.3919 C.ar      1 <0>        -0.1042
     28 C22        -3.2693   -1.6660    0.4845 C.ar      1 <0>        -0.0360
     29 C23        -3.9084   -2.7313    1.1102 C.ar      1 <0>        -0.0288
     30 C24        -3.1873   -3.6421    1.8754 C.ar      1 <0>        -0.1255
     31 C25        -4.1221   -4.6480    2.4030 C.2       1 <0>         0.5632
     32 O2         -3.8062   -5.5851    3.1110 O.2       1 <0>        -0.5106
     33 N3         -5.3744   -4.3851    1.9926 N.am      1 <0>        -0.7162
     34 C26        -5.3495   -3.1771    1.1601 C.3       1 <0>         0.1358
     35 N4         -0.3067   -2.7008   -1.0216 N.4       1 <0>        -0.5252
     36 C27         0.0145   -4.1336   -0.9773 C.3       1 <0>        -0.0497
     37 O3         -0.3340   -0.2979   -2.5607 O.3       1 <0>        -0.3614
     38 C28         0.3101   -0.0933   -3.8198 C.3       1 <0>         0.0162
     39 H4          0.8261    2.0094    0.0240 H         1 <0>         0.0984
     40 H5         -0.3202    1.8814   -1.3317 H         1 <0>         0.1036
     41 H6         -0.9255    1.9818    0.3392 H         1 <0>         0.0921
     42 H7          2.1370   -3.1081    0.0458 H         1 <0>         0.1233
     43 H8          2.7835   -1.4869   -0.3048 H         1 <0>         0.1455
     44 H9          2.6036   -3.5149    2.8368 H         1 <0>         0.1365
     45 H10         2.5026   -5.5304    4.2610 H         1 <0>         0.1359
     46 H11         0.4045   -6.6780    4.6980 H         1 <0>         0.1352
     47 H12        -1.7278   -5.8736    3.7323 H         1 <0>         0.1600
     48 H13        -1.7792    1.9122   -1.7624 H         1 <0>         0.1440
     49 H14        -4.0153    2.5500   -2.5970 H         1 <0>         0.1336
     50 H15        -5.9967    1.2527   -2.0488 H         1 <0>         0.1332
     51 H16        -5.8575   -0.7687   -0.6249 H         1 <0>         0.1415
     52 H17        -6.1628   -4.9065    2.2103 H         1 <0>         0.4348
     53 H18        -5.9671   -2.3994    1.6094 H         1 <0>         0.1115
     54 H19        -5.7060   -3.4063    0.1559 H         1 <0>         0.1103
     55 H20        -0.6958   -2.4158   -0.1353 H         1 <0>         0.4186
     56 H21         0.4349   -4.4415   -1.9347 H         1 <0>         0.1256
     57 H22         0.7403   -4.3189   -0.1854 H         1 <0>         0.1191
     58 H23        -0.8932   -4.7035   -0.7789 H         1 <0>         0.1256
     59 H24         0.9168    0.8112   -3.7748 H         1 <0>         0.0633
     60 H25         0.9482   -0.9479   -4.0446 H         1 <0>         0.0514
     61 H26        -0.4433    0.0130   -4.6003 H         1 <0>         0.1100
     62 H27        -0.9785   -2.5293   -1.7546 H         1 <0>         0.4274
@<TRIPOS>BOND
     1    1    2 1
     2    1   39 1
     3    1   40 1
     4    1   41 1
     5    2   10 1
     6    2   21 1
     7    2    3 1
     8    3    4 1
     9    3    5 1
    10    3   37 1
    11    5    6 1
    12    5    7 1
    13    5   35 1
    14    7    8 1
    15    7   42 1
    16    7   43 1
    17    8    9 1
    18    8   10 1
    19    8   11 1
    20   11   19 1
    21   11   12 1
    22   12   17 ar
    23   12   13 ar
    24   13   14 ar
    25   13   44 1
    26   14   15 ar
    27   14   45 1
    28   15   16 ar
    29   15   46 1
    30   16   17 ar
    31   16   47 1
    32   17   18 1
    33   18   30 ar
    34   18   19 ar
    35   19   20 ar
    36   20   28 ar
    37   20   21 1
    38   21   22 1
    39   22   27 ar
    40   22   23 ar
    41   23   24 ar
    42   23   48 1
    43   24   25 ar
    44   24   49 1
    45   25   26 ar
    46   25   50 1
    47   26   27 ar
    48   26   51 1
    49   27   28 1
    50   28   29 ar
    51   29   34 1
    52   29   30 ar
    53   30   31 1
    54   31   32 2
    55   31   33 am
    56   33   34 1
    57   33   52 1
    58   34   53 1
    59   34   54 1
    60   35   36 1
    61   35   55 1
    62   35   62 1
    63   36   56 1
    64   36   57 1
    65   36   58 1
    66   37   38 1
    67   38   59 1
    68   38   60 1
    69   38   61 1
@<TRIPOS>MOLECULE
ZINC43193842
   48    51     0     0     0
SMALL
USER_CHARGES

@<TRIPOS>ATOM
      1 C1         -0.0187    1.5258    0.0104 C.3       1 <0>        -0.1405
      2 C2          0.0021   -0.0041    0.0020 C.3       1 <0>        -0.0357
      3 C3          0.7421   -0.5109    1.2415 C.3       1 <0>        -0.1405
      4 C4         -1.4333   -0.5336    0.0129 C.3       1 <0>        -0.1479
      5 C5          0.7074   -0.4901   -1.2379 C.ar      1 <0>        -0.0353
      6 C6          0.0325   -1.2849   -2.1474 C.ar      1 <0>        -0.1290
      7 C7          0.6722   -1.7328   -3.2846 C.ar      1 <0>        -0.0490
      8 C8          2.0033   -1.3824   -3.5167 C.ar      1 <0>        -0.1430
      9 C9          2.6784   -0.5803   -2.5951 C.ar      1 <0>        -0.0798
     10 C10         2.0253   -0.1348   -1.4645 C.ar      1 <0>        -0.1222
     11 C11         2.6952   -1.8591   -4.7329 C.2       1 <0>         0.5703
     12 O1          2.1049   -2.5579   -5.5336 O.2       1 <0>        -0.5173
     13 N1          3.9805   -1.5190   -4.9540 N.am      1 <0>        -0.6294
     14 C12         4.6365   -1.9710   -6.1071 C.2       1 <0>         0.2864
     15 C13         4.0908   -2.7486   -7.0774 C.2       1 <0>        -0.0916
     16 N2          5.0635   -2.9591   -8.0192 N.pl3     1 <0>        -0.3527
     17 C14         5.0733   -3.6569   -9.1927 C.2       1 <0>         0.0874
     18 C15         6.1930   -3.7072   -9.9548 C.2       1 <0>         0.0920
     19 C16         7.3609   -3.0372   -9.5409 C.2       1 <0>        -0.0938
     20 C17         7.3586   -2.3398   -8.3735 C.2       1 <0>        -0.0591
     21 C18         6.1857   -2.2983   -7.5939 C.2       1 <0>         0.2407
     22 N3          5.9041   -1.7045   -6.4407 N.2       1 <0>        -0.4987
     23 N4          6.1889   -4.4295  -11.1599 N.pl3     1 <0>        -0.4164
     24 C19         6.9237   -5.5521  -11.4392 C.2       1 <0>        -0.0443
     25 C20         6.6174   -5.9154  -12.6994 C.2       1 <0>        -0.0213
     26 N5          5.7208   -5.0418  -13.1805 N.2       1 <0>        -0.4832
     27 C21         5.4518   -4.1504  -12.2654 C.2       1 <0>         0.1925
     28 H1          1.0039    1.9031    0.0027 H         1 <0>         0.0586
     29 H2         -0.5459    1.8868   -0.8726 H         1 <0>         0.0581
     30 H3         -0.5289    1.8773    0.9072 H         1 <0>         0.0624
     31 H4          0.2319   -0.1594    2.1383 H         1 <0>         0.0624
     32 H5          0.7568   -1.6008    1.2356 H         1 <0>         0.0581
     33 H6          1.7647   -0.1336    1.2338 H         1 <0>         0.0586
     34 H7         -1.9605   -0.1726   -0.8702 H         1 <0>         0.0608
     35 H8         -1.4185   -1.6235    0.0069 H         1 <0>         0.0607
     36 H9         -1.9435   -0.1821    0.9097 H         1 <0>         0.0620
     37 H10        -0.9972   -1.5555   -1.9664 H         1 <0>         0.1374
     38 H11         0.1444   -2.3534   -3.9936 H         1 <0>         0.1385
     39 H12         3.7085   -0.3060   -2.7686 H         1 <0>         0.1270
     40 H13         2.5452    0.4892   -0.7526 H         1 <0>         0.1312
     41 H14         4.4515   -0.9615   -4.3151 H         1 <0>         0.4192
     42 H15         3.0806   -3.1298   -7.1019 H         1 <0>         0.2130
     43 H16         4.1816   -4.1733   -9.5162 H         1 <0>         0.1730
     44 H17         8.2537   -3.0775  -10.1474 H         1 <0>         0.1524
     45 H18         8.2485   -1.8226   -8.0463 H         1 <0>         0.1646
     46 H19         7.6156   -6.0500  -10.7760 H         1 <0>         0.1788
     47 H20         7.0238   -6.7633  -13.2307 H         1 <0>         0.1761
     48 H21         4.7609   -3.3271  -12.3712 H         1 <0>         0.2085
@<TRIPOS>BOND
     1    1    2 1
     2    1   28 1
     3    1   29 1
     4    1   30 1
     5    2    3 1
     6    2    4 1
     7    2    5 1
     8    3   31 1
     9    3   32 1
    10    3   33 1
    11    4   34 1
    12    4   35 1
    13    4   36 1
    14    5   10 ar
    15    5    6 ar
    16    6    7 ar
    17    6   37 1
    18    7    8 ar
    19    7   38 1
    20    8    9 ar
    21    8   11 1
    22    9   10 ar
    23    9   39 1
    24   10   40 1
    25   11   12 2
    26   11   13 am
    27   13   14 1
    28   13   41 1
    29   14   22 1
    30   14   15 2
    31   15   16 1
    32   15   42 1
    33   16   21 1
    34   16   17 1
    35   17   18 2
    36   17   43 1
    37   18   19 1
    38   18   23 1
    39   19   20 2
    40   19   44 1
    41   20   21 1
    42   20   45 1
    43   21   22 2
    44   23   27 1
    45   23   24 1
    46   24   25 2
    47   24   46 1
    48   25   26 1
    49   25   47 1
    50   26   27 2
    51   27   48 1
@<TRIPOS>MOLECULE
ZINC18119189
   36    39     0     0     0
SMALL
USER_CHARGES

@<TRIPOS>ATOM
      1 C1          0.3103    0.8981   -1.1103 C.3       1 <0>         0.0966
      2 N1          0.0021   -0.0041    0.0020 N.pl3     1 <0>        -0.7497
      3 C2         -1.1867   -0.7122    0.0096 C.2       1 <0>         0.1293
      4 C3         -1.1863   -2.0941   -0.0960 C.2       1 <0>        -0.0224
      5 C4         -2.4712   -2.8011   -0.0829 C.ar      1 <0>        -0.0539
      6 C5         -2.5096   -4.2059   -0.1887 C.ar      1 <0>        -0.1128
      7 C6         -3.7403   -4.8602   -0.1748 C.ar      1 <0>        -0.0757
      8 C7         -4.9093   -4.1304   -0.0578 C.ar      1 <0>        -0.0859
      9 C8         -4.8793   -2.7537    0.0458 C.ar      1 <0>        -0.1259
     10 C9         -3.6644   -2.0729    0.0352 C.ar      1 <0>         0.1647
     11 N2         -3.6318   -0.6965    0.1381 N.am      1 <0>        -0.5192
     12 C10        -2.4739   -0.0136    0.1358 C.2       1 <0>         0.5237
     13 O1         -2.4918    1.2002    0.2342 O.2       1 <0>        -0.5148
     14 C11        -4.8929    0.0391    0.2597 C.3       1 <0>         0.0615
     15 C12        -1.2554   -4.9658   -0.3119 C.2       1 <0>         0.4372
     16 O2         -1.2841   -6.1791   -0.4041 O.2       1 <0>        -0.4411
     17 C13         0.0345   -4.2555   -0.3240 C.ar      1 <0>        -0.1513
     18 C14         0.0694   -2.8505   -0.2189 C.ar      1 <0>        -0.0003
     19 C15         1.2970   -2.1893   -0.2316 C.ar      1 <0>        -0.1389
     20 C16         2.4665   -2.9117   -0.3468 C.ar      1 <0>        -0.0882
     21 C17         2.4328   -4.2936   -0.4508 C.ar      1 <0>        -0.1248
     22 C18         1.2299   -4.9674   -0.4409 C.ar      1 <0>        -0.0580
     23 H1          1.2813    1.3637   -0.9422 H         1 <0>         0.0768
     24 H2          0.3352    0.3317   -2.0413 H         1 <0>         0.0501
     25 H3         -0.4565    1.6701   -1.1752 H         1 <0>         0.0575
     26 H4          0.6314   -0.1050    0.7332 H         1 <0>         0.4072
     27 H5         -3.7810   -5.9364   -0.2556 H         1 <0>         0.1449
     28 H6         -5.8590   -4.6444   -0.0477 H         1 <0>         0.1424
     29 H7         -5.8033   -2.2018    0.1359 H         1 <0>         0.1433
     30 H8         -5.1524    0.1437    1.3132 H         1 <0>         0.0752
     31 H9         -4.7817    1.0271   -0.1870 H         1 <0>         0.0944
     32 H10        -5.6829   -0.5063   -0.2566 H         1 <0>         0.0874
     33 H11         1.3321   -1.1128   -0.1518 H         1 <0>         0.1676
     34 H12         3.4157   -2.3966   -0.3564 H         1 <0>         0.1319
     35 H13         3.3560   -4.8467   -0.5412 H         1 <0>         0.1323
     36 H14         1.2124   -6.0441   -0.5230 H         1 <0>         0.1388
@<TRIPOS>BOND
     1    1    2 1
     2    1   23 1
     3    1   24 1
     4    1   25 1
     5    2    3 1
     6    2   26 1
     7    3   12 1
     8    3    4 2
     9    4   18 1
    10    4    5 1
    11    5   10 ar
    12    5    6 ar
    13    6    7 ar
    14    6   15 1
    15    7    8 ar
    16    7   27 1
    17    8    9 ar
    18    8   28 1
    19    9   10 ar
    20    9   29 1
    21   10   11 1
    22   11   12 am
    23   11   14 1
    24   12   13 2
    25   14   30 1
    26   14   31 1
    27   14   32 1
    28   15   16 2
    29   15   17 1
    30   17   22 ar
    31   17   18 ar
    32   18   19 ar
    33   19   20 ar
    34   19   33 1
    35   20   21 ar
    36   20   34 1
    37   21   22 ar
    38   21   35 1
    39   22   36 1
@<TRIPOS>MOLECULE
ZINC13615739
   39    42     0     0     0
SMALL
USER_CHARGES

@<TRIPOS>ATOM
      1 C1         -0.5268    1.6178   -0.8572 C.3       1 <0>        -0.1653
      2 C2         -0.6497    0.1140   -1.1108 C.3       1 <0>         0.1237
      3 N1          0.6878   -0.4765   -1.2033 N.pl3     1 <0>        -0.7464
      4 C3          0.8306   -1.8339   -1.4309 C.2       1 <0>         0.1308
      5 C4          1.3895   -2.2971   -2.6116 C.2       1 <0>        -0.0234
      6 C5          1.5207   -3.7447   -2.8075 C.ar      1 <0>        -0.0534
      7 C6          2.0838   -4.2520   -3.9957 C.ar      1 <0>        -0.1130
      8 C7          2.1998   -5.6309   -4.1640 C.ar      1 <0>        -0.0757
      9 C8          1.7639   -6.4872   -3.1693 C.ar      1 <0>        -0.0862
     10 C9          1.2107   -5.9972   -2.0027 C.ar      1 <0>        -0.1258
     11 C10         1.0825   -4.6243   -1.8065 C.ar      1 <0>         0.1646
     12 N2          0.5293   -4.1320   -0.6414 N.am      1 <0>        -0.5193
     13 C11         0.3979   -2.8121   -0.4226 C.2       1 <0>         0.5236
     14 O1         -0.0911   -2.4218    0.6223 O.2       1 <0>        -0.5144
     15 C12         0.0795   -5.0732    0.3872 C.3       1 <0>         0.0616
     16 C13         2.5424   -3.3254   -5.0429 C.2       1 <0>         0.4373
     17 O2          3.0288   -3.7595   -6.0707 O.2       1 <0>        -0.4413
     18 C14         2.4115   -1.8721   -4.8452 C.ar      1 <0>        -0.1514
     19 C15         1.8472   -1.3679   -3.6563 C.ar      1 <0>         0.0002
     20 C16         1.7283    0.0103   -3.4807 C.ar      1 <0>        -0.1401
     21 C17         2.1624    0.8696   -4.4687 C.ar      1 <0>        -0.0884
     22 C18         2.7170    0.3743   -5.6386 C.ar      1 <0>        -0.1249
     23 C19         2.8434   -0.9848   -5.8329 C.ar      1 <0>        -0.0580
     24 H1          0.0100    1.7862    0.0764 H         1 <0>         0.0635
     25 H2          0.0190    2.0815   -1.6789 H         1 <0>         0.0613
     26 H3         -1.5220    2.0572   -0.7884 H         1 <0>         0.0749
     27 H4         -1.1956   -0.3496   -0.2891 H         1 <0>         0.0651
     28 H5         -1.1866   -0.0543   -2.0444 H         1 <0>         0.0574
     29 H6          1.4733    0.0840   -1.1050 H         1 <0>         0.4057
     30 H7          2.6295   -6.0302   -5.0708 H         1 <0>         0.1447
     31 H8          1.8572   -7.5544   -3.3069 H         1 <0>         0.1423
     32 H9          0.8760   -6.6824   -1.2380 H         1 <0>         0.1432
     33 H10         0.9002   -5.2805    1.0739 H         1 <0>         0.0750
     34 H11        -0.7542   -4.6380    0.9383 H         1 <0>         0.0943
     35 H12        -0.2422   -6.0013   -0.0852 H         1 <0>         0.0873
     36 H13         1.2967    0.4044   -2.5726 H         1 <0>         0.1686
     37 H14         2.0690    1.9366   -4.3298 H         1 <0>         0.1313
     38 H15         3.0520    1.0584   -6.4042 H         1 <0>         0.1321
     39 H16         3.2760   -1.3624   -6.7476 H         1 <0>         0.1387
@<TRIPOS>BOND
     1    1    2 1
     2    1   24 1
     3    1   25 1
     4    1   26 1
     5    2    3 1
     6    2   27 1
     7    2   28 1
     8    3    4 1
     9    3   29 1
    10    4   13 1
    11    4    5 2
    12    5   19 1
    13    5    6 1
    14    6   11 ar
    15    6    7 ar
    16    7    8 ar
    17    7   16 1
    18    8    9 ar
    19    8   30 1
    20    9   10 ar
    21    9   31 1
    22   10   11 ar
    23   10   32 1
    24   11   12 1
    25   12   13 am
    26   12   15 1
    27   13   14 2
    28   15   33 1
    29   15   34 1
    30   15   35 1
    31   16   17 2
    32   16   18 1
    33   18   23 ar
    34   18   19 ar
    35   19   20 ar
    36   20   21 ar
    37   20   36 1
    38   21   22 ar
    39   21   37 1
    40   22   23 ar
    41   22   38 1
    42   23   39 1
@<TRIPOS>MOLECULE
ZINC17175232
   28    30     0     0     0
SMALL
USER_CHARGES

@<TRIPOS>ATOM
      1 C1         -0.0163    1.3518    0.0095 C.2       1 <0>        -0.1320
      2 C2          1.3148    1.7902   -0.0009 C.2       1 <0>        -0.0473
      3 C3          2.1177    0.6382   -0.0541 C.2       1 <0>        -0.0284
      4 N1          1.2938   -0.4402   -0.0184 N.pl3     1 <0>        -0.4947
      5 H1          1.5772   -1.3679   -0.0093 H         1 <0>         0.4228
      6 C4          0.0021   -0.0041    0.0020 C.2       1 <0>         0.0135
      7 Br1        -1.5265   -1.1172    0.0181 Br        1 <0>         0.0029
      8 C5          3.5766    0.7389   -0.1870 C.2       1 <0>         0.6051
      9 O1          4.1929    0.0169   -0.9490 O.2       1 <0>        -0.5408
     10 N2          4.2121    1.6686    0.5723 N.am      1 <0>        -0.7065
     11 C6          3.5429    2.2863    1.7070 C.3       1 <0>         0.1163
     12 C7          2.6757    3.4872    1.3174 C.3       1 <0>        -0.0871
     13 C8          1.8765    3.1423    0.0746 C.2       1 <0>        -0.1143
     14 C9          1.6898    4.0463   -0.9242 C.2       1 <0>         0.1008
     15 C10         2.1957    5.4237   -0.9853 C.2       1 <0>         0.4669
     16 O2          2.9467    6.0446   -0.0478 O.3       1 <0>        -0.6390
     17 N3          1.7827    5.9409   -2.1226 N.2       1 <0>        -0.6194
     18 C11         1.0592    5.0459   -2.8124 C.2       1 <0>         0.5785
     19 N4          0.9806    3.8605   -2.1141 N.pl3     1 <0>        -0.7302
     20 N5          0.5113    5.2654   -3.9838 N.2       1 <0>        -0.7896
     21 H2         -0.8955    1.9789    0.0252 H         1 <0>         0.1528
     22 H3          5.1227    1.9234    0.3559 H         1 <0>         0.4078
     23 H4          2.9112    1.5403    2.1892 H         1 <0>         0.0663
     24 H5          4.2974    2.6164    2.4210 H         1 <0>         0.0851
     25 H6          1.9946    3.7249    2.1345 H         1 <0>         0.0799
     26 H7          3.3144    4.3465    1.1128 H         1 <0>         0.1130
     27 H8          0.5205    3.0537   -2.3935 H         1 <0>         0.4017
     28 H9          0.0011    4.5649   -4.4195 H         1 <0>         0.3159
@<TRIPOS>BOND
     1    1    6 2
     2    1    2 1
     3    1   21 1
     4    2   13 1
     5    2    3 2
     6    3    4 1
     7    3    8 1
     8    4    5 1
     9    4    6 1
    10    6    7 1
    11    8    9 2
    12    8   10 am
    13   10   11 1
    14   10   22 1
    15   11   12 1
    16   11   23 1
    17   11   24 1
    18   12   13 1
    19   12   25 1
    20   12   26 1
    21   13   14 2
    22   14   19 1
    23   14   15 1
    24   15   16 1
    25   15   17 2
    26   17   18 1
    27   18   19 1
    28   18   20 2
    29   19   27 1
    30   20   28 1
@<TRIPOS>MOLECULE
ZINC17175232
   28    30     0     0     0
SMALL
USER_CHARGES

@<TRIPOS>ATOM
      1 C1         -0.0163    1.3518    0.0095 C.2       1 <0>        -0.1303
      2 C2          1.3148    1.7902   -0.0009 C.2       1 <0>        -0.0482
      3 C3          2.1177    0.6382   -0.0541 C.2       1 <0>        -0.0280
      4 N1          1.2938   -0.4402   -0.0184 N.pl3     1 <0>        -0.4947
      5 H1          1.5772   -1.3679   -0.0093 H         1 <0>         0.4228
      6 C4          0.0021   -0.0041    0.0020 C.2       1 <0>         0.0141
      7 Br1        -1.5265   -1.1172    0.0181 Br        1 <0>         0.0028
      8 C5          3.5766    0.7389   -0.1870 C.2       1 <0>         0.6054
      9 O1          4.1929    0.0169   -0.9490 O.2       1 <0>        -0.5403
     10 N2          4.2121    1.6686    0.5723 N.am      1 <0>        -0.7071
     11 C6          3.5429    2.2863    1.7070 C.3       1 <0>         0.1165
     12 C7          2.6757    3.4872    1.3174 C.3       1 <0>        -0.0863
     13 C8          1.8765    3.1423    0.0746 C.2       1 <0>        -0.1135
     14 C9          1.6898    4.0463   -0.9242 C.2       1 <0>         0.1071
     15 C10         2.1957    5.4237   -0.9853 C.2       1 <0>         0.4664
     16 O2          2.9467    6.0446   -0.0478 O.3       1 <0>        -0.6433
     17 N3          1.7827    5.9409   -2.1226 N.2       1 <0>        -0.6748
     18 C11         1.0592    5.0459   -2.8124 C.2       1 <0>         0.5688
     19 N4          0.9806    3.8605   -2.1141 N.pl3     1 <0>        -0.6803
     20 N5          0.5113    5.2654   -3.9838 N.2       1 <0>        -0.8118
     21 H2         -0.8955    1.9789    0.0252 H         1 <0>         0.1537
     22 H3          5.1227    1.9234    0.3559 H         1 <0>         0.4075
     23 H4          2.9112    1.5403    2.1892 H         1 <0>         0.0668
     24 H5          4.2974    2.6164    2.4210 H         1 <0>         0.0848
     25 H6          1.9946    3.7249    2.1345 H         1 <0>         0.0802
     26 H7          3.3144    4.3465    1.1128 H         1 <0>         0.1125
     27 H8          0.6165    6.1282   -4.4144 H         1 <0>         0.3376
     28 H9          0.5205    3.0537   -2.3935 H         1 <0>         0.4116
@<TRIPOS>BOND
     1    1    6 2
     2    1    2 1
     3    1   21 1
     4    2   13 1
     5    2    3 2
     6    3    4 1
     7    3    8 1
     8    4    5 1
     9    4    6 1
    10    6    7 1
    11    8    9 2
    12    8   10 am
    13   10   11 1
    14   10   22 1
    15   11   12 1
    16   11   23 1
    17   11   24 1
    18   12   13 1
    19   12   25 1
    20   12   26 1
    21   13   14 2
    22   14   19 1
    23   14   15 1
    24   15   16 1
    25   15   17 2
    26   17   18 1
    27   18   19 1
    28   18   20 2
    29   19   28 1
    30   20   27 1
@<TRIPOS>MOLECULE
ZINC17175232
   28    30     0     0     0
SMALL
USER_CHARGES

@<TRIPOS>ATOM
      1 C1         -0.0163    1.3522    0.0095 C.2       1 <0>        -0.1304
      2 C2          1.3145    1.7899   -0.0009 C.2       1 <0>        -0.0459
      3 C3          2.1168    0.6384   -0.0541 C.2       1 <0>        -0.0300
      4 N1          1.2937   -0.4395   -0.0184 N.pl3     1 <0>        -0.4944
      5 H1          1.5775   -1.3670   -0.0089 H         1 <0>         0.4225
      6 C4          0.0021   -0.0041    0.0020 C.2       1 <0>         0.0140
      7 Br1        -1.5262   -1.1176    0.0181 Br        1 <0>         0.0029
      8 C5          3.5767    0.7391   -0.1874 C.2       1 <0>         0.6062
      9 O1          4.1928    0.0172   -0.9493 O.2       1 <0>        -0.5393
     10 N2          4.2125    1.6688    0.5718 N.am      1 <0>        -0.7083
     11 C6          3.5436    2.2865    1.7066 C.3       1 <0>         0.1168
     12 C7          2.6766    3.4877    1.3173 C.3       1 <0>        -0.0808
     13 C8          1.8770    3.1431    0.0747 C.2       1 <0>        -0.1250
     14 C9          1.6904    4.0451   -0.9215 C.2       1 <0>         0.0817
     15 C10         2.1965    5.4312   -0.9893 C.2       1 <0>         0.5130
     16 O2          2.8748    6.0047   -0.1528 O.2       1 <0>        -0.5579
     17 N3          1.7619    5.9328   -2.1536 N.2       1 <0>        -0.7162
     18 C11         1.0563    5.0350   -2.8068 C.2       1 <0>         0.5692
     19 N4          0.9819    3.8661   -2.1131 N.pl3     1 <0>        -0.6705
     20 N5          0.4771    5.2468   -4.0277 N.2       1 <0>        -0.8527
     21 H2         -0.8954    1.9794    0.0253 H         1 <0>         0.1535
     22 H3          5.1230    1.9236    0.3550 H         1 <0>         0.4071
     23 H4          2.9118    1.5406    2.1889 H         1 <0>         0.0681
     24 H5          4.2983    2.6165    2.4205 H         1 <0>         0.0845
     25 H6          1.9957    3.7255    2.1345 H         1 <0>         0.0803
     26 H7          3.3154    4.3469    1.1126 H         1 <0>         0.1016
     27 H8          0.5214    3.0596   -2.3928 H         1 <0>         0.4083
     28 H9          0.5746    6.1055   -4.4684 H         1 <0>         0.3216
@<TRIPOS>BOND
     1    1    6 2
     2    1    2 1
     3    1   21 1
     4    2   13 1
     5    2    3 2
     6    3    4 1
     7    3    8 1
     8    4    5 1
     9    4    6 1
    10    6    7 1
    11    8    9 2
    12    8   10 am
    13   10   11 1
    14   10   22 1
    15   11   12 1
    16   11   23 1
    17   11   24 1
    18   12   13 1
    19   12   25 1
    20   12   26 1
    21   13   14 2
    22   14   19 1
    23   14   15 1
    24   15   16 2
    25   15   17 1
    26   17   18 2
    27   18   19 1
    28   18   20 1
    29   19   27 1
    30   20   28 1
@<TRIPOS>MOLECULE
ZINC17175232
   29    31     0     0     0
SMALL
USER_CHARGES

@<TRIPOS>ATOM
      1 C1         -0.0163    1.3522    0.0095 C.2       1 <0>        -0.1233
      2 C2          1.3145    1.7899   -0.0009 C.2       1 <0>        -0.1048
      3 C3          2.1168    0.6384   -0.0541 C.2       1 <0>        -0.0013
      4 N1          1.2937   -0.4395   -0.0184 N.pl3     1 <0>        -0.4850
      5 H1          1.5775   -1.3670   -0.0089 H         1 <0>         0.4308
      6 C4          0.0021   -0.0041    0.0020 C.2       1 <0>         0.0189
      7 Br1        -1.5262   -1.1176    0.0181 Br        1 <0>         0.0227
      8 C5          3.5767    0.7391   -0.1874 C.2       1 <0>         0.5973
      9 O1          4.1928    0.0172   -0.9493 O.2       1 <0>        -0.5214
     10 N2          4.2125    1.6688    0.5718 N.am      1 <0>        -0.7121
     11 C6          3.5436    2.2865    1.7066 C.3       1 <0>         0.1126
     12 C7          2.6766    3.4877    1.3173 C.3       1 <0>        -0.1046
     13 C8          1.8770    3.1431    0.0747 C.2       1 <0>         0.0171
     14 C9          1.6904    4.0451   -0.9215 C.2       1 <0>        -0.0013
     15 C10         2.1965    5.4312   -0.9893 C.2       1 <0>         0.5402
     16 O2          2.8748    6.0047   -0.1528 O.2       1 <0>        -0.4687
     17 N3          1.7619    5.9328   -2.1536 N.2       1 <0>        -0.6424
     18 C11         1.0563    5.0350   -2.8068 C.2       1 <0>         0.6571
     19 N4          0.9819    3.8661   -2.1131 N.pl3     1 <0>        -0.6656
     20 N5          0.4771    5.2468   -4.0277 N.pl3     1 <0>        -0.8040
     21 H2         -0.8954    1.9794    0.0253 H         1 <0>         0.1589
     22 H3          5.1230    1.9236    0.3550 H         1 <0>         0.4127
     23 H4          2.9118    1.5406    2.1889 H         1 <0>         0.0771
     24 H5          4.2983    2.6165    2.4205 H         1 <0>         0.0983
     25 H6          1.9957    3.7255    2.1345 H         1 <0>         0.1057
     26 H7          3.3154    4.3469    1.1126 H         1 <0>         0.1089
     27 H8          0.5214    3.0596   -2.3928 H         1 <0>         0.4258
     28 H9          0.5746    6.1055   -4.4684 H         1 <0>         0.4334
     29 H10        -0.0311    4.5384   -4.4529 H         1 <0>         0.4171
@<TRIPOS>BOND
     1    1    6 2
     2    1    2 1
     3    1   21 1
     4    2   13 1
     5    2    3 2
     6    3    4 1
     7    3    8 1
     8    4    5 1
     9    4    6 1
    10    6    7 1
    11    8    9 2
    12    8   10 am
    13   10   11 1
    14   10   22 1
    15   11   12 1
    16   11   23 1
    17   11   24 1
    18   12   13 1
    19   12   25 1
    20   12   26 1
    21   13   14 2
    22   14   19 1
    23   14   15 1
    24   15   16 2
    25   15   17 1
    26   17   18 2
    27   18   19 1
    28   18   20 1
    29   19   27 1
    30   20   28 1
    31   20   29 1
@<TRIPOS>MOLECULE
ZINC17175232
   29    31     0     0     0
SMALL
USER_CHARGES

@<TRIPOS>ATOM
      1 C1         -0.0163    1.3522    0.0095 C.2       1 <0>        -0.0939
      2 C2          1.3145    1.7899   -0.0009 C.2       1 <0>        -0.0817
      3 C3          2.1168    0.6384   -0.0541 C.2       1 <0>        -0.0085
      4 N1          1.2937   -0.4395   -0.0184 N.pl3     1 <0>        -0.4867
      5 H1          1.5775   -1.3670   -0.0089 H         1 <0>         0.4287
      6 C4          0.0021   -0.0041    0.0020 C.2       1 <0>         0.0190
      7 Br1        -1.5262   -1.1176    0.0181 Br        1 <0>         0.0181
      8 C5          3.5767    0.7391   -0.1874 C.2       1 <0>         0.6011
      9 O1          4.1928    0.0172   -0.9493 O.2       1 <0>        -0.5178
     10 N2          4.2125    1.6688    0.5718 N.am      1 <0>        -0.7188
     11 C6          3.5436    2.2865    1.7066 C.3       1 <0>         0.1140
     12 C7          2.6766    3.4877    1.3173 C.3       1 <0>        -0.1023
     13 C8          1.8770    3.1431    0.0747 C.2       1 <0>         0.0104
     14 C9          1.6904    4.0451   -0.9215 C.2       1 <0>         0.0011
     15 C10         0.9363    3.8581   -2.1778 C.2       1 <0>         0.5331
     16 O2          0.3478    2.8508   -2.5352 O.2       1 <0>        -0.4515
     17 N3          1.0276    5.0160   -2.8462 N.2       1 <0>        -0.6417
     18 C11         1.7387    5.8869   -2.1633 C.2       1 <0>         0.6550
     19 N4          2.1642    5.3588   -0.9829 N.pl3     1 <0>        -0.6695
     20 N5          2.0107    7.1602   -2.5824 N.pl3     1 <0>        -0.8051
     21 H2         -0.8954    1.9794    0.0253 H         1 <0>         0.1559
     22 H3          5.1230    1.9236    0.3550 H         1 <0>         0.4096
     23 H4          2.9118    1.5406    2.1889 H         1 <0>         0.0822
     24 H5          4.2983    2.6165    2.4205 H         1 <0>         0.0947
     25 H6          1.9957    3.7255    2.1345 H         1 <0>         0.1060
     26 H7          3.3154    4.3469    1.1126 H         1 <0>         0.0753
     27 H8          2.6983    5.8097   -0.3104 H         1 <0>         0.4239
     28 H9          1.6708    7.4730   -3.4354 H         1 <0>         0.4333
     29 H10         2.5433    7.7504   -2.0267 H         1 <0>         0.4164
@<TRIPOS>BOND
     1    1    6 2
     2    1    2 1
     3    1   21 1
     4    2   13 1
     5    2    3 2
     6    3    4 1
     7    3    8 1
     8    4    5 1
     9    4    6 1
    10    6    7 1
    11    8    9 2
    12    8   10 am
    13   10   11 1
    14   10   22 1
    15   11   12 1
    16   11   23 1
    17   11   24 1
    18   12   13 1
    19   12   25 1
    20   12   26 1
    21   13   14 2
    22   14   19 1
    23   14   15 1
    24   15   16 2
    25   15   17 1
    26   17   18 2
    27   18   19 1
    28   18   20 1
    29   19   27 1
    30   20   28 1
    31   20   29 1
@<TRIPOS>MOLECULE
ZINC17175232
   28    30     0     0     0
SMALL
USER_CHARGES

@<TRIPOS>ATOM
      1 C1         -0.0163    1.3522    0.0095 C.2       1 <0>        -0.0983
      2 C2          1.3145    1.7899   -0.0009 C.2       1 <0>        -0.0189
      3 C3          2.1168    0.6384   -0.0541 C.2       1 <0>        -0.0368
      4 N1          1.2937   -0.4395   -0.0184 N.pl3     1 <0>        -0.4973
      5 H1          1.5775   -1.3670   -0.0089 H         1 <0>         0.4202
      6 C4          0.0021   -0.0041    0.0020 C.2       1 <0>         0.0129
      7 Br1        -1.5262   -1.1176    0.0181 Br        1 <0>        -0.0030
      8 C5          3.5767    0.7391   -0.1874 C.2       1 <0>         0.6096
      9 O1          4.1928    0.0172   -0.9493 O.2       1 <0>        -0.5369
     10 N2          4.2125    1.6688    0.5718 N.am      1 <0>        -0.7148
     11 C6          3.5436    2.2865    1.7066 C.3       1 <0>         0.1186
     12 C7          2.6766    3.4877    1.3173 C.3       1 <0>        -0.0808
     13 C8          1.8770    3.1431    0.0747 C.2       1 <0>        -0.1306
     14 C9          1.6904    4.0451   -0.9215 C.2       1 <0>         0.0830
     15 C10         0.9363    3.8581   -2.1778 C.2       1 <0>         0.5087
     16 O2          0.3478    2.8508   -2.5352 O.2       1 <0>        -0.5423
     17 N3          1.0276    5.0160   -2.8462 N.2       1 <0>        -0.7196
     18 C11         1.7387    5.8869   -2.1633 C.2       1 <0>         0.5696
     19 N4          2.1642    5.3588   -0.9829 N.pl3     1 <0>        -0.6730
     20 N5          2.0107    7.1602   -2.5824 N.2       1 <0>        -0.8577
     21 H2         -0.8954    1.9794    0.0253 H         1 <0>         0.1497
     22 H3          5.1230    1.9236    0.3550 H         1 <0>         0.4047
     23 H4          2.9118    1.5406    2.1889 H         1 <0>         0.0739
     24 H5          4.2983    2.6165    2.4205 H         1 <0>         0.0821
     25 H6          1.9957    3.7255    2.1345 H         1 <0>         0.0832
     26 H7          3.3154    4.3469    1.1126 H         1 <0>         0.0659
     27 H8          2.6983    5.8097   -0.3104 H         1 <0>         0.4064
     28 H9          1.6708    7.4730   -3.4354 H         1 <0>         0.3214
@<TRIPOS>BOND
     1    1    6 2
     2    1    2 1
     3    1   21 1
     4    2   13 1
     5    2    3 2
     6    3    4 1
     7    3    8 1
     8    4    5 1
     9    4    6 1
    10    6    7 1
    11    8    9 2
    12    8   10 am
    13   10   11 1
    14   10   22 1
    15   11   12 1
    16   11   23 1
    17   11   24 1
    18   12   13 1
    19   12   25 1
    20   12   26 1
    21   13   14 2
    22   14   19 1
    23   14   15 1
    24   15   16 2
    25   15   17 1
    26   17   18 2
    27   18   19 1
    28   18   20 1
    29   19   27 1
    30   20   28 1
