@<TRIPOS>MOLECULE
ZINC05600741
   25    25     0     0     0
SMALL
USER_CHARGES
2-(1,2-dihydroxyethyl)pyrrolidine-3,4-diol
@<TRIPOS>ATOM
      1 C1         -1.0286   -0.9013   -3.6267 C.3       1 <0>        -0.0432
      2 C2         -0.8691    0.2420   -4.6598 C.3       1 <0>         0.0563
      3 H1          0.0706    0.1481   -5.2041 H         1 <0>         0.1042
      4 C3         -0.8560    1.4968   -3.7433 C.3       1 <0>         0.1088
      5 H2         -0.3119    2.3155   -4.2142 H         1 <0>         0.1153
      6 C4         -0.1114    0.9981   -2.4870 C.3       1 <0>        -0.0055
      7 H3          0.9384    1.2868   -2.5391 H         1 <0>         0.1581
      8 C5         -0.7527    1.5927   -1.2315 C.3       1 <0>         0.1087
      9 H4         -1.7985    1.2898   -1.1795 H         1 <0>         0.1340
     10 C6         -0.0127    1.0858    0.0080 C.3       1 <0>         0.0310
     11 O1         -0.6816    1.5467    1.1837 O.3       1 <0>        -0.5492
     12 O2         -0.6718    3.0184   -1.2848 O.3       1 <0>        -0.5084
     13 O3         -2.1884    1.8963   -3.4156 O.3       1 <0>        -0.5349
     14 O4         -1.9780    0.2764   -5.5604 O.3       1 <0>        -0.5331
     15 H5         -0.6392   -1.8355   -4.0315 H         1 <0>         0.1442
     16 H6         -2.0755   -1.0156   -3.3458 H         1 <0>         0.1453
     17 H7          0.0021   -0.0041    0.0020 H         1 <0>         0.0438
     18 H8          1.0099    1.4631    0.0003 H         1 <0>         0.0655
     19 H9         -0.2663    1.2624    2.0094 H         1 <0>         0.3963
     20 H10         0.2318    3.3595   -1.3326 H         1 <0>         0.3814
     21 H11        -2.6994    2.2181   -4.1708 H         1 <0>         0.4092
     22 H12        -2.0822   -0.5280   -6.0870 H         1 <0>         0.4032
     23 N1         -0.2293   -0.4678   -2.4656 N.4       1 <0>        -0.5082
     24 H13         0.7057   -0.8892   -2.5144 H         1 <0>         0.4398
     25 H14        -0.6931   -0.7633   -1.5985 H         1 <0>         0.4373
@<TRIPOS>BOND
     1    1    2 1
     2    1   15 1
     3    1   16 1
     4    1   23 1
     5    2    3 1
     6    2    4 1
     7    2   14 1
     8    4    5 1
     9    4    6 1
    10    4   13 1
    11    6    7 1
    12    6    8 1
    13    6   23 1
    14    8    9 1
    15    8   10 1
    16    8   12 1
    17   10   11 1
    18   10   17 1
    19   10   18 1
    20   11   19 1
    21   12   20 1
    22   13   21 1
    23   14   22 1
    24   23   24 1
    25   23   25 1
@<TRIPOS>MOLECULE
ZINC06494227
   24    24     0     0     0
SMALL
USER_CHARGES
2-(1-hydroxyethyl)pyrrolidine-3,4-diol
@<TRIPOS>ATOM
      1 C1         -2.0143    5.2722    0.9395 C.3       1 <0>        -0.2114
      2 C2         -1.2134    4.0826    1.4730 C.3       1 <0>         0.1143
      3 H1         -0.1482    4.2752    1.3453 H         1 <0>         0.1234
      4 C3         -1.5997    2.8200    0.7000 C.3       1 <0>        -0.0107
      5 H2         -2.6680    2.6317    0.8069 H         1 <0>         0.1503
      6 C4         -0.7992    1.6156    1.2290 C.3       1 <0>         0.1059
      7 H3         -1.4739    0.8473    1.6067 H         1 <0>         0.1094
      8 C5         -0.0127    1.0858    0.0080 C.3       1 <0>         0.0422
      9 H4          0.0021   -0.0041    0.0020 H         1 <0>         0.1144
     10 C6         -0.8241    1.6298   -1.1946 C.3       1 <0>        -0.0399
     11 O1          1.3175    1.6078   -0.0019 O.3       1 <0>        -0.5393
     12 O2          0.1021    2.0319    2.2569 O.3       1 <0>        -0.5167
     13 O3         -1.5012    3.8984    2.8605 O.3       1 <0>        -0.5138
     14 H5         -3.0795    5.0796    1.0672 H         1 <0>         0.0739
     15 H6         -1.7391    6.1717    1.4902 H         1 <0>         0.0933
     16 H7         -1.7947    5.4127   -0.1188 H         1 <0>         0.0622
     17 H8         -0.1932    1.7093   -2.0799 H         1 <0>         0.1469
     18 H9         -1.6890    0.9968   -1.3930 H         1 <0>         0.1470
     19 H10         1.8411    1.3357   -0.7680 H         1 <0>         0.3981
     20 H11         0.6641    1.3228    2.5981 H         1 <0>         0.3992
     21 H12        -2.4332    3.7225    3.0489 H         1 <0>         0.3794
     22 N1         -1.2549    2.9544   -0.7168 N.4       1 <0>        -0.5042
     23 H13        -0.4924    3.6327   -0.8293 H         1 <0>         0.4376
     24 H14        -2.0746    3.2695   -1.2488 H         1 <0>         0.4386
@<TRIPOS>BOND
     1    1    2 1
     2    1   14 1
     3    1   15 1
     4    1   16 1
     5    2    3 1
     6    2    4 1
     7    2   13 1
     8    4    5 1
     9    4    6 1
    10    4   22 1
    11    6    7 1
    12    6    8 1
    13    6   12 1
    14    8    9 1
    15    8   10 1
    16    8   11 1
    17   10   17 1
    18   10   18 1
    19   10   22 1
    20   11   19 1
    21   12   20 1
    22   13   21 1
    23   22   23 1
    24   22   24 1
@<TRIPOS>MOLECULE
ZINC03875041
   28    29     0     0     0
SMALL
USER_CHARGES

@<TRIPOS>ATOM
      1 C1         -0.0188    1.5321    0.0105 C.3       1 <0>        -0.1450
      2 C2          1.4030    2.0927   -0.0001 C.3       1 <0>        -0.1775
      3 C3          2.2119    1.4924   -1.1609 C.3       1 <0>         0.1055
      4 H1          1.7723    1.7919   -2.1124 H         1 <0>         0.0895
      5 C4          2.1574   -0.0227   -1.0201 C.3       1 <0>         0.0429
      6 H2          2.5491   -0.3363   -0.0524 H         1 <0>         0.1609
      7 C5          2.8582   -0.7742   -2.1651 C.3       1 <0>         0.1044
      8 H3          3.9230   -0.8880   -1.9619 H         1 <0>         0.1209
      9 C6          2.1374   -2.1504   -2.1360 C.3       1 <0>         0.0557
     10 H4          2.7220   -2.8724   -1.5659 H         1 <0>         0.1104
     11 C7          0.7846   -1.8786   -1.4336 C.3       1 <0>        -0.0388
     12 N1          0.7372   -0.4335   -1.1785 N.4       1 <0>        -0.3840
     13 C8          0.0021   -0.0041    0.0020 C.3       1 <0>        -0.0060
     14 O1          1.9220   -2.6264   -3.4661 O.3       1 <0>        -0.5417
     15 O2          2.6473   -0.1129   -3.4141 O.3       1 <0>        -0.5454
     16 O3          3.5673    1.9395   -1.0904 O.3       1 <0>        -0.5451
     17 H5         -0.5347    1.8791    0.9057 H         1 <0>         0.1192
     18 H6         -0.5517    1.8886   -0.8710 H         1 <0>         0.0908
     19 H7          1.3613    3.1760   -0.1134 H         1 <0>         0.0999
     20 H8          1.8924    1.8491    0.9429 H         1 <0>         0.0915
     21 H9         -0.0409   -2.1785   -2.0791 H         1 <0>         0.1421
     22 H10         0.7376   -2.4177   -0.4874 H         1 <0>         0.1373
     23 H11         0.4990   -0.3713    0.9000 H         1 <0>         0.1318
     24 H12        -1.0177   -0.3867   -0.0389 H         1 <0>         0.1356
     25 H13         1.4749   -3.4828   -3.5097 H         1 <0>         0.4012
     26 H14         3.0699   -0.5492   -4.1665 H         1 <0>         0.4114
     27 H15         3.6680    2.8998   -1.1437 H         1 <0>         0.4039
     28 H16         0.3480    0.0267   -1.9877 H         1 <0>         0.4285
@<TRIPOS>BOND
     1    1   13 1
     2    1    2 1
     3    1   17 1
     4    1   18 1
     5    2    3 1
     6    2   19 1
     7    2   20 1
     8    3    4 1
     9    3    5 1
    10    3   16 1
    11    5    6 1
    12    5   12 1
    13    5    7 1
    14    7    8 1
    15    7    9 1
    16    7   15 1
    17    9   10 1
    18    9   11 1
    19    9   14 1
    20   11   12 1
    21   11   21 1
    22   11   22 1
    23   12   13 1
    24   12   28 1
    25   13   23 1
    26   13   24 1
    27   14   25 1
    28   15   26 1
    29   16   27 1
@<TRIPOS>MOLECULE
ZINC03875042
   28    29     0     0     0
SMALL
USER_CHARGES

@<TRIPOS>ATOM
      1 C1         -0.0188    1.5319    0.0105 C.3       1 <0>        -0.1440
      2 C2          1.4024    2.0938   -0.0001 C.3       1 <0>        -0.1704
      3 C3          2.2341    1.4800    1.1377 C.3       1 <0>         0.0918
      4 H1          3.2679    1.8176    1.0645 H         1 <0>         0.1099
      5 C4          2.1720   -0.0323    0.9833 C.3       1 <0>         0.0452
      6 H2          2.5193   -0.3208   -0.0088 H         1 <0>         0.1590
      7 C5          2.9444   -0.8067    2.0557 C.3       1 <0>         0.1020
      8 H3          3.0126   -0.2229    2.9736 H         1 <0>         0.1108
      9 C6          2.0942   -2.0826    2.2855 C.3       1 <0>         0.0537
     10 H4          1.7869   -2.1506    3.3291 H         1 <0>         0.1027
     11 C7          0.8545   -1.9070    1.3680 C.3       1 <0>        -0.0410
     12 N1          0.7552   -0.4457    1.1683 N.4       1 <0>        -0.3840
     13 C8          0.0021   -0.0041    0.0020 C.3       1 <0>         0.0008
     14 O1          2.8328   -3.2466    1.9091 O.3       1 <0>        -0.5303
     15 O2          4.2489   -1.1494    1.5837 O.3       1 <0>        -0.5320
     16 O3          1.6866    1.8634    2.4007 O.3       1 <0>        -0.5736
     17 H5         -0.5350    1.8787    0.9056 H         1 <0>         0.0927
     18 H6         -0.5519    1.8883   -0.8709 H         1 <0>         0.1153
     19 H7          1.8736    1.8620   -0.9553 H         1 <0>         0.0943
     20 H8          1.3623    3.1756    0.1271 H         1 <0>         0.1010
     21 H9          1.0148   -2.3975    0.4079 H         1 <0>         0.1397
     22 H10        -0.0408   -2.2950    1.8538 H         1 <0>         0.1410
     23 H11        -1.0170   -0.3873    0.0539 H         1 <0>         0.1342
     24 H12         0.4859   -0.3617   -0.9069 H         1 <0>         0.1301
     25 H13         2.3500   -4.0754    2.0314 H         1 <0>         0.3990
     26 H14         4.7819   -1.6414    2.2232 H         1 <0>         0.4076
     27 H15         1.6693    2.8189    2.5482 H         1 <0>         0.4109
     28 H16         0.3810   -0.0221    2.0042 H         1 <0>         0.4336
@<TRIPOS>BOND
     1    1   13 1
     2    1    2 1
     3    1   17 1
     4    1   18 1
     5    2    3 1
     6    2   19 1
     7    2   20 1
     8    3    4 1
     9    3    5 1
    10    3   16 1
    11    5    6 1
    12    5   12 1
    13    5    7 1
    14    7    8 1
    15    7    9 1
    16    7   15 1
    17    9   10 1
    18    9   11 1
    19    9   14 1
    20   11   12 1
    21   11   21 1
    22   11   22 1
    23   12   13 1
    24   12   28 1
    25   13   23 1
    26   13   24 1
    27   14   25 1
    28   15   26 1
    29   16   27 1
