@<TRIPOS>MOLECULE
ZINC25627483
   20    20     0     0     0
SMALL
USER_CHARGES

@<TRIPOS>ATOM
      1 C1         -0.0167    1.3781    0.0096 C.ar      1 <0>        -0.1325
      2 C2          1.1709    2.0855    0.0021 C.ar      1 <0>        -0.1224
      3 C3          2.3773    1.4107   -0.0130 C.ar      1 <0>        -0.1038
      4 C4          2.3960    0.0285   -0.0201 C.ar      1 <0>        -0.0811
      5 C5          1.2084   -0.6789   -0.0117 C.ar      1 <0>        -0.1023
      6 C6          0.0021   -0.0041    0.0020 C.ar      1 <0>        -0.1216
      7 C7          3.7112   -0.7071   -0.0376 C.3       1 <0>        -0.4485
      8 O1          3.5643   -1.9613    0.6314 O.3       1 <0>        -0.5524
      9 P1          4.2235   -0.9952   -1.7632 P.3       1 <0>         2.2288
     10 O2          3.1506   -1.8411   -2.4846 O.2       1 <0>        -1.0781
     11 O3          4.3822    0.3608   -2.4865 O.3       1 <0>        -1.0779
     12 O4          5.6285   -1.7811   -1.7819 O.3       1 <0>        -0.8960
     13 H1         -0.9591    1.9053    0.0259 H         1 <0>         0.1175
     14 H2          1.1563    3.1654    0.0076 H         1 <0>         0.1196
     15 H3          3.3051    1.9634   -0.0196 H         1 <0>         0.1213
     16 H4          1.2231   -1.7588   -0.0176 H         1 <0>         0.1196
     17 H5         -0.9258   -0.5567    0.0082 H         1 <0>         0.1197
     18 H6          4.4681   -0.1103    0.4713 H         1 <0>         0.1037
     19 H7          2.9053   -2.5454    0.2318 H         1 <0>         0.3739
     20 H8          5.9625   -1.9687   -2.6698 H         1 <0>         0.4123
@<TRIPOS>BOND
     1    1    6 ar
     2    1    2 ar
     3    1   13 1
     4    2    3 ar
     5    2   14 1
     6    3    4 ar
     7    3   15 1
     8    4    5 ar
     9    4    7 1
    10    5    6 ar
    11    5   16 1
    12    6   17 1
    13    7    8 1
    14    7    9 1
    15    7   18 1
    16    8   19 1
    17    9   10 2
    18    9   11 1
    19    9   12 1
    20   12   20 1
@<TRIPOS>MOLECULE
ZINC25627477
   20    20     0     0     0
SMALL
USER_CHARGES
[(R)-hydroxy-phenyl-methyl]phosphonic acid
@<TRIPOS>ATOM
      1 C1          1.2084   -0.6789   -0.0136 C.ar      1 <0>        -0.1309
      2 C2          0.0021   -0.0041    0.0020 C.ar      1 <0>        -0.1278
      3 C3         -0.0167    1.3781    0.0096 C.ar      1 <0>        -0.1050
      4 C4          1.1709    2.0855    0.0021 C.ar      1 <0>        -0.0601
      5 C5          2.3773    1.4107   -0.0136 C.ar      1 <0>        -0.0813
      6 C6          2.3961    0.0285   -0.0212 C.ar      1 <0>        -0.1300
      7 C7          1.1505    3.5924    0.0099 C.3       1 <0>        -0.4316
      8 H1          0.3491    3.8721   -0.6897 H         1 <0>         0.0563
      9 O1          2.3043    4.0879   -0.6721 O.3       1 <0>        -0.5897
     10 P1          1.1584    4.1912    1.7317 P.3       1 <0>         2.2562
     11 O2         -0.0366    3.6780    2.4380 O.2       1 <0>        -1.0731
     12 O3          2.4872    3.6687    2.4756 O.3       1 <0>        -1.0905
     13 O4          1.1365    5.8011    1.7401 O.3       1 <0>        -0.9388
     14 H2          1.2231   -1.7588   -0.0196 H         1 <0>         0.1167
     15 H3         -0.9258   -0.5567    0.0079 H         1 <0>         0.1194
     16 H4         -0.9592    1.9054    0.0170 H         1 <0>         0.1196
     17 H5          3.3052    1.9634   -0.0192 H         1 <0>         0.1273
     18 H6          3.3386   -0.4987   -0.0327 H         1 <0>         0.1185
     19 H7          2.4628    5.1721   -0.7686 H         1 <0>         0.3968
     20 H8          1.1380    6.3462    2.6955 H         1 <0>         0.4480
@<TRIPOS>BOND
     1    1    6 ar
     2    1    2 ar
     3    1   14 1
     4    2    3 ar
     5    2   15 1
     6    3    4 ar
     7    3   16 1
     8    4    5 ar
     9    4    7 1
    10    5    6 ar
    11    5   17 1
    12    6   18 1
    13    7    8 1
    14    7    9 1
    15    7   10 1
    16    9   19 1
    17   10   11 2
    18   10   12 1
    19   10   13 1
    20   13   20 1
@<TRIPOS>MOLECULE
ZINC12358639
   16    16     0     0     0
SMALL
USER_CHARGES

@<TRIPOS>ATOM
      1 C1         -0.0167    1.3788    0.0096 C.ar      1 <0>        -0.1192
      2 C2          1.1695    2.0899    0.0021 C.ar      1 <0>        -0.0948
      3 C3          2.3774    1.4209   -0.0130 C.ar      1 <0>        -0.1175
      4 C4          2.4001    0.0314   -0.0206 C.ar      1 <0>         0.1487
      5 C5          1.2062   -0.6798   -0.0130 C.ar      1 <0>        -0.1213
      6 C6          0.0021   -0.0041    0.0020 C.ar      1 <0>        -0.0930
      7 N1          3.6194   -0.6485   -0.0363 N.pl3     1 <0>        -0.2164
      8 N2          3.6388   -1.9383   -0.0434 N.2       1 <0>        -0.0792
      9 O1          4.7025   -2.5314   -0.0571 O.2       1 <0>        -0.0437
     10 O2          4.8349    0.0779   -0.0445 O.3       1 <0>        -0.3633
     11 H1         -0.9599    1.9047    0.0260 H         1 <0>         0.1341
     12 H2          1.1511    3.1697    0.0077 H         1 <0>         0.1373
     13 H3          3.3033    1.9768   -0.0192 H         1 <0>         0.1389
     14 H4          1.2201   -1.7597   -0.0193 H         1 <0>         0.1383
     15 H5         -0.9262   -0.5561    0.0079 H         1 <0>         0.1391
     16 H6          5.6256   -0.4787   -0.0553 H         1 <0>         0.4118
@<TRIPOS>BOND
     1    1    6 ar
     2    1    2 ar
     3    1   11 1
     4    2    3 ar
     5    2   12 1
     6    3    4 ar
     7    3   13 1
     8    4    5 ar
     9    4    7 1
    10    5    6 ar
    11    5   14 1
    12    6   15 1
    13    7    8 1
    14    7   10 1
    15    8    9 2
    16   10   16 1
@<TRIPOS>MOLECULE
ZINC12358639
   15    15     0     0     0
SMALL
USER_CHARGES

@<TRIPOS>ATOM
      1 C1         -0.0167    1.3788    0.0096 C.ar      1 <0>        -0.1640
      2 C2          1.1695    2.0899    0.0021 C.ar      1 <0>        -0.1022
      3 C3          2.3774    1.4209   -0.0130 C.ar      1 <0>        -0.1286
      4 C4          2.4001    0.0314   -0.0206 C.ar      1 <0>         0.1791
      5 C5          1.2062   -0.6798   -0.0130 C.ar      1 <0>        -0.1594
      6 C6          0.0021   -0.0041    0.0020 C.ar      1 <0>        -0.1008
      7 N1          3.6194   -0.6485   -0.0363 N.pl3     1 <0>        -0.1795
      8 N2          3.6388   -1.9383   -0.0434 N.2       1 <0>        -0.1119
      9 O1          4.7025   -2.5314   -0.0571 O.2       1 <0>        -0.1812
     10 O2          4.8349    0.0779   -0.0445 O.3       1 <0>        -0.6680
     11 H1         -0.9599    1.9047    0.0260 H         1 <0>         0.1154
     12 H2          1.1511    3.1697    0.0077 H         1 <0>         0.1199
     13 H3          3.3033    1.9768   -0.0192 H         1 <0>         0.1344
     14 H4          1.2201   -1.7597   -0.0193 H         1 <0>         0.1272
     15 H5         -0.9262   -0.5561    0.0079 H         1 <0>         0.1195
@<TRIPOS>BOND
     1    1    6 ar
     2    1    2 ar
     3    1   11 1
     4    2    3 ar
     5    2   12 1
     6    3    4 ar
     7    3   13 1
     8    4    5 ar
     9    4    7 1
    10    5    6 ar
    11    5   14 1
    12    6   15 1
    13    7    8 1
    14    7   10 1
    15    8    9 2
