@<TRIPOS>MOLECULE
ZINC28823615
   67    69     0     0     0
SMALL
USER_CHARGES
4-(diethylaminomethyl)-N-[2-(2-methoxyphenyl)ethyl]-N-[(3R)-pyrrolidin-3-yl]benzamide
@<TRIPOS>ATOM
      1 C1          6.5061    4.9164   -4.8636 C.3       1 <0>        -0.1932
      2 C2          6.4607    4.4813   -3.3974 C.3       1 <0>        -0.0201
      3 N1          6.4101    5.6697   -2.5354 N.4       1 <0>        -0.3977
      4 C3          7.5760    6.5343   -2.7616 C.3       1 <0>        -0.0143
      5 C4          8.8530    5.7734   -2.3994 C.3       1 <0>        -0.1904
      6 C5          5.1580    6.4117   -2.7347 C.3       1 <0>         0.0331
      7 C6          3.9975    5.5752   -2.2607 C.ar      1 <0>        -0.1195
      8 C7          3.5735    5.6671   -0.9469 C.ar      1 <0>        -0.0981
      9 C8          2.5117    4.9041   -0.5066 C.ar      1 <0>        -0.0521
     10 C9          1.8648    4.0384   -1.3898 C.ar      1 <0>        -0.1139
     11 C10         2.3006    3.9469   -2.7126 C.ar      1 <0>        -0.1048
     12 C11         3.3605    4.7190   -3.1414 C.ar      1 <0>        -0.1032
     13 C12         0.7266    3.2174   -0.9247 C.2       1 <0>         0.5666
     14 O1          0.0276    3.6097   -0.0109 O.2       1 <0>        -0.5391
     15 N2          0.4641    2.0340   -1.5138 N.am      1 <0>        -0.6013
     16 C13         1.3756    1.5039   -2.5309 C.3       1 <0>         0.0797
     17 C14         0.6879    1.5335   -3.8973 C.3       1 <0>        -0.0924
     18 C15         1.6255    0.9882   -4.9435 C.ar      1 <0>        -0.1313
     19 C16         2.4084    1.8502   -5.6870 C.ar      1 <0>        -0.0843
     20 C17         3.2688    1.3507   -6.6469 C.ar      1 <0>        -0.1528
     21 C18         3.3485   -0.0126   -6.8651 C.ar      1 <0>        -0.0695
     22 C19         2.5686   -0.8786   -6.1238 C.ar      1 <0>        -0.1999
     23 C20         1.7075   -0.3800   -5.1568 C.ar      1 <0>         0.1377
     24 O2          0.9426   -1.2303   -4.4228 O.3       1 <0>        -0.3200
     25 C21         1.0791   -2.6262   -4.6966 C.3       1 <0>         0.0196
     26 C22        -0.7327    1.2777   -1.1372 C.3       1 <0>         0.1240
     27 H1         -0.6363    0.3275   -1.6829 H         1 <0>         0.1372
     28 C23        -2.0083    2.0715   -1.5015 C.3       1 <0>        -0.1610
     29 C24        -2.3816    2.7599   -0.1646 C.3       1 <0>        -0.0134
     30 N3         -2.0463    1.7312    0.8570 N.4       1 <0>        -0.5299
     31 C25        -0.7930    1.0989    0.3912 C.3       1 <0>        -0.0049
     32 H2          6.5440    4.0265   -5.5091 H         1 <0>         0.1070
     33 H3          7.4009    5.5326   -5.0357 H         1 <0>         0.0849
     34 H4          5.6060    5.5029   -5.1000 H         1 <0>         0.0780
     35 H5          5.5659    3.8651   -3.2253 H         1 <0>         0.1271
     36 H6          7.3608    3.8948   -3.1609 H         1 <0>         0.1347
     37 H7          7.6132    6.8301   -3.8204 H         1 <0>         0.1312
     38 H8          7.4937    7.4329   -2.1326 H         1 <0>         0.1330
     39 H9          9.7261    6.4208   -2.5688 H         1 <0>         0.1091
     40 H10         8.9353    4.8748   -3.0285 H         1 <0>         0.0806
     41 H11         8.8157    5.4776   -1.3406 H         1 <0>         0.0811
     42 H12         5.1924    7.3497   -2.1611 H         1 <0>         0.1433
     43 H13         5.0331    6.6399   -3.8035 H         1 <0>         0.1399
     44 H14         4.0749    6.3374   -0.2645 H         1 <0>         0.1440
     45 H15         2.1817    4.9768    0.5192 H         1 <0>         0.1462
     46 H16         1.8071    3.2757   -3.3999 H         1 <0>         0.1618
     47 H17         3.6964    4.6519   -4.1656 H         1 <0>         0.1412
     48 H18         2.2857    2.1209   -2.5650 H         1 <0>         0.1125
     49 H19         1.6444    0.4676   -2.2781 H         1 <0>         0.0929
     50 H20        -0.2222    0.9166   -3.8632 H         1 <0>         0.0902
     51 H21         0.4191    2.5697   -4.1502 H         1 <0>         0.0791
     52 H22         2.3480    2.9153   -5.5185 H         1 <0>         0.1230
     53 H23         3.8799    2.0261   -7.2271 H         1 <0>         0.1270
     54 H24         4.0214   -0.4004   -7.6156 H         1 <0>         0.1311
     55 H25         2.6315   -1.9432   -6.2943 H         1 <0>         0.1341
     56 H26         0.4085   -3.1965   -4.0370 H         1 <0>         0.1064
     57 H27         2.1195   -2.9350   -4.5174 H         1 <0>         0.0609
     58 H28         0.8143   -2.8216   -5.7462 H         1 <0>         0.0628
     59 H29        -1.7761    2.7928   -2.2988 H         1 <0>         0.1135
     60 H30        -2.7856    1.3761   -1.8512 H         1 <0>         0.1102
     61 H31        -1.7875    3.6781   -0.0466 H         1 <0>         0.1616
     62 H32        -3.4519    3.0138   -0.1692 H         1 <0>         0.1327
     63 H33        -1.9104    2.2163    1.8349 H         1 <0>         0.4601
     64 H34        -0.7870    0.0264    0.6354 H         1 <0>         0.1381
     65 H35         0.0797    1.5847    0.8519 H         1 <0>         0.1353
     66 H36         6.4390    5.3300   -1.4896 H         1 <0>         0.4415
     67 H37        -2.8642    0.9985    0.9217 H         1 <0>         0.4530
@<TRIPOS>BOND
     1    1    2 1
     2    1   32 1
     3    1   33 1
     4    1   34 1
     5    2    3 1
     6    2   35 1
     7    2   36 1
     8    3    4 1
     9    3    6 1
    10    3   66 1
    11    4    5 1
    12    4   37 1
    13    4   38 1
    14    5   39 1
    15    5   40 1
    16    5   41 1
    17    6    7 1
    18    6   42 1
    19    6   43 1
    20    7   12 ar
    21    7    8 ar
    22    8    9 ar
    23    8   44 1
    24    9   10 ar
    25    9   45 1
    26   10   11 ar
    27   10   13 1
    28   11   12 ar
    29   11   46 1
    30   12   47 1
    31   13   14 2
    32   13   15 am
    33   15   16 1
    34   15   26 1
    35   16   17 1
    36   16   48 1
    37   16   49 1
    38   17   18 1
    39   17   50 1
    40   17   51 1
    41   18   23 ar
    42   18   19 ar
    43   19   20 ar
    44   19   52 1
    45   20   21 ar
    46   20   53 1
    47   21   22 ar
    48   21   54 1
    49   22   23 ar
    50   22   55 1
    51   23   24 1
    52   24   25 1
    53   25   56 1
    54   25   57 1
    55   25   58 1
    56   26   27 1
    57   26   31 1
    58   26   28 1
    59   28   29 1
    60   28   59 1
    61   28   60 1
    62   29   30 1
    63   29   61 1
    64   29   62 1
    65   30   31 1
    66   30   63 1
    67   30   67 1
    68   31   64 1
    69   31   65 1
@<TRIPOS>MOLECULE
ZINC28823616
   67    69     0     0     0
SMALL
USER_CHARGES
4-(diethylaminomethyl)-N-[2-(2-methoxyphenyl)ethyl]-N-[(3S)-pyrrolidin-3-yl]benzamide
@<TRIPOS>ATOM
      1 C1         -3.8472    5.0948   -2.5713 C.3       1 <0>        -0.1930
      2 C2         -3.6312    4.7285   -1.1016 C.3       1 <0>        -0.0191
      3 N1         -4.8341    4.0658   -0.5803 N.4       1 <0>        -0.3971
      4 C3         -6.0024    4.9522   -0.6655 C.3       1 <0>        -0.0146
      5 C4         -5.7752    6.1817    0.2163 C.3       1 <0>        -0.1903
      6 C5         -5.0825    2.7987   -1.2808 C.3       1 <0>         0.0298
      7 C6         -3.9739    1.8266   -0.9689 C.ar      1 <0>        -0.1303
      8 C7         -2.8488    1.7840   -1.7730 C.ar      1 <0>        -0.0886
      9 C8         -1.8306    0.8962   -1.4934 C.ar      1 <0>        -0.0643
     10 C9         -1.9373    0.0397   -0.3964 C.ar      1 <0>        -0.0953
     11 C10        -3.0750    0.0879    0.4107 C.ar      1 <0>        -0.0775
     12 C11        -4.0860    0.9804    0.1200 C.ar      1 <0>        -0.0858
     13 C12        -0.8502   -0.9146   -0.0910 C.2       1 <0>         0.5702
     14 O1          0.2757   -0.5068    0.1178 O.2       1 <0>        -0.5390
     15 N2         -1.1075   -2.2367   -0.0442 N.am      1 <0>        -0.6015
     16 C13        -2.4701   -2.7261   -0.2681 C.3       1 <0>         0.0972
     17 C14        -2.7072   -2.9060   -1.7689 C.3       1 <0>        -0.0824
     18 C15        -4.0793   -3.4870   -1.9945 C.ar      1 <0>        -0.1266
     19 C16        -4.2417   -4.8548   -2.1030 C.ar      1 <0>        -0.0763
     20 C17        -5.5002   -5.3884   -2.3091 C.ar      1 <0>        -0.1464
     21 C18        -6.5994   -4.5552   -2.4077 C.ar      1 <0>        -0.0719
     22 C19        -6.4423   -3.1871   -2.3009 C.ar      1 <0>        -0.2028
     23 C20        -5.1810   -2.6494   -2.0878 C.ar      1 <0>         0.1287
     24 O2         -5.0247   -1.3041   -1.9759 O.3       1 <0>        -0.3120
     25 C21        -6.2118   -0.5089   -1.9986 C.3       1 <0>         0.0203
     26 C22        -0.0247   -3.1844    0.2306 C.3       1 <0>         0.1228
     27 H1         -0.5311   -4.1560    0.3285 H         1 <0>         0.1354
     28 C23         1.0235   -3.1456   -0.9051 C.3       1 <0>        -0.1609
     29 C24         2.1087   -2.1936   -0.3425 C.3       1 <0>        -0.0162
     30 N3          2.1475   -2.5382    1.1018 N.4       1 <0>        -0.5295
     31 C25         0.7416   -2.7672    1.4996 C.3       1 <0>        -0.0052
     32 H2         -2.9465    5.5910   -2.9617 H         1 <0>         0.1070
     33 H3         -4.7071    5.7754   -2.6570 H         1 <0>         0.0842
     34 H4         -4.0433    4.1813   -3.1518 H         1 <0>         0.0777
     35 H5         -2.7713    4.0479   -1.0159 H         1 <0>         0.1283
     36 H6         -3.4350    5.6420   -0.5210 H         1 <0>         0.1349
     37 H7         -6.1458    5.2706   -1.7086 H         1 <0>         0.1309
     38 H8         -6.8972    4.4137   -0.3202 H         1 <0>         0.1320
     39 H9         -6.6501    6.8454    0.1525 H         1 <0>         0.1090
     40 H10        -4.8804    6.7203   -0.1290 H         1 <0>         0.0810
     41 H11        -5.6318    5.8633    1.2594 H         1 <0>         0.0812
     42 H12        -6.0431    2.3783   -0.9485 H         1 <0>         0.1393
     43 H13        -5.1170    2.9799   -2.3652 H         1 <0>         0.1400
     44 H14        -2.7675    2.4472   -2.6215 H         1 <0>         0.1388
     45 H15        -0.9509    0.8669   -2.1192 H         1 <0>         0.1382
     46 H16        -3.1635   -0.5719    1.2612 H         1 <0>         0.1373
     47 H17        -4.9667    1.0189    0.7439 H         1 <0>         0.1387
     48 H18        -2.6014   -3.6917    0.2422 H         1 <0>         0.0954
     49 H19        -3.1915   -1.9987    0.1325 H         1 <0>         0.0984
     50 H20        -2.6351   -1.9300   -2.2711 H         1 <0>         0.0792
     51 H21        -1.9482   -3.5873   -2.1810 H         1 <0>         0.0765
     52 H22        -3.3847   -5.5076   -2.0264 H         1 <0>         0.1291
     53 H23        -5.6251   -6.4579   -2.3929 H         1 <0>         0.1303
     54 H24        -7.5816   -4.9745   -2.5687 H         1 <0>         0.1307
     55 H25        -7.3010   -2.5368   -2.3783 H         1 <0>         0.1294
     56 H26        -5.9435    0.5533   -1.9002 H         1 <0>         0.0869
     57 H27        -6.8649   -0.8011   -1.1631 H         1 <0>         0.0593
     58 H28        -6.7408   -0.6669   -2.9500 H         1 <0>         0.0611
     59 H29         1.4044   -4.1613   -1.0873 H         1 <0>         0.1094
     60 H30         0.5558   -2.7593   -1.8227 H         1 <0>         0.1138
     61 H31         3.0659   -2.3895   -0.8478 H         1 <0>         0.1321
     62 H32         1.8080   -1.1502   -0.5183 H         1 <0>         0.1648
     63 H33         2.7556   -3.4434    1.2466 H         1 <0>         0.4533
     64 H34         0.2993   -1.8471    1.9092 H         1 <0>         0.1334
     65 H35         0.6759   -3.5704    2.2483 H         1 <0>         0.1397
     66 H36        -4.6604    3.8367    0.4815 H         1 <0>         0.4416
     67 H37         2.5910   -1.7045    1.6659 H         1 <0>         0.4596
@<TRIPOS>BOND
     1    1    2 1
     2    1   32 1
     3    1   33 1
     4    1   34 1
     5    2    3 1
     6    2   35 1
     7    2   36 1
     8    3    4 1
     9    3    6 1
    10    3   66 1
    11    4    5 1
    12    4   37 1
    13    4   38 1
    14    5   39 1
    15    5   40 1
    16    5   41 1
    17    6    7 1
    18    6   42 1
    19    6   43 1
    20    7   12 ar
    21    7    8 ar
    22    8    9 ar
    23    8   44 1
    24    9   10 ar
    25    9   45 1
    26   10   11 ar
    27   10   13 1
    28   11   12 ar
    29   11   46 1
    30   12   47 1
    31   13   14 2
    32   13   15 am
    33   15   16 1
    34   15   26 1
    35   16   17 1
    36   16   48 1
    37   16   49 1
    38   17   18 1
    39   17   50 1
    40   17   51 1
    41   18   23 ar
    42   18   19 ar
    43   19   20 ar
    44   19   52 1
    45   20   21 ar
    46   20   53 1
    47   21   22 ar
    48   21   54 1
    49   22   23 ar
    50   22   55 1
    51   23   24 1
    52   24   25 1
    53   25   56 1
    54   25   57 1
    55   25   58 1
    56   26   27 1
    57   26   31 1
    58   26   28 1
    59   28   29 1
    60   28   59 1
    61   28   60 1
    62   29   30 1
    63   29   61 1
    64   29   62 1
    65   30   31 1
    66   30   63 1
    67   30   67 1
    68   31   64 1
    69   31   65 1
