@<TRIPOS>MOLECULE
ZINC13983541
   71    74     0     0     0
SMALL
USER_CHARGES

@<TRIPOS>ATOM
      1 C1         -1.1118    1.4211   -0.2310 C.3       1 <0>        -0.1501
      2 C2         -0.9381   -0.0989   -0.2125 C.3       1 <0>        -0.0841
      3 H1         -0.2723   -0.3989   -1.0217 H         1 <0>         0.0839
      4 C3         -2.3020   -0.7717   -0.3967 C.3       1 <0>         0.1162
      5 N1         -2.1371   -2.2239   -0.2467 N.am      1 <0>        -0.6001
      6 C4         -1.4891   -2.7397    0.9668 C.3       1 <0>         0.1026
      7 C5         -0.1343   -2.0449    1.1357 C.3       1 <0>        -0.1270
      8 H2          0.5242   -2.3270    0.3141 H         1 <0>         0.0799
      9 C6         -0.3381   -0.5282    1.1283 C.3       1 <0>         0.1877
     10 C7          0.9885    0.1583    1.3275 C.ar      1 <0>        -0.1105
     11 C8          1.7628    0.4968    0.2335 C.ar      1 <0>        -0.1133
     12 C9          2.9797    1.1266    0.4162 C.ar      1 <0>        -0.1164
     13 C10         3.4222    1.4182    1.6929 C.ar      1 <0>        -0.1133
     14 C11         2.6476    1.0805    2.7869 C.ar      1 <0>        -0.1129
     15 C12         1.4287    0.4546    2.6040 C.ar      1 <0>        -0.1097
     16 O1         -1.2266   -0.1628    2.1862 O.3       1 <0>        -0.5421
     17 C13         0.4955   -2.4697    2.4638 C.3       1 <0>        -0.1601
     18 C14        -2.5724   -3.0669   -1.2040 C.2       1 <0>         0.5084
     19 O2         -3.1061   -2.6287   -2.2010 O.2       1 <0>        -0.5121
     20 C15        -2.3959   -4.5540   -1.0355 C.3       1 <0>        -0.1288
     21 H3         -2.9041   -4.8952   -0.1336 H         1 <0>         0.1470
     22 C16        -0.8955   -4.9123   -0.9736 C.3       1 <0>        -0.0140
     23 N2         -0.5406   -5.2801   -2.3685 N.4       1 <0>        -0.3898
     24 C17        -1.7160   -6.0481   -2.8538 C.3       1 <0>        -0.0055
     25 C18        -2.9381   -5.3013   -2.2713 C.3       1 <0>        -0.0524
     26 H4         -3.3319   -4.5925   -2.9997 H         1 <0>         0.1443
     27 C19        -4.0070   -6.2819   -1.8626 C.ar      1 <0>        -0.1491
     28 C20        -3.7098   -7.2967   -0.9723 C.ar      1 <0>        -0.0629
     29 C21        -4.6891   -8.1963   -0.5964 C.ar      1 <0>        -0.1575
     30 C22        -5.9695   -8.0823   -1.1117 C.ar      1 <0>         0.1530
     31 C23        -6.2682   -7.0667   -2.0031 C.ar      1 <0>        -0.1864
     32 C24        -5.2878   -6.1626   -2.3747 C.ar      1 <0>         0.1578
     33 F1         -5.5795   -5.1673   -3.2404 F         1 <0>        -0.1168
     34 F2         -6.9265   -8.9625   -0.7446 F         1 <0>        -0.1188
     35 C25         0.6650   -6.1193   -2.3877 C.3       1 <0>         0.0577
     36 C26         0.4630   -7.3233   -1.4655 C.3       1 <0>        -0.1816
     37 C27         0.9239   -6.6074   -3.8144 C.3       1 <0>        -0.1765
     38 C28         1.8636   -5.3012   -1.9031 C.3       1 <0>        -0.1757
     39 H5         -0.1413    1.8993   -0.0989 H         1 <0>         0.0672
     40 H6         -1.5402    1.7262   -1.1857 H         1 <0>         0.0601
     41 H7         -1.7777    1.7206    0.5783 H         1 <0>         0.0705
     42 H8         -2.9963   -0.4029    0.3584 H         1 <0>         0.0878
     43 H9         -2.6882   -0.5485   -1.3912 H         1 <0>         0.0993
     44 H10        -2.1170   -2.5314    1.8331 H         1 <0>         0.0923
     45 H11        -1.3389   -3.8152    0.8719 H         1 <0>         0.0807
     46 H12         1.4170    0.2690   -0.7640 H         1 <0>         0.1205
     47 H13         3.5849    1.3904   -0.4385 H         1 <0>         0.1243
     48 H14         4.3733    1.9096    1.8357 H         1 <0>         0.1255
     49 H15         2.9935    1.3081    3.7844 H         1 <0>         0.1262
     50 H16         0.8218    0.1941    3.4585 H         1 <0>         0.1198
     51 H17        -0.9097   -0.4048    3.0672 H         1 <0>         0.3772
     52 H18         0.6385   -3.5503    2.4689 H         1 <0>         0.0638
     53 H19         1.4594   -1.9751    2.5834 H         1 <0>         0.0749
     54 H20        -0.1627   -2.1864    3.2851 H         1 <0>         0.0648
     55 H21        -0.3122   -4.0513   -0.6473 H         1 <0>         0.1403
     56 H22        -0.7338   -5.7576   -0.3047 H         1 <0>         0.1523
     57 H23        -1.7505   -6.0421   -3.9433 H         1 <0>         0.1444
     58 H24        -1.6828   -7.0711   -2.4792 H         1 <0>         0.1428
     59 H25        -2.7114   -7.3867   -0.5705 H         1 <0>         0.1392
     60 H26        -4.4557   -8.9887    0.0993 H         1 <0>         0.1516
     61 H27        -7.2665   -6.9770   -2.4055 H         1 <0>         0.1587
     62 H28        -0.4391   -7.8595   -1.7603 H         1 <0>         0.0835
     63 H29         1.3228   -7.9887   -1.5431 H         1 <0>         0.1096
     64 H30         0.3612   -6.9796   -0.4361 H         1 <0>         0.0836
     65 H31         1.0679   -5.7496   -4.4714 H         1 <0>         0.0822
     66 H32         1.8184   -7.2301   -3.8287 H         1 <0>         0.1066
     67 H33         0.0700   -7.1902   -4.1596 H         1 <0>         0.0825
     68 H34         1.6792   -4.9535   -0.8867 H         1 <0>         0.0789
     69 H35         2.7582   -5.9239   -1.9173 H         1 <0>         0.1077
     70 H36         2.0076   -4.4434   -2.5601 H         1 <0>         0.0816
     71 H37        -0.4047   -4.4516   -2.9282 H         1 <0>         0.4286
@<TRIPOS>BOND
     1    1    2 1
     2    1   39 1
     3    1   40 1
     4    1   41 1
     5    2    3 1
     6    2    9 1
     7    2    4 1
     8    4    5 1
     9    4   42 1
    10    4   43 1
    11    5    6 1
    12    5   18 am
    13    6    7 1
    14    6   44 1
    15    6   45 1
    16    7    8 1
    17    7    9 1
    18    7   17 1
    19    9   10 1
    20    9   16 1
    21   10   15 ar
    22   10   11 ar
    23   11   12 ar
    24   11   46 1
    25   12   13 ar
    26   12   47 1
    27   13   14 ar
    28   13   48 1
    29   14   15 ar
    30   14   49 1
    31   15   50 1
    32   16   51 1
    33   17   52 1
    34   17   53 1
    35   17   54 1
    36   18   19 2
    37   18   20 1
    38   20   21 1
    39   20   25 1
    40   20   22 1
    41   22   23 1
    42   22   55 1
    43   22   56 1
    44   23   24 1
    45   23   35 1
    46   23   71 1
    47   24   25 1
    48   24   57 1
    49   24   58 1
    50   25   26 1
    51   25   27 1
    52   27   32 ar
    53   27   28 ar
    54   28   29 ar
    55   28   59 1
    56   29   30 ar
    57   29   60 1
    58   30   31 ar
    59   30   34 1
    60   31   32 ar
    61   31   61 1
    62   32   33 1
    63   35   36 1
    64   35   37 1
    65   35   38 1
    66   36   62 1
    67   36   63 1
    68   36   64 1
    69   37   65 1
    70   37   66 1
    71   37   67 1
    72   38   68 1
    73   38   69 1
    74   38   70 1
@<TRIPOS>MOLECULE
ZINC02022527
   54    55     0     0     0
SMALL
USER_CHARGES

@<TRIPOS>ATOM
      1 C1         -3.0730    2.2881   -4.2693 C.3       1 <0>        -0.1569
      2 C2         -2.3049    1.5870   -3.1471 C.3       1 <0>        -0.1270
      3 C3         -2.8110    2.0874   -1.7927 C.3       1 <0>        -0.1231
      4 C4         -2.0429    1.3862   -0.6705 C.3       1 <0>        -0.1174
      5 C5         -2.5490    1.8867    0.6839 C.3       1 <0>        -0.1006
      6 C6         -2.2117    3.3722    0.8391 C.3       1 <0>        -0.1451
      7 C7         -2.6658    3.8518    2.2196 C.3       1 <0>        -0.0114
      8 C8         -2.3347    1.6429    3.1595 C.3       1 <0>        -0.0001
      9 C9         -1.8707    1.0973    1.8070 C.3       1 <0>        -0.1442
     10 C10        -2.2939    3.5901    4.5974 C.3       1 <0>        -0.0052
     11 C11        -2.1583    5.1140    4.5919 C.3       1 <0>        -0.1459
     12 C12        -2.4764    5.6593    5.9856 C.3       1 <0>        -0.1543
     13 C13        -2.3428    7.1604    5.9803 C.2       1 <0>         0.3987
     14 O1         -2.0245    7.7371    4.9623 O.2       1 <0>        -0.4456
     15 C14        -2.5986    7.9263    7.2106 C.ar      1 <0>        -0.1885
     16 C15        -3.0878    7.2813    8.3513 C.ar      1 <0>        -0.0705
     17 C16        -3.3195    8.0047    9.5018 C.ar      1 <0>        -0.1389
     18 C17        -3.0801    9.3679    9.5265 C.ar      1 <0>        -0.0729
     19 C18        -2.6016   10.0143    8.4004 C.ar      1 <0>        -0.1345
     20 C19        -2.3594    9.3036    7.2436 C.ar      1 <0>        -0.0178
     21 C20        -1.8387   10.0095    6.0182 C.3       1 <0>        -0.1264
     22 H1         -4.1363    2.0676   -4.1746 H         1 <0>         0.0549
     23 H2         -2.9175    3.3647   -4.1985 H         1 <0>         0.0540
     24 H3         -2.7125    1.9316   -5.2342 H         1 <0>         0.0581
     25 H4         -1.2417    1.8075   -3.2417 H         1 <0>         0.0621
     26 H5         -2.4605    0.5104   -3.2179 H         1 <0>         0.0631
     27 H6         -3.8743    1.8669   -1.6981 H         1 <0>         0.0644
     28 H7         -2.6555    3.1639   -1.7219 H         1 <0>         0.0632
     29 H8         -2.1984    0.3097   -0.7413 H         1 <0>         0.0733
     30 H9         -0.9796    1.6067   -0.7651 H         1 <0>         0.0688
     31 H10        -3.6287    1.7492    0.7427 H         1 <0>         0.0884
     32 H11        -1.1354    3.5132    0.7407 H         1 <0>         0.0881
     33 H12        -2.7264    3.9447    0.0675 H         1 <0>         0.1133
     34 H13        -3.7442    3.7233    2.3122 H         1 <0>         0.1295
     35 H14        -2.4142    4.9057    2.3388 H         1 <0>         0.1342
     36 H15        -3.4146    1.5248    3.2476 H         1 <0>         0.1293
     37 H16        -1.8426    1.0924    3.9613 H         1 <0>         0.1282
     38 H17        -2.1418    0.0446    1.7270 H         1 <0>         0.1118
     39 H18        -0.7890    1.2025    1.7239 H         1 <0>         0.0880
     40 H19        -3.3133    3.3170    4.8704 H         1 <0>         0.1315
     41 H20        -1.5979    3.1659    5.3211 H         1 <0>         0.1302
     42 H21        -1.1389    5.3871    4.3190 H         1 <0>         0.0944
     43 H22        -2.8542    5.5382    3.8682 H         1 <0>         0.0968
     44 H23        -3.4115    5.4088    6.2361 H         1 <0>         0.0981
     45 H24        -1.7805    5.2352    6.7093 H         1 <0>         0.1100
     46 H25        -3.2793    6.2186    8.3321 H         1 <0>         0.1290
     47 H26        -3.6933    7.5074   10.3846 H         1 <0>         0.1322
     48 H27        -3.2682    9.9300   10.4293 H         1 <0>         0.1326
     49 H28        -2.4176   11.0782    8.4274 H         1 <0>         0.1332
     50 H29        -2.6709   10.2515    5.3572 H         1 <0>         0.0784
     51 H30        -1.3321   10.9277    6.3156 H         1 <0>         0.0652
     52 H31        -1.1365    9.3600    5.4956 H         1 <0>         0.0893
     53 N1         -1.9588    3.0696    3.2558 N.4       1 <0>        -0.3931
     54 H32        -0.9467    3.1581    3.1071 H         1 <0>         0.4272
@<TRIPOS>BOND
     1    1    2 1
     2    1   22 1
     3    1   23 1
     4    1   24 1
     5    2    3 1
     6    2   25 1
     7    2   26 1
     8    3    4 1
     9    3   27 1
    10    3   28 1
    11    4    5 1
    12    4   29 1
    13    4   30 1
    14    5    9 1
    15    5    6 1
    16    5   31 1
    17    6    7 1
    18    6   32 1
    19    6   33 1
    20    7   34 1
    21    7   35 1
    22    7   53 1
    23    8    9 1
    24    8   36 1
    25    8   37 1
    26    8   53 1
    27    9   38 1
    28    9   39 1
    29   10   11 1
    30   10   40 1
    31   10   41 1
    32   10   53 1
    33   11   12 1
    34   11   42 1
    35   11   43 1
    36   12   13 1
    37   12   44 1
    38   12   45 1
    39   13   14 2
    40   13   15 1
    41   15   20 ar
    42   15   16 ar
    43   16   17 ar
    44   16   46 1
    45   17   18 ar
    46   17   47 1
    47   18   19 ar
    48   18   48 1
    49   19   20 ar
    50   19   49 1
    51   20   21 1
    52   21   50 1
    53   21   51 1
    54   21   52 1
    55   53   54 1
@<TRIPOS>MOLECULE
ZINC03948213
   83    86     0     0     0
SMALL
USER_CHARGES
(2S)-2-amino-N-[(1R)-2-(4-butanoyl-4-phenyl-1-piperidyl)-1-[(4-methoxyphenyl)methyl]-2-oxo-ethyl]-3-(3-methylimidazol-4-yl)propanamide
@<TRIPOS>ATOM
      1 C1          0.6649    2.7158  -12.8525 C.3       1 <0>        -0.1553
      2 C2          1.3190    3.1385  -11.5356 C.3       1 <0>        -0.1170
      3 C3          1.8369    1.8995  -10.8025 C.3       1 <0>        -0.1718
      4 C4          2.4812    2.3159   -9.5054 C.2       1 <0>         0.3685
      5 O1          2.5220    3.4833   -9.1989 O.2       1 <0>        -0.4353
      6 C5          3.0746    1.2756   -8.5907 C.3       1 <0>        -0.0593
      7 C6          3.6597    1.9592   -7.3528 C.3       1 <0>        -0.1164
      8 C7          2.5546    2.7415   -6.6362 C.3       1 <0>         0.1000
      9 N1          1.4384    1.8296   -6.3511 N.am      1 <0>        -0.6023
     10 C8          0.8638    1.0494   -7.4556 C.3       1 <0>         0.0931
     11 C9          1.9842    0.2902   -8.1640 C.3       1 <0>        -0.1195
     12 C10         0.9544    1.7070   -5.0992 C.2       1 <0>         0.5075
     13 O2          1.4407    2.3528   -4.1951 O.2       1 <0>        -0.5170
     14 C11        -0.1910    0.7674   -4.8228 C.3       1 <0>         0.1376
     15 H1         -0.9151    0.8285   -5.6352 H         1 <0>         0.1220
     16 C12         0.3379   -0.6644   -4.7176 C.3       1 <0>        -0.0899
     17 C13        -0.8193   -1.6174   -4.5639 C.ar      1 <0>        -0.1258
     18 C14        -1.2796   -1.9463   -3.3023 C.ar      1 <0>        -0.0739
     19 C15        -2.3440   -2.8152   -3.1589 C.ar      1 <0>        -0.2092
     20 C16        -2.9437   -3.3667   -4.2817 C.ar      1 <0>         0.1358
     21 C17        -2.4764   -3.0395   -5.5463 C.ar      1 <0>        -0.1418
     22 C18        -1.4154   -2.1657   -5.6845 C.ar      1 <0>        -0.0721
     23 O3         -3.9876   -4.2258   -4.1431 O.3       1 <0>        -0.3131
     24 C19        -4.4156   -4.5171   -2.8112 C.3       1 <0>         0.0264
     25 N2         -0.8376    1.1430   -3.5630 N.am      1 <0>        -0.6909
     26 C20        -0.1304    1.1406   -2.4157 C.2       1 <0>         0.5118
     27 O4          1.0413    0.8275   -2.4262 O.2       1 <0>        -0.4833
     28 C21        -0.7955    1.5269   -1.1198 C.3       1 <0>         0.0180
     29 H2         -1.8010    1.1074   -1.0883 H         1 <0>         0.1567
     30 C22        -0.8757    3.0517   -1.0224 C.3       1 <0>        -0.0529
     31 C23        -1.6488    3.4362    0.2127 C.2       1 <0>        -0.0777
     32 C24        -1.1591    3.5560    1.4614 C.2       1 <0>        -0.0205
     33 N3         -2.1670    3.9167    2.2696 N.2       1 <0>        -0.4801
     34 C25        -3.2644    4.0167    1.5706 C.2       1 <0>         0.2159
     35 N4         -2.9850    3.7250    0.2819 N.pl3     1 <0>        -0.4494
     36 C26        -3.9347    3.7188   -0.8335 C.3       1 <0>         0.0582
     37 C27         4.1662    0.5325   -9.3169 C.ar      1 <0>        -0.0810
     38 C28         5.4597    0.5549   -8.8299 C.ar      1 <0>        -0.1124
     39 C29         6.4600   -0.1308   -9.4934 C.ar      1 <0>        -0.1140
     40 C30         6.1689   -0.8301  -10.6497 C.ar      1 <0>        -0.1136
     41 C31         4.8764   -0.8482  -11.1396 C.ar      1 <0>        -0.1139
     42 C32         3.8750   -0.1669  -10.4732 C.ar      1 <0>        -0.1221
     43 H3          1.3994    2.2054  -13.4756 H         1 <0>         0.0567
     44 H4         -0.1666    2.0421  -12.6454 H         1 <0>         0.0555
     45 H5          0.2960    3.5985  -13.3748 H         1 <0>         0.0603
     46 H6          0.5846    3.6489  -10.9125 H         1 <0>         0.0665
     47 H7          2.1506    3.8122  -11.7428 H         1 <0>         0.0688
     48 H8          2.5107    1.4313  -11.3741 H         1 <0>         0.0979
     49 H9          1.0054    1.2259  -10.5954 H         1 <0>         0.0983
     50 H10         4.4522    2.6435   -7.6555 H         1 <0>         0.0876
     51 H11         4.0674    1.2056   -6.6790 H         1 <0>         0.0781
     52 H12         2.2087    3.5539   -7.2753 H         1 <0>         0.0970
     53 H13         2.9402    3.1502   -5.7022 H         1 <0>         0.0945
     54 H14         0.1358    0.3402   -7.0619 H         1 <0>         0.0916
     55 H15         0.3772    1.7210   -8.1629 H         1 <0>         0.0759
     56 H16         1.5842   -0.2133   -9.0441 H         1 <0>         0.0920
     57 H17         2.4074   -0.4484   -7.4833 H         1 <0>         0.0862
     58 H18         0.8958   -0.9129   -5.6205 H         1 <0>         0.0934
     59 H19         0.9939   -0.7466   -3.8510 H         1 <0>         0.1009
     60 H20        -0.8095   -1.5200   -2.4284 H         1 <0>         0.1065
     61 H21        -2.7060   -3.0684   -2.1734 H         1 <0>         0.1278
     62 H22        -2.9418   -3.4673   -6.4219 H         1 <0>         0.1367
     63 H23        -1.0514   -1.9104   -6.6688 H         1 <0>         0.1322
     64 H24        -4.7276   -3.5954   -2.3200 H         1 <0>         0.0547
     65 H25        -5.2536   -5.2135   -2.8429 H         1 <0>         0.1061
     66 H26        -3.5921   -4.9647   -2.2546 H         1 <0>         0.0572
     67 H27        -1.7746    1.3933   -3.5546 H         1 <0>         0.4121
     68 H28         0.1310    3.4655   -0.9645 H         1 <0>         0.1242
     69 H29        -1.3804    3.4460   -1.9044 H         1 <0>         0.1199
     70 H30        -0.1339    3.3929    1.7594 H         1 <0>         0.1733
     71 H31        -4.2353    4.2874    1.9584 H         1 <0>         0.2167
     72 H32        -4.3751    2.7264   -0.9303 H         1 <0>         0.0858
     73 H33        -4.7219    4.4487   -0.6446 H         1 <0>         0.1015
     74 H34        -3.4138    3.9767   -1.7556 H         1 <0>         0.0894
     75 H35         0.0021   -0.0041    0.0020 H         1 <0>         0.4410
     76 H36         0.9253    1.3792    0.0006 H         1 <0>         0.4465
     77 H37         5.6880    1.1049   -7.9289 H         1 <0>         0.1268
     78 H38         7.4699   -0.1163   -9.1108 H         1 <0>         0.1256
     79 H39         6.9513   -1.3621  -11.1705 H         1 <0>         0.1255
     80 H40         4.6490   -1.3943  -12.0432 H         1 <0>         0.1266
     81 H41         2.8653   -0.1807  -10.8562 H         1 <0>         0.1285
     82 N5         -0.0252    1.0139    0.0269 N.4       1 <0>        -0.6302
     83 H42        -0.4761    1.3157    0.8986 H         1 <0>         0.4443
@<TRIPOS>BOND
     1    1    2 1
     2    1   43 1
     3    1   44 1
     4    1   45 1
     5    2    3 1
     6    2   46 1
     7    2   47 1
     8    3    4 1
     9    3   48 1
    10    3   49 1
    11    4    5 2
    12    4    6 1
    13    6   11 1
    14    6    7 1
    15    6   37 1
    16    7    8 1
    17    7   50 1
    18    7   51 1
    19    8    9 1
    20    8   52 1
    21    8   53 1
    22    9   10 1
    23    9   12 am
    24   10   11 1
    25   10   54 1
    26   10   55 1
    27   11   56 1
    28   11   57 1
    29   12   13 2
    30   12   14 1
    31   14   15 1
    32   14   16 1
    33   14   25 1
    34   16   17 1
    35   16   58 1
    36   16   59 1
    37   17   22 ar
    38   17   18 ar
    39   18   19 ar
    40   18   60 1
    41   19   20 ar
    42   19   61 1
    43   20   21 ar
    44   20   23 1
    45   21   22 ar
    46   21   62 1
    47   22   63 1
    48   23   24 1
    49   24   64 1
    50   24   65 1
    51   24   66 1
    52   25   26 am
    53   25   67 1
    54   26   27 2
    55   26   28 1
    56   28   29 1
    57   28   30 1
    58   28   82 1
    59   30   31 1
    60   30   68 1
    61   30   69 1
    62   31   35 1
    63   31   32 2
    64   32   33 1
    65   32   70 1
    66   33   34 2
    67   34   35 1
    68   34   71 1
    69   35   36 1
    70   36   72 1
    71   36   73 1
    72   36   74 1
    73   37   42 ar
    74   37   38 ar
    75   38   39 ar
    76   38   77 1
    77   39   40 ar
    78   39   78 1
    79   40   41 ar
    80   40   79 1
    81   41   42 ar
    82   41   80 1
    83   42   81 1
    84   75   82 1
    85   76   82 1
    86   82   83 1
@<TRIPOS>MOLECULE
ZINC03948213
   84    87     0     0     0
SMALL
USER_CHARGES
(2S)-2-amino-N-[(1R)-2-(4-butanoyl-4-phenyl-1-piperidyl)-1-[(4-methoxyphenyl)methyl]-2-oxo-ethyl]-3-(3-methylimidazol-4-yl)propanamide
@<TRIPOS>ATOM
      1 C1          0.6649    2.7158  -12.8525 C.3       1 <0>        -0.1562
      2 C2          1.3190    3.1385  -11.5356 C.3       1 <0>        -0.1164
      3 C3          1.8369    1.8995  -10.8025 C.3       1 <0>        -0.1721
      4 C4          2.4812    2.3159   -9.5054 C.2       1 <0>         0.3689
      5 O1          2.5220    3.4833   -9.1989 O.2       1 <0>        -0.4367
      6 C5          3.0746    1.2756   -8.5907 C.3       1 <0>        -0.0585
      7 C6          3.6597    1.9592   -7.3528 C.3       1 <0>        -0.1169
      8 C7          2.5546    2.7415   -6.6362 C.3       1 <0>         0.0998
      9 N1          1.4384    1.8296   -6.3511 N.am      1 <0>        -0.5976
     10 C8          0.8638    1.0494   -7.4556 C.3       1 <0>         0.0915
     11 C9          1.9842    0.2902   -8.1640 C.3       1 <0>        -0.1202
     12 C10         0.9544    1.7070   -5.0992 C.2       1 <0>         0.5089
     13 O2          1.4407    2.3528   -4.1951 O.2       1 <0>        -0.5271
     14 C11        -0.1910    0.7674   -4.8228 C.3       1 <0>         0.1356
     15 H1         -0.9151    0.8285   -5.6352 H         1 <0>         0.1262
     16 C12         0.3379   -0.6644   -4.7176 C.3       1 <0>        -0.0902
     17 C13        -0.8193   -1.6174   -4.5639 C.ar      1 <0>        -0.1288
     18 C14        -1.2796   -1.9463   -3.3023 C.ar      1 <0>        -0.0772
     19 C15        -2.3440   -2.8152   -3.1589 C.ar      1 <0>        -0.2120
     20 C16        -2.9437   -3.3667   -4.2817 C.ar      1 <0>         0.1389
     21 C17        -2.4764   -3.0395   -5.5463 C.ar      1 <0>        -0.1391
     22 C18        -1.4154   -2.1657   -5.6845 C.ar      1 <0>        -0.0698
     23 O3         -3.9876   -4.2258   -4.1431 O.3       1 <0>        -0.3107
     24 C19        -4.4156   -4.5171   -2.8112 C.3       1 <0>         0.0269
     25 N2         -0.8376    1.1430   -3.5630 N.am      1 <0>        -0.6850
     26 C20        -0.1304    1.1406   -2.4157 C.2       1 <0>         0.5068
     27 O4          1.0413    0.8275   -2.4262 O.2       1 <0>        -0.4705
     28 C21        -0.7955    1.5269   -1.1198 C.3       1 <0>         0.0135
     29 H2         -1.8010    1.1074   -1.0883 H         1 <0>         0.1646
     30 C22        -0.8757    3.0517   -1.0224 C.3       1 <0>        -0.0729
     31 C23        -1.6488    3.4362    0.2127 C.2       1 <0>         0.0100
     32 C24        -1.1591    3.5560    1.4614 C.2       1 <0>         0.0003
     33 C25        -3.2644    4.0167    1.5706 C.cat     1 <0>         0.3238
     34 N3         -2.9850    3.7250    0.2819 N.pl3     1 <0>        -0.4031
     35 C26        -3.9347    3.7188   -0.8335 C.3       1 <0>         0.0416
     36 C27         4.1662    0.5325   -9.3169 C.ar      1 <0>        -0.0844
     37 C28         5.4597    0.5549   -8.8299 C.ar      1 <0>        -0.1130
     38 C29         6.4600   -0.1308   -9.4934 C.ar      1 <0>        -0.1135
     39 C30         6.1689   -0.8301  -10.6497 C.ar      1 <0>        -0.1113
     40 C31         4.8764   -0.8482  -11.1396 C.ar      1 <0>        -0.1126
     41 C32         3.8750   -0.1669  -10.4732 C.ar      1 <0>        -0.1220
     42 H3          1.3994    2.2054  -13.4756 H         1 <0>         0.0577
     43 H4         -0.1666    2.0421  -12.6454 H         1 <0>         0.0554
     44 H5          0.2960    3.5985  -13.3748 H         1 <0>         0.0612
     45 H6          0.5846    3.6489  -10.9125 H         1 <0>         0.0655
     46 H7          2.1506    3.8122  -11.7428 H         1 <0>         0.0693
     47 H8          2.5107    1.4313  -11.3741 H         1 <0>         0.0988
     48 H9          1.0054    1.2259  -10.5954 H         1 <0>         0.0982
     49 H10         4.4522    2.6435   -7.6555 H         1 <0>         0.0893
     50 H11         4.0674    1.2056   -6.6790 H         1 <0>         0.0782
     51 H12         2.2087    3.5539   -7.2753 H         1 <0>         0.0992
     52 H13         2.9402    3.1502   -5.7022 H         1 <0>         0.0940
     53 H14         0.1358    0.3402   -7.0619 H         1 <0>         0.0911
     54 H15         0.3772    1.7210   -8.1629 H         1 <0>         0.0786
     55 H16         1.5842   -0.2133   -9.0441 H         1 <0>         0.0941
     56 H17         2.4074   -0.4484   -7.4833 H         1 <0>         0.0864
     57 H18         0.8958   -0.9129   -5.6205 H         1 <0>         0.0967
     58 H19         0.9939   -0.7466   -3.8510 H         1 <0>         0.1001
     59 H20        -0.8095   -1.5200   -2.4284 H         1 <0>         0.1028
     60 H21        -2.7060   -3.0684   -2.1734 H         1 <0>         0.1268
     61 H22        -2.9418   -3.4673   -6.4219 H         1 <0>         0.1392
     62 H23        -1.0514   -1.9104   -6.6688 H         1 <0>         0.1339
     63 H24        -4.7276   -3.5954   -2.3200 H         1 <0>         0.0527
     64 H25        -5.2536   -5.2135   -2.8429 H         1 <0>         0.1081
     65 H26        -3.5921   -4.9647   -2.2546 H         1 <0>         0.0577
     66 H27        -1.7746    1.3933   -3.5546 H         1 <0>         0.4115
     67 H28         0.1310    3.4655   -0.9645 H         1 <0>         0.1489
     68 H29        -1.3804    3.4460   -1.9044 H         1 <0>         0.1454
     69 H30        -0.1339    3.3929    1.7594 H         1 <0>         0.2264
     70 H31        -4.2353    4.2874    1.9584 H         1 <0>         0.2715
     71 H32        -4.3751    2.7264   -0.9303 H         1 <0>         0.1188
     72 H33        -4.7219    4.4487   -0.6446 H         1 <0>         0.1290
     73 H34        -3.4138    3.9767   -1.7556 H         1 <0>         0.1199
     74 H35         0.0021   -0.0041    0.0020 H         1 <0>         0.4526
     75 H36         0.9253    1.3792    0.0006 H         1 <0>         0.4525
     76 H37         5.6880    1.1049   -7.9289 H         1 <0>         0.1258
     77 H38         7.4699   -0.1163   -9.1108 H         1 <0>         0.1263
     78 H39         6.9513   -1.3621  -11.1705 H         1 <0>         0.1269
     79 H40         4.6490   -1.3943  -12.0432 H         1 <0>         0.1279
     80 H41         2.8653   -0.1807  -10.8562 H         1 <0>         0.1285
     81 N4         -0.0252    1.0139    0.0269 N.4       1 <0>        -0.6338
     82 H42        -0.4761    1.3157    0.8986 H         1 <0>         0.4331
     83 N5         -2.1671    3.9165    2.2683 N.pl3     1 <0>        -0.4784
     84 H43        -2.0877    4.0870    3.2776 H         1 <0>         0.4928
@<TRIPOS>BOND
     1    1    2 1
     2    1   42 1
     3    1   43 1
     4    1   44 1
     5    2    3 1
     6    2   45 1
     7    2   46 1
     8    3    4 1
     9    3   47 1
    10    3   48 1
    11    4    5 2
    12    4    6 1
    13    6   11 1
    14    6    7 1
    15    6   36 1
    16    7    8 1
    17    7   49 1
    18    7   50 1
    19    8    9 1
    20    8   51 1
    21    8   52 1
    22    9   10 1
    23    9   12 am
    24   10   11 1
    25   10   53 1
    26   10   54 1
    27   11   55 1
    28   11   56 1
    29   12   13 2
    30   12   14 1
    31   14   15 1
    32   14   16 1
    33   14   25 1
    34   16   17 1
    35   16   57 1
    36   16   58 1
    37   17   22 ar
    38   17   18 ar
    39   18   19 ar
    40   18   59 1
    41   19   20 ar
    42   19   60 1
    43   20   21 ar
    44   20   23 1
    45   21   22 ar
    46   21   61 1
    47   22   62 1
    48   23   24 1
    49   24   63 1
    50   24   64 1
    51   24   65 1
    52   25   26 am
    53   25   66 1
    54   26   27 2
    55   26   28 1
    56   28   29 1
    57   28   30 1
    58   28   81 1
    59   30   31 1
    60   30   67 1
    61   30   68 1
    62   31   34 1
    63   31   32 2
    64   32   69 1
    65   32   83 1
    66   33   34 1
    67   33   70 1
    68   33   83 2
    69   34   35 1
    70   35   71 1
    71   35   72 1
    72   35   73 1
    73   36   41 ar
    74   36   37 ar
    75   37   38 ar
    76   37   76 1
    77   38   39 ar
    78   38   77 1
    79   39   40 ar
    80   39   78 1
    81   40   41 ar
    82   40   79 1
    83   41   80 1
    84   74   81 1
    85   75   81 1
    86   81   82 1
    87   83   84 1
@<TRIPOS>MOLECULE
ZINC28526078
   36    37     0     0     0
SMALL
USER_CHARGES
1-methyl-4-[(1R)-1-phenylethyl]piperazine
@<TRIPOS>ATOM
      1 C1          1.0953    2.0654    0.0894 C.3       1 <0>        -0.1503
      2 C2          1.1505    3.5924    0.0099 C.3       1 <0>         0.1313
      3 H1          1.4075    4.0286    0.9865 H         1 <0>         0.0586
      4 C3         -0.1849    4.1202   -0.4474 C.ar      1 <0>        -0.0994
      5 C4         -0.5696    3.9768   -1.7673 C.ar      1 <0>        -0.0965
      6 C5         -1.7947    4.4606   -2.1867 C.ar      1 <0>        -0.1217
      7 C6         -2.6354    5.0873   -1.2860 C.ar      1 <0>        -0.1102
      8 C7         -2.2507    5.2307    0.0340 C.ar      1 <0>        -0.1163
      9 C8         -1.0256    4.7469    0.4534 C.ar      1 <0>        -0.1129
     10 N1          2.1900    3.9956   -0.9465 N.3       1 <0>        -0.5362
     11 C9          3.5007    3.4564   -0.5582 C.3       1 <0>         0.0193
     12 C10         4.5382    3.8312   -1.6192 C.3       1 <0>         0.0010
     13 N2          4.5922    5.2937   -1.7528 N.4       1 <0>        -0.4025
     14 C11         3.2814    5.8329   -2.1411 C.3       1 <0>         0.0013
     15 C12         2.2439    5.4581   -1.0801 C.3       1 <0>         0.0231
     16 C13         5.6316    5.6970   -2.7092 C.3       1 <0>        -0.0452
     17 H2          2.0701    1.6802    0.4232 H         1 <0>         0.0619
     18 H3          0.8592    1.6549   -0.9034 H         1 <0>         0.0732
     19 H4          0.3169    1.7634    0.8056 H         1 <0>         0.0744
     20 H5          0.0851    3.4828   -2.4700 H         1 <0>         0.1263
     21 H6         -2.0952    4.3486   -3.2180 H         1 <0>         0.1248
     22 H7         -3.5926    5.4653   -1.6136 H         1 <0>         0.1258
     23 H8         -2.9072    5.7210    0.7376 H         1 <0>         0.1263
     24 H9         -0.7249    4.8592    1.4846 H         1 <0>         0.1208
     25 H10         3.7982    3.8795    0.4126 H         1 <0>         0.0609
     26 H11         3.4372    2.3613   -0.4768 H         1 <0>         0.1281
     27 H12         5.5257    3.4530   -1.3161 H         1 <0>         0.1361
     28 H13         4.2546    3.3842   -2.5834 H         1 <0>         0.1346
     29 H14         3.3449    6.9280   -2.2224 H         1 <0>         0.1353
     30 H15         2.9838    5.4098   -3.1119 H         1 <0>         0.1344
     31 H16         1.2559    5.8353   -1.3826 H         1 <0>         0.1252
     32 H17         2.5270    5.9043   -0.1153 H         1 <0>         0.0598
     33 H18         5.6501    6.7939   -2.7897 H         1 <0>         0.1242
     34 H19         5.4121    5.2607   -3.6948 H         1 <0>         0.1197
     35 H20         6.6109    5.3384   -2.3593 H         1 <0>         0.1245
     36 H21         4.8559    5.7150   -0.7715 H         1 <0>         0.4403
@<TRIPOS>BOND
     1    1    2 1
     2    1   17 1
     3    1   18 1
     4    1   19 1
     5    2    3 1
     6    2    4 1
     7    2   10 1
     8    4    9 ar
     9    4    5 ar
    10    5    6 ar
    11    5   20 1
    12    6    7 ar
    13    6   21 1
    14    7    8 ar
    15    7   22 1
    16    8    9 ar
    17    8   23 1
    18    9   24 1
    19   10   15 1
    20   10   11 1
    21   11   12 1
    22   11   25 1
    23   11   26 1
    24   12   13 1
    25   12   27 1
    26   12   28 1
    27   13   14 1
    28   13   16 1
    29   13   36 1
    30   14   15 1
    31   14   29 1
    32   14   30 1
    33   15   31 1
    34   15   32 1
    35   16   33 1
    36   16   34 1
    37   16   35 1
@<TRIPOS>MOLECULE
ZINC28526078
   36    37     0     0     0
SMALL
USER_CHARGES
1-methyl-4-[(1R)-1-phenylethyl]piperazine
@<TRIPOS>ATOM
      1 C1          1.0953    2.0654    0.0894 C.3       1 <0>        -0.1791
      2 C2          1.1505    3.5924    0.0099 C.3       1 <0>         0.0857
      3 H1          1.4075    4.0286    0.9865 H         1 <0>         0.1388
      4 C3         -0.1849    4.1202   -0.4474 C.ar      1 <0>        -0.1397
      5 C4         -0.5696    3.9768   -1.7673 C.ar      1 <0>        -0.1214
      6 C5         -1.7947    4.4606   -2.1867 C.ar      1 <0>        -0.1047
      7 C6         -2.6354    5.0873   -1.2860 C.ar      1 <0>        -0.0923
      8 C7         -2.2507    5.2307    0.0340 C.ar      1 <0>        -0.1050
      9 C8         -1.0256    4.7469    0.4534 C.ar      1 <0>        -0.0897
     10 N1          2.1900    3.9956   -0.9465 N.4       1 <0>        -0.4003
     11 C9          3.5007    3.4564   -0.5582 C.3       1 <0>        -0.0044
     12 C10         4.5382    3.8312   -1.6192 C.3       1 <0>         0.0246
     13 N2          4.5922    5.2937   -1.7528 N.3       1 <0>        -0.5432
     14 C11         3.2814    5.8329   -2.1411 C.3       1 <0>         0.0256
     15 C12         2.2439    5.4581   -1.0801 C.3       1 <0>         0.0001
     16 C13         5.6316    5.6970   -2.7092 C.3       1 <0>         0.0171
     17 H2          2.0701    1.6802    0.4232 H         1 <0>         0.0858
     18 H3          0.8592    1.6549   -0.9034 H         1 <0>         0.0824
     19 H4          0.3169    1.7634    0.8056 H         1 <0>         0.1081
     20 H5          0.0851    3.4828   -2.4700 H         1 <0>         0.1183
     21 H6         -2.0952    4.3486   -3.2180 H         1 <0>         0.1351
     22 H7         -3.5926    5.4653   -1.6136 H         1 <0>         0.1359
     23 H8         -2.9072    5.7210    0.7376 H         1 <0>         0.1370
     24 H9         -0.7249    4.8592    1.4846 H         1 <0>         0.1330
     25 H10         3.7982    3.8795    0.4126 H         1 <0>         0.1365
     26 H11         3.4372    2.3613   -0.4768 H         1 <0>         0.1389
     27 H12         5.5257    3.4530   -1.3161 H         1 <0>         0.1246
     28 H13         4.2546    3.3842   -2.5834 H         1 <0>         0.0599
     29 H14         3.3449    6.9280   -2.2224 H         1 <0>         0.1235
     30 H15         2.9838    5.4098   -3.1119 H         1 <0>         0.0594
     31 H16         1.2559    5.8353   -1.3826 H         1 <0>         0.1355
     32 H17         2.5270    5.9043   -0.1153 H         1 <0>         0.1348
     33 H18         5.6501    6.7939   -2.7897 H         1 <0>         0.0843
     34 H19         5.4121    5.2607   -3.6948 H         1 <0>         0.0395
     35 H20         6.6109    5.3384   -2.3593 H         1 <0>         0.0850
     36 H21         1.9266    3.5742   -1.9278 H         1 <0>         0.4301
@<TRIPOS>BOND
     1    1    2 1
     2    1   17 1
     3    1   18 1
     4    1   19 1
     5    2    3 1
     6    2    4 1
     7    2   10 1
     8    4    9 ar
     9    4    5 ar
    10    5    6 ar
    11    5   20 1
    12    6    7 ar
    13    6   21 1
    14    7    8 ar
    15    7   22 1
    16    8    9 ar
    17    8   23 1
    18    9   24 1
    19   10   15 1
    20   10   11 1
    21   10   36 1
    22   11   12 1
    23   11   25 1
    24   11   26 1
    25   12   13 1
    26   12   27 1
    27   12   28 1
    28   13   14 1
    29   13   16 1
    30   14   15 1
    31   14   29 1
    32   14   30 1
    33   15   31 1
    34   15   32 1
    35   16   33 1
    36   16   34 1
    37   16   35 1
@<TRIPOS>MOLECULE
ZINC28526078
   35    36     0     0     0
SMALL
USER_CHARGES
1-methyl-4-[(1R)-1-phenylethyl]piperazine
@<TRIPOS>ATOM
      1 C1          1.0953    2.0654    0.0894 C.3       1 <0>        -0.1440
      2 C2          1.1505    3.5924    0.0099 C.3       1 <0>         0.1221
      3 H1          1.4075    4.0286    0.9865 H         1 <0>         0.0489
      4 C3         -0.1849    4.1202   -0.4474 C.ar      1 <0>        -0.0800
      5 C4         -0.5696    3.9768   -1.7673 C.ar      1 <0>        -0.0923
      6 C5         -1.7947    4.4606   -2.1867 C.ar      1 <0>        -0.1242
      7 C6         -2.6354    5.0873   -1.2860 C.ar      1 <0>        -0.1205
      8 C7         -2.2507    5.2307    0.0340 C.ar      1 <0>        -0.1212
      9 C8         -1.0256    4.7469    0.4534 C.ar      1 <0>        -0.1164
     10 N1          2.1900    3.9956   -0.9465 N.3       1 <0>        -0.5343
     11 C9          3.5007    3.4564   -0.5582 C.3       1 <0>         0.0522
     12 C10         4.5382    3.8312   -1.6192 C.3       1 <0>         0.0558
     13 N2          4.5922    5.2937   -1.7528 N.3       1 <0>        -0.5458
     14 C11         3.2814    5.8329   -2.1411 C.3       1 <0>         0.0564
     15 C12         2.2439    5.4581   -1.0801 C.3       1 <0>         0.0566
     16 C13         5.6316    5.6970   -2.7092 C.3       1 <0>         0.0226
     17 H2          2.0701    1.6802    0.4232 H         1 <0>         0.0617
     18 H3          0.8592    1.6549   -0.9034 H         1 <0>         0.0675
     19 H4          0.3169    1.7634    0.8056 H         1 <0>         0.0632
     20 H5          0.0851    3.4828   -2.4700 H         1 <0>         0.1271
     21 H6         -2.0952    4.3486   -3.2180 H         1 <0>         0.1208
     22 H7         -3.5926    5.4653   -1.6136 H         1 <0>         0.1202
     23 H8         -2.9072    5.7210    0.7376 H         1 <0>         0.1211
     24 H9         -0.7249    4.8592    1.4846 H         1 <0>         0.1186
     25 H10         3.7982    3.8795    0.4126 H         1 <0>         0.0428
     26 H11         3.4372    2.3613   -0.4768 H         1 <0>         0.0861
     27 H12         5.5257    3.4530   -1.3161 H         1 <0>         0.0803
     28 H13         4.2546    3.3842   -2.5834 H         1 <0>         0.0430
     29 H14         3.3449    6.9280   -2.2224 H         1 <0>         0.0794
     30 H15         2.9838    5.4098   -3.1119 H         1 <0>         0.0425
     31 H16         1.2559    5.8353   -1.3826 H         1 <0>         0.0830
     32 H17         2.5270    5.9043   -0.1153 H         1 <0>         0.0411
     33 H18         5.6501    6.7939   -2.7897 H         1 <0>         0.0693
     34 H19         5.4121    5.2607   -3.6948 H         1 <0>         0.0267
     35 H20         6.6109    5.3384   -2.3593 H         1 <0>         0.0698
@<TRIPOS>BOND
     1    1    2 1
     2    1   17 1
     3    1   18 1
     4    1   19 1
     5    2    3 1
     6    2    4 1
     7    2   10 1
     8    4    9 ar
     9    4    5 ar
    10    5    6 ar
    11    5   20 1
    12    6    7 ar
    13    6   21 1
    14    7    8 ar
    15    7   22 1
    16    8    9 ar
    17    8   23 1
    18    9   24 1
    19   10   15 1
    20   10   11 1
    21   11   12 1
    22   11   25 1
    23   11   26 1
    24   12   13 1
    25   12   27 1
    26   12   28 1
    27   13   14 1
    28   13   16 1
    29   14   15 1
    30   14   29 1
    31   14   30 1
    32   15   31 1
    33   15   32 1
    34   16   33 1
    35   16   34 1
    36   16   35 1
@<TRIPOS>MOLECULE
ZINC28526079
   36    37     0     0     0
SMALL
USER_CHARGES
1-methyl-4-[(1S)-1-phenylethyl]piperazine
@<TRIPOS>ATOM
      1 C1         -2.9057    3.1517   -2.2985 C.3       1 <0>        -0.1930
      2 C2         -1.4446    3.5911   -2.4129 C.3       1 <0>         0.1277
      3 H1         -0.9876    3.2028   -3.3351 H         1 <0>         0.1056
      4 C3         -1.3705    5.0962   -2.4032 C.ar      1 <0>        -0.0974
      5 C4         -2.4478    5.8441   -2.8402 C.ar      1 <0>        -0.1149
      6 C5         -2.3813    7.2248   -2.8272 C.ar      1 <0>        -0.1166
      7 C6         -1.2343    7.8575   -2.3859 C.ar      1 <0>        -0.1119
      8 C7         -0.1550    7.1095   -1.9538 C.ar      1 <0>        -0.1225
      9 C8         -0.2230    5.7289   -1.9627 C.ar      1 <0>        -0.1004
     10 N1         -0.6820    3.0559   -1.2771 N.3       1 <0>        -0.5315
     11 C9         -0.5374    1.5972   -1.3804 C.3       1 <0>         0.0213
     12 C10         0.3281    1.0899   -0.2245 C.3       1 <0>         0.0007
     13 N2         -0.2949    1.4653    1.0524 N.4       1 <0>        -0.4022
     14 C11        -0.4400    2.9241    1.1555 C.3       1 <0>         0.0002
     15 C12        -1.3055    3.4314   -0.0004 C.3       1 <0>         0.0170
     16 C13         0.4681    0.9302    2.1879 C.3       1 <0>        -0.0452
     17 H2         -2.9598    2.0531   -2.3056 H         1 <0>         0.0615
     18 H3         -3.4767    3.5524   -3.1490 H         1 <0>         0.0809
     19 H4         -3.3309    3.5337   -1.3587 H         1 <0>         0.0663
     20 H5         -3.3426    5.3498   -3.1886 H         1 <0>         0.1249
     21 H6         -3.2246    7.8092   -3.1645 H         1 <0>         0.1258
     22 H7         -1.1814    8.9362   -2.3782 H         1 <0>         0.1250
     23 H8          0.7412    7.6038   -1.6089 H         1 <0>         0.1237
     24 H9          0.6201    5.1445   -1.6251 H         1 <0>         0.1278
     25 H10        -1.5301    1.1259   -1.3307 H         1 <0>         0.0641
     26 H11        -0.0583    1.3431   -2.3374 H         1 <0>         0.1239
     27 H12         0.4137   -0.0052   -0.2837 H         1 <0>         0.1361
     28 H13         1.3295    1.5401   -0.2912 H         1 <0>         0.1346
     29 H14        -0.9193    3.1782    2.1125 H         1 <0>         0.1352
     30 H15         0.5525    3.3957    1.1059 H         1 <0>         0.1340
     31 H16        -1.3913    4.5265    0.0576 H         1 <0>         0.1248
     32 H17        -2.3070    2.9812    0.0650 H         1 <0>         0.0658
     33 H18        -0.0192    1.2255    3.1288 H         1 <0>         0.1243
     34 H19         1.4919    1.3317    2.1635 H         1 <0>         0.1198
     35 H20         0.5029   -0.1673    2.1216 H         1 <0>         0.1246
     36 H21        -1.3007    1.0209    1.0834 H         1 <0>         0.4401
@<TRIPOS>BOND
     1    1    2 1
     2    1   17 1
     3    1   18 1
     4    1   19 1
     5    2    3 1
     6    2    4 1
     7    2   10 1
     8    4    9 ar
     9    4    5 ar
    10    5    6 ar
    11    5   20 1
    12    6    7 ar
    13    6   21 1
    14    7    8 ar
    15    7   22 1
    16    8    9 ar
    17    8   23 1
    18    9   24 1
    19   10   15 1
    20   10   11 1
    21   11   12 1
    22   11   25 1
    23   11   26 1
    24   12   13 1
    25   12   27 1
    26   12   28 1
    27   13   14 1
    28   13   16 1
    29   13   36 1
    30   14   15 1
    31   14   29 1
    32   14   30 1
    33   15   31 1
    34   15   32 1
    35   16   33 1
    36   16   34 1
    37   16   35 1
@<TRIPOS>MOLECULE
ZINC28526079
   36    37     0     0     0
SMALL
USER_CHARGES
1-methyl-4-[(1S)-1-phenylethyl]piperazine
@<TRIPOS>ATOM
      1 C1         -2.9057    3.1517   -2.2985 C.3       1 <0>        -0.1847
      2 C2         -1.4446    3.5911   -2.4129 C.3       1 <0>         0.0863
      3 H1         -0.9876    3.2028   -3.3351 H         1 <0>         0.1437
      4 C3         -1.3705    5.0962   -2.4032 C.ar      1 <0>        -0.1371
      5 C4         -2.4478    5.8441   -2.8402 C.ar      1 <0>        -0.0917
      6 C5         -2.3813    7.2248   -2.8272 C.ar      1 <0>        -0.1029
      7 C6         -1.2343    7.8575   -2.3859 C.ar      1 <0>        -0.0944
      8 C7         -0.1550    7.1095   -1.9538 C.ar      1 <0>        -0.1016
      9 C8         -0.2230    5.7289   -1.9627 C.ar      1 <0>        -0.1289
     10 N1         -0.6820    3.0559   -1.2771 N.4       1 <0>        -0.4008
     11 C9         -0.5374    1.5972   -1.3804 C.3       1 <0>        -0.0023
     12 C10         0.3281    1.0899   -0.2245 C.3       1 <0>         0.0245
     13 N2         -0.2949    1.4653    1.0524 N.3       1 <0>        -0.5428
     14 C11        -0.4400    2.9241    1.1555 C.3       1 <0>         0.0258
     15 C12        -1.3055    3.4314   -0.0004 C.3       1 <0>        -0.0060
     16 C13         0.4681    0.9302    2.1879 C.3       1 <0>         0.0171
     17 H2         -2.9598    2.0531   -2.3056 H         1 <0>         0.0853
     18 H3         -3.4767    3.5524   -3.1490 H         1 <0>         0.1074
     19 H4         -3.3309    3.5337   -1.3587 H         1 <0>         0.0864
     20 H5         -3.3426    5.3498   -3.1886 H         1 <0>         0.1369
     21 H6         -3.2246    7.8092   -3.1645 H         1 <0>         0.1374
     22 H7         -1.1814    8.9362   -2.3782 H         1 <0>         0.1362
     23 H8          0.7412    7.6038   -1.6089 H         1 <0>         0.1354
     24 H9          0.6201    5.1445   -1.6251 H         1 <0>         0.1148
     25 H10        -1.5301    1.1259   -1.3307 H         1 <0>         0.1377
     26 H11        -0.0583    1.3431   -2.3374 H         1 <0>         0.1366
     27 H12         0.4137   -0.0052   -0.2837 H         1 <0>         0.1249
     28 H13         1.3295    1.5401   -0.2912 H         1 <0>         0.0598
     29 H14        -0.9193    3.1782    2.1125 H         1 <0>         0.1234
     30 H15         0.5525    3.3957    1.1059 H         1 <0>         0.0589
     31 H16        -1.3913    4.5265    0.0576 H         1 <0>         0.1350
     32 H17        -2.3070    2.9812    0.0650 H         1 <0>         0.1385
     33 H18        -0.0192    1.2255    3.1288 H         1 <0>         0.0844
     34 H19         1.4919    1.3317    2.1635 H         1 <0>         0.0395
     35 H20         0.5029   -0.1673    2.1216 H         1 <0>         0.0851
     36 H21         0.3239    3.4999   -1.3076 H         1 <0>         0.4321
@<TRIPOS>BOND
     1    1    2 1
     2    1   17 1
     3    1   18 1
     4    1   19 1
     5    2    3 1
     6    2    4 1
     7    2   10 1
     8    4    9 ar
     9    4    5 ar
    10    5    6 ar
    11    5   20 1
    12    6    7 ar
    13    6   21 1
    14    7    8 ar
    15    7   22 1
    16    8    9 ar
    17    8   23 1
    18    9   24 1
    19   10   15 1
    20   10   11 1
    21   10   36 1
    22   11   12 1
    23   11   25 1
    24   11   26 1
    25   12   13 1
    26   12   27 1
    27   12   28 1
    28   13   14 1
    29   13   16 1
    30   14   15 1
    31   14   29 1
    32   14   30 1
    33   15   31 1
    34   15   32 1
    35   16   33 1
    36   16   34 1
    37   16   35 1
@<TRIPOS>MOLECULE
ZINC28526079
   35    36     0     0     0
SMALL
USER_CHARGES
1-methyl-4-[(1S)-1-phenylethyl]piperazine
@<TRIPOS>ATOM
      1 C1         -2.9057    3.1517   -2.2985 C.3       1 <0>        -0.1867
      2 C2         -1.4446    3.5911   -2.4129 C.3       1 <0>         0.1201
      3 H1         -0.9876    3.2028   -3.3351 H         1 <0>         0.0944
      4 C3         -1.3705    5.0962   -2.4032 C.ar      1 <0>        -0.0800
      5 C4         -2.4478    5.8441   -2.8402 C.ar      1 <0>        -0.1190
      6 C5         -2.3813    7.2248   -2.8272 C.ar      1 <0>        -0.1226
      7 C6         -1.2343    7.8575   -2.3859 C.ar      1 <0>        -0.1220
      8 C7         -0.1550    7.1095   -1.9538 C.ar      1 <0>        -0.1250
      9 C8         -0.2230    5.7289   -1.9627 C.ar      1 <0>        -0.0949
     10 N1         -0.6820    3.0559   -1.2771 N.3       1 <0>        -0.5311
     11 C9         -0.5374    1.5972   -1.3804 C.3       1 <0>         0.0533
     12 C10         0.3281    1.0899   -0.2245 C.3       1 <0>         0.0556
     13 N2         -0.2949    1.4653    1.0524 N.3       1 <0>        -0.5452
     14 C11        -0.4400    2.9241    1.1555 C.3       1 <0>         0.0554
     15 C12        -1.3055    3.4314   -0.0004 C.3       1 <0>         0.0516
     16 C13         0.4681    0.9302    2.1879 C.3       1 <0>         0.0226
     17 H2         -2.9598    2.0531   -2.3056 H         1 <0>         0.0612
     18 H3         -3.4767    3.5524   -3.1490 H         1 <0>         0.0670
     19 H4         -3.3309    3.5337   -1.3587 H         1 <0>         0.0649
     20 H5         -3.3426    5.3498   -3.1886 H         1 <0>         0.1229
     21 H6         -3.2246    7.8092   -3.1645 H         1 <0>         0.1203
     22 H7         -1.1814    8.9362   -2.3782 H         1 <0>         0.1193
     23 H8          0.7412    7.6038   -1.6089 H         1 <0>         0.1199
     24 H9          0.6201    5.1445   -1.6251 H         1 <0>         0.1300
     25 H10        -1.5301    1.1259   -1.3307 H         1 <0>         0.0473
     26 H11        -0.0583    1.3431   -2.3374 H         1 <0>         0.0809
     27 H12         0.4137   -0.0052   -0.2837 H         1 <0>         0.0804
     28 H13         1.3295    1.5401   -0.2912 H         1 <0>         0.0427
     29 H14        -0.9193    3.1782    2.1125 H         1 <0>         0.0791
     30 H15         0.5525    3.3957    1.1059 H         1 <0>         0.0418
     31 H16        -1.3913    4.5265    0.0576 H         1 <0>         0.0818
     32 H17        -2.3070    2.9812    0.0650 H         1 <0>         0.0481
     33 H18        -0.0192    1.2255    3.1288 H         1 <0>         0.0693
     34 H19         1.4919    1.3317    2.1635 H         1 <0>         0.0267
     35 H20         0.5029   -0.1673    2.1216 H         1 <0>         0.0697
@<TRIPOS>BOND
     1    1    2 1
     2    1   17 1
     3    1   18 1
     4    1   19 1
     5    2    3 1
     6    2    4 1
     7    2   10 1
     8    4    9 ar
     9    4    5 ar
    10    5    6 ar
    11    5   20 1
    12    6    7 ar
    13    6   21 1
    14    7    8 ar
    15    7   22 1
    16    8    9 ar
    17    8   23 1
    18    9   24 1
    19   10   15 1
    20   10   11 1
    21   11   12 1
    22   11   25 1
    23   11   26 1
    24   12   13 1
    25   12   27 1
    26   12   28 1
    27   13   14 1
    28   13   16 1
    29   14   15 1
    30   14   29 1
    31   14   30 1
    32   15   31 1
    33   15   32 1
    34   16   33 1
    35   16   34 1
    36   16   35 1
@<TRIPOS>MOLECULE
ZINC36269777
   83    88     0     0     0
SMALL
USER_CHARGES

@<TRIPOS>ATOM
      1 C1          0.7340    0.6110    2.2920 C.ar      1 <0>        -0.1181
      2 C2          1.9434    1.2783    2.3544 C.ar      1 <0>        -0.1189
      3 C3          3.1170    0.5996    2.0961 C.ar      1 <0>        -0.1117
      4 C4          3.0909   -0.7499    1.7752 C.ar      1 <0>        -0.1181
      5 C5          1.8853   -1.4154    1.7166 C.ar      1 <0>        -0.0796
      6 C6          0.7064   -0.7318    1.9736 C.ar      1 <0>        -0.1155
      7 C7          1.8074   -2.8832    1.3837 C.3       1 <0>        -0.1064
      8 C8          3.1164   -3.3430    0.7413 C.3       1 <0>         0.0748
      9 H1          3.2123   -2.9016   -0.2507 H         1 <0>         0.1037
     10 N1          4.2342   -2.9001    1.5896 N.3       1 <0>        -0.6507
     11 C9          4.3973   -1.4459    1.4962 C.3       1 <0>         0.0974
     12 C10         3.1250   -4.8458    0.6296 C.2       1 <0>         0.5267
     13 O1          3.7295   -5.5110    1.4438 O.2       1 <0>        -0.5023
     14 N2          2.4609   -5.4507   -0.3752 N.am      1 <0>        -0.7185
     15 C11         2.4692   -6.9116   -0.4838 C.3       1 <0>         0.1371
     16 H2          2.4697   -7.3502    0.5141 H         1 <0>         0.1135
     17 C12         3.7225   -7.3598   -1.2384 C.3       1 <0>        -0.0856
     18 C13         4.9487   -6.9455   -0.4664 C.ar      1 <0>        -0.0648
     19 C14         5.5259   -5.7108   -0.6971 C.ar      1 <0>        -0.0936
     20 C15         6.6505   -5.3303    0.0105 C.ar      1 <0>        -0.0871
     21 C16         7.1985   -6.1854    0.9500 C.ar      1 <0>        -0.0276
     22 C17         6.6204   -7.4211    1.1804 C.ar      1 <0>        -0.1026
     23 C18         5.4925   -7.7981    0.4761 C.ar      1 <0>        -0.0922
     24 Cl1         8.6114   -5.7084    1.8388 Cl        1 <0>        -0.0782
     25 C19         1.2428   -7.3668   -1.2319 C.2       1 <0>         0.5164
     26 O2          0.6842   -6.6104   -1.9980 O.2       1 <0>        -0.5338
     27 N3          0.7666   -8.6144   -1.0498 N.am      1 <0>        -0.6055
     28 C20         1.3630   -9.5038   -0.0439 C.3       1 <0>         0.1062
     29 C21         0.2541  -10.0170    0.8801 C.3       1 <0>        -0.1347
     30 C22        -0.8453  -10.6684    0.0380 C.3       1 <0>        -0.0605
     31 C23        -1.4484   -9.6285   -0.9091 C.3       1 <0>        -0.1233
     32 C24        -0.3627   -9.1088   -1.8491 C.3       1 <0>         0.1068
     33 C25        -0.2490  -11.8165   -0.7787 C.3       1 <0>         0.1261
     34 N4          0.4502  -12.7412    0.1169 N.pl3     1 <0>        -0.3670
     35 C26         0.2458  -14.0652    0.2275 C.2       1 <0>         0.2539
     36 N5          1.0678  -14.5287    1.1337 N.2       1 <0>        -0.5400
     37 C27         1.8094  -13.5351    1.6216 C.2       1 <0>         0.1971
     38 N6          1.4717  -12.4215    1.0263 N.2       1 <0>        -0.3102
     39 C28        -1.9383  -11.2128    0.9598 C.3       1 <0>        -0.0740
     40 C29        -1.3037  -12.0905    2.0405 C.3       1 <0>        -0.1304
     41 C30        -2.3967  -12.6350    2.9623 C.3       1 <0>        -0.1189
     42 C31        -3.3854  -13.4681    2.1443 C.3       1 <0>        -0.1184
     43 C32        -4.0201  -12.5905    1.0636 C.3       1 <0>        -0.1186
     44 C33        -2.9271  -12.0460    0.1418 C.3       1 <0>        -0.1186
     45 H3         -0.1863    1.1381    2.4963 H         1 <0>         0.1231
     46 H4          1.9695    2.3286    2.6045 H         1 <0>         0.1233
     47 H5          4.0610    1.1220    2.1437 H         1 <0>         0.1241
     48 H6         -0.2383   -1.2528    1.9242 H         1 <0>         0.1211
     49 H7          1.6327   -3.4526    2.2966 H         1 <0>         0.0831
     50 H8          0.9843   -3.0536    0.6897 H         1 <0>         0.0852
     51 H9          4.0977   -3.1878    2.5470 H         1 <0>         0.3542
     52 H10         4.7376   -1.1851    0.4941 H         1 <0>         0.0888
     53 H11         5.1417   -1.1194    2.2224 H         1 <0>         0.0927
     54 H12         1.9773   -4.9187   -1.0264 H         1 <0>         0.4083
     55 H13         3.7118   -8.4441   -1.3488 H         1 <0>         0.0862
     56 H14         3.7391   -6.8944   -2.2239 H         1 <0>         0.0836
     57 H15         5.0982   -5.0435   -1.4307 H         1 <0>         0.1187
     58 H16         7.1016   -4.3657   -0.1700 H         1 <0>         0.1269
     59 H17         7.0479   -8.0892    1.9134 H         1 <0>         0.1270
     60 H18         5.0383   -8.7607    0.6593 H         1 <0>         0.1231
     61 H19         1.8440  -10.3465   -0.5405 H         1 <0>         0.0772
     62 H20         2.0996   -8.9525    0.5406 H         1 <0>         0.0875
     63 H21         0.6671  -10.7522    1.5707 H         1 <0>         0.1175
     64 H22        -0.1649   -9.1832    1.4434 H         1 <0>         0.0637
     65 H23        -2.2471  -10.0872   -1.4920 H         1 <0>         0.0836
     66 H24        -1.8514   -8.7984   -0.3289 H         1 <0>         0.0775
     67 H25        -0.7644   -8.2969   -2.4554 H         1 <0>         0.0980
     68 H26        -0.0256   -9.9185   -2.4962 H         1 <0>         0.0695
     69 H27        -1.0479  -12.3470   -1.2969 H         1 <0>         0.1064
     70 H28         0.4544  -11.4161   -1.5088 H         1 <0>         0.0916
     71 H29        -0.4723  -14.6451   -0.3334 H         1 <0>         0.2126
     72 H30         2.5694  -13.6345    2.3826 H         1 <0>         0.2143
     73 H31        -2.4648  -10.3819    1.4294 H         1 <0>         0.0739
     74 H32        -0.7772  -12.9214    1.5709 H         1 <0>         0.0755
     75 H33        -0.5993  -11.4969    2.6232 H         1 <0>         0.0627
     76 H34        -1.9445  -13.2602    3.7322 H         1 <0>         0.0590
     77 H35        -2.9231  -11.8041    3.4319 H         1 <0>         0.0576
     78 H36        -2.8589  -14.2991    1.6747 H         1 <0>         0.0595
     79 H37        -4.1641  -13.8560    2.8010 H         1 <0>         0.0602
     80 H38        -4.7245  -13.1841    0.4808 H         1 <0>         0.0623
     81 H39        -4.5466  -11.7596    1.5332 H         1 <0>         0.0614
     82 H40        -3.3792  -11.4208   -0.6281 H         1 <0>         0.0661
     83 H41        -2.4006  -12.8769   -0.3278 H         1 <0>         0.0589
@<TRIPOS>BOND
     1    1    6 ar
     2    1    2 ar
     3    1   45 1
     4    2    3 ar
     5    2   46 1
     6    3    4 ar
     7    3   47 1
     8    4   11 1
     9    4    5 ar
    10    5    6 ar
    11    5    7 1
    12    6   48 1
    13    7    8 1
    14    7   49 1
    15    7   50 1
    16    8    9 1
    17    8   10 1
    18    8   12 1
    19   10   11 1
    20   10   51 1
    21   11   52 1
    22   11   53 1
    23   12   13 2
    24   12   14 am
    25   14   15 1
    26   14   54 1
    27   15   16 1
    28   15   17 1
    29   15   25 1
    30   17   18 1
    31   17   55 1
    32   17   56 1
    33   18   23 ar
    34   18   19 ar
    35   19   20 ar
    36   19   57 1
    37   20   21 ar
    38   20   58 1
    39   21   22 ar
    40   21   24 1
    41   22   23 ar
    42   22   59 1
    43   23   60 1
    44   25   26 2
    45   25   27 am
    46   27   32 1
    47   27   28 1
    48   28   29 1
    49   28   61 1
    50   28   62 1
    51   29   30 1
    52   29   63 1
    53   29   64 1
    54   30   31 1
    55   30   33 1
    56   30   39 1
    57   31   32 1
    58   31   65 1
    59   31   66 1
    60   32   67 1
    61   32   68 1
    62   33   34 1
    63   33   69 1
    64   33   70 1
    65   34   38 1
    66   34   35 1
    67   35   36 2
    68   35   71 1
    69   36   37 1
    70   37   38 2
    71   37   72 1
    72   39   44 1
    73   39   40 1
    74   39   73 1
    75   40   41 1
    76   40   74 1
    77   40   75 1
    78   41   42 1
    79   41   76 1
    80   41   77 1
    81   42   43 1
    82   42   78 1
    83   42   79 1
    84   43   44 1
    85   43   80 1
    86   43   81 1
    87   44   82 1
    88   44   83 1
@<TRIPOS>MOLECULE
ZINC19536830
   33    34     0     0     0
SMALL
USER_CHARGES
1-benzyl-4-methyl-piperazine
@<TRIPOS>ATOM
      1 C1         -1.3988    3.5648    2.4821 C.3       1 <0>        -0.0453
      2 N1         -0.7832    3.0484    1.2523 N.4       1 <0>        -0.4027
      3 C2         -0.7300    1.5798    1.2666 C.3       1 <0>         0.0006
      4 C3         -0.0127    1.0858    0.0080 C.3       1 <0>         0.0233
      5 N2         -0.7243    1.5730   -1.1819 N.3       1 <0>        -0.5339
      6 C4         -0.7771    3.0416   -1.1959 C.3       1 <0>         0.0180
      7 C5         -1.4948    3.5356    0.0624 C.3       1 <0>         0.0002
      8 C6         -0.1087    1.0567   -2.4117 C.3       1 <0>         0.0962
      9 C7         -0.7005    1.7626   -3.6044 C.ar      1 <0>        -0.1050
     10 C8         -1.8197    1.2448   -4.2288 C.ar      1 <0>        -0.0952
     11 C9         -2.3654    1.8949   -5.3199 C.ar      1 <0>        -0.1162
     12 C10        -1.7858    3.0575   -5.7927 C.ar      1 <0>        -0.1081
     13 C11        -0.6632    3.5722   -5.1717 C.ar      1 <0>        -0.1183
     14 C12        -0.1206    2.9249   -4.0774 C.ar      1 <0>        -0.1190
     15 H1         -0.8477    3.1854    3.3552 H         1 <0>         0.1246
     16 H2         -2.4457    3.2314    2.5360 H         1 <0>         0.1198
     17 H3         -1.3640    4.6642    2.4758 H         1 <0>         0.1245
     18 H4         -0.1825    1.2414    2.1586 H         1 <0>         0.1367
     19 H5         -1.7530    1.1760    1.2892 H         1 <0>         0.1349
     20 H6          1.0192    1.4668    0.0007 H         1 <0>         0.0614
     21 H7          0.0025   -0.0141    0.0024 H         1 <0>         0.1244
     22 H8          0.2460    3.4451   -1.2179 H         1 <0>         0.0599
     23 H9         -1.3241    3.3804   -2.0881 H         1 <0>         0.1290
     24 H10        -2.5266    3.1545    0.0706 H         1 <0>         0.1342
     25 H11        -1.5101    4.6355    0.0690 H         1 <0>         0.1355
     26 H12         0.9763    1.2349   -2.3813 H         1 <0>         0.0560
     27 H13        -0.3007   -0.0234   -2.4924 H         1 <0>         0.0995
     28 H14        -2.2701    0.3343   -3.8620 H         1 <0>         0.1257
     29 H15        -3.2423    1.4926   -5.8053 H         1 <0>         0.1279
     30 H16        -2.2099    3.5634   -6.6474 H         1 <0>         0.1274
     31 H17        -0.2102    4.4803   -5.5412 H         1 <0>         0.1263
     32 H18         0.7565    3.3270   -3.5922 H         1 <0>         0.1177
     33 H19         0.2493    3.4253    1.2084 H         1 <0>         0.4401
@<TRIPOS>BOND
     1    1    2 1
     2    1   15 1
     3    1   16 1
     4    1   17 1
     5    2    7 1
     6    2    3 1
     7    2   33 1
     8    3    4 1
     9    3   18 1
    10    3   19 1
    11    4    5 1
    12    4   20 1
    13    4   21 1
    14    5    6 1
    15    5    8 1
    16    6    7 1
    17    6   22 1
    18    6   23 1
    19    7   24 1
    20    7   25 1
    21    8    9 1
    22    8   26 1
    23    8   27 1
    24    9   14 ar
    25    9   10 ar
    26   10   11 ar
    27   10   28 1
    28   11   12 ar
    29   11   29 1
    30   12   13 ar
    31   12   30 1
    32   13   14 ar
    33   13   31 1
    34   14   32 1
@<TRIPOS>MOLECULE
ZINC19536830
   33    34     0     0     0
SMALL
USER_CHARGES
1-benzyl-4-methyl-piperazine
@<TRIPOS>ATOM
      1 C1         -1.3988    3.5648    2.4821 C.3       1 <0>         0.0171
      2 N1         -0.7832    3.0484    1.2523 N.3       1 <0>        -0.5440
      3 C2         -0.7300    1.5798    1.2666 C.3       1 <0>         0.0234
      4 C3         -0.0127    1.0858    0.0080 C.3       1 <0>         0.0006
      5 N2         -0.7243    1.5730   -1.1819 N.4       1 <0>        -0.3986
      6 C4         -0.7771    3.0416   -1.1959 C.3       1 <0>        -0.0035
      7 C5         -1.4948    3.5356    0.0624 C.3       1 <0>         0.0254
      8 C6         -0.1087    1.0567   -2.4117 C.3       1 <0>         0.0471
      9 C7         -0.7005    1.7626   -3.6044 C.ar      1 <0>        -0.1594
     10 C8         -1.8197    1.2448   -4.2288 C.ar      1 <0>        -0.0950
     11 C9         -2.3654    1.8949   -5.3199 C.ar      1 <0>        -0.1136
     12 C10        -1.7858    3.0575   -5.7927 C.ar      1 <0>        -0.0848
     13 C11        -0.6632    3.5722   -5.1717 C.ar      1 <0>        -0.1139
     14 C12        -0.1206    2.9249   -4.0774 C.ar      1 <0>        -0.0967
     15 H1         -0.8477    3.1854    3.3552 H         1 <0>         0.0844
     16 H2         -2.4457    3.2314    2.5360 H         1 <0>         0.0396
     17 H3         -1.3640    4.6642    2.4758 H         1 <0>         0.0846
     18 H4         -0.1825    1.2414    2.1586 H         1 <0>         0.1241
     19 H5         -1.7530    1.1760    1.2892 H         1 <0>         0.0605
     20 H6          1.0192    1.4668    0.0007 H         1 <0>         0.1354
     21 H7          0.0025   -0.0141    0.0024 H         1 <0>         0.1371
     22 H8          0.2460    3.4451   -1.2179 H         1 <0>         0.1333
     23 H9         -1.3241    3.3804   -2.0881 H         1 <0>         0.1376
     24 H10        -2.5266    3.1545    0.0706 H         1 <0>         0.0596
     25 H11        -1.5101    4.6355    0.0690 H         1 <0>         0.1225
     26 H12         0.9763    1.2349   -2.3813 H         1 <0>         0.1337
     27 H13        -0.3007   -0.0234   -2.4924 H         1 <0>         0.1380
     28 H14        -2.2701    0.3343   -3.8620 H         1 <0>         0.1307
     29 H15        -3.2423    1.4926   -5.8053 H         1 <0>         0.1358
     30 H16        -2.2099    3.5634   -6.6474 H         1 <0>         0.1358
     31 H17        -0.2102    4.4803   -5.5412 H         1 <0>         0.1362
     32 H18         0.7565    3.3270   -3.5922 H         1 <0>         0.1303
     33 H19        -1.7568    1.1962   -1.1382 H         1 <0>         0.4368
@<TRIPOS>BOND
     1    1    2 1
     2    1   15 1
     3    1   16 1
     4    1   17 1
     5    2    7 1
     6    2    3 1
     7    3    4 1
     8    3   18 1
     9    3   19 1
    10    4    5 1
    11    4   20 1
    12    4   21 1
    13    5    6 1
    14    5    8 1
    15    5   33 1
    16    6    7 1
    17    6   22 1
    18    6   23 1
    19    7   24 1
    20    7   25 1
    21    8    9 1
    22    8   26 1
    23    8   27 1
    24    9   14 ar
    25    9   10 ar
    26   10   11 ar
    27   10   28 1
    28   11   12 ar
    29   11   29 1
    30   12   13 ar
    31   12   30 1
    32   13   14 ar
    33   13   31 1
    34   14   32 1
@<TRIPOS>MOLECULE
ZINC19536830
   32    33     0     0     0
SMALL
USER_CHARGES
1-benzyl-4-methyl-piperazine
@<TRIPOS>ATOM
      1 C1         -1.3988    3.5648    2.4821 C.3       1 <0>         0.0224
      2 N1         -0.7832    3.0484    1.2523 N.3       1 <0>        -0.5462
      3 C2         -0.7300    1.5798    1.2666 C.3       1 <0>         0.0551
      4 C3         -0.0127    1.0858    0.0080 C.3       1 <0>         0.0547
      5 N2         -0.7243    1.5730   -1.1819 N.3       1 <0>        -0.5337
      6 C4         -0.7771    3.0416   -1.1959 C.3       1 <0>         0.0526
      7 C5         -1.4948    3.5356    0.0624 C.3       1 <0>         0.0549
      8 C6         -0.1087    1.0567   -2.4117 C.3       1 <0>         0.0921
      9 C7         -0.7005    1.7626   -3.6044 C.ar      1 <0>        -0.0853
     10 C8         -1.8197    1.2448   -4.2288 C.ar      1 <0>        -0.0996
     11 C9         -2.3654    1.8949   -5.3199 C.ar      1 <0>        -0.1206
     12 C10        -1.7858    3.0575   -5.7927 C.ar      1 <0>        -0.1189
     13 C11        -0.6632    3.5722   -5.1717 C.ar      1 <0>        -0.1208
     14 C12        -0.1206    2.9249   -4.0774 C.ar      1 <0>        -0.1142
     15 H1         -0.8477    3.1854    3.3552 H         1 <0>         0.0698
     16 H2         -2.4457    3.2314    2.5360 H         1 <0>         0.0269
     17 H3         -1.3640    4.6642    2.4758 H         1 <0>         0.0698
     18 H4         -0.1825    1.2414    2.1586 H         1 <0>         0.0814
     19 H5         -1.7530    1.1760    1.2892 H         1 <0>         0.0433
     20 H6          1.0192    1.4668    0.0007 H         1 <0>         0.0442
     21 H7          0.0025   -0.0141    0.0024 H         1 <0>         0.0821
     22 H8          0.2460    3.4451   -1.2179 H         1 <0>         0.0416
     23 H9         -1.3241    3.3804   -2.0881 H         1 <0>         0.0870
     24 H10        -2.5266    3.1545    0.0706 H         1 <0>         0.0425
     25 H11        -1.5101    4.6355    0.0690 H         1 <0>         0.0798
     26 H12         0.9763    1.2349   -2.3813 H         1 <0>         0.0450
     27 H13        -0.3007   -0.0234   -2.4924 H         1 <0>         0.0862
     28 H14        -2.2701    0.3343   -3.8620 H         1 <0>         0.1231
     29 H15        -3.2423    1.4926   -5.8053 H         1 <0>         0.1225
     30 H16        -2.2099    3.5634   -6.6474 H         1 <0>         0.1216
     31 H17        -0.2102    4.4803   -5.5412 H         1 <0>         0.1222
     32 H18         0.7565    3.3270   -3.5922 H         1 <0>         0.1185
@<TRIPOS>BOND
     1    1    2 1
     2    1   15 1
     3    1   16 1
     4    1   17 1
     5    2    7 1
     6    2    3 1
     7    3    4 1
     8    3   18 1
     9    3   19 1
    10    4    5 1
    11    4   20 1
    12    4   21 1
    13    5    6 1
    14    5    8 1
    15    6    7 1
    16    6   22 1
    17    6   23 1
    18    7   24 1
    19    7   25 1
    20    8    9 1
    21    8   26 1
    22    8   27 1
    23    9   14 ar
    24    9   10 ar
    25   10   11 ar
    26   10   28 1
    27   11   12 ar
    28   11   29 1
    29   12   13 ar
    30   12   30 1
    31   13   14 ar
    32   13   31 1
    33   14   32 1
@<TRIPOS>MOLECULE
ZINC03938671
   42    44     0     0     0
SMALL
USER_CHARGES
2-[2-[2-(5-bromo-2-methoxy-phenyl)ethyl]-3-fluoro-phenyl]-4,5-dihydro-1H-imidazole
@<TRIPOS>ATOM
      1 C1         -3.1192   -3.3509    0.1827 C.3       1 <0>         0.0203
      2 O1         -3.0995   -1.9429    0.4258 O.3       1 <0>        -0.3071
      3 C2         -4.2979   -1.3018    0.4372 C.ar      1 <0>         0.1620
      4 C3         -5.4687   -2.0138    0.2192 C.ar      1 <0>        -0.1922
      5 C4         -6.6856   -1.3606    0.2316 C.ar      1 <0>        -0.0372
      6 C5         -6.7376    0.0030    0.4607 C.ar      1 <0>        -0.1248
      7 C6         -5.5720    0.7137    0.6839 C.ar      1 <0>        -0.0653
      8 C7         -4.3523    0.0649    0.6671 C.ar      1 <0>        -0.1389
      9 C8         -3.0823    0.8407    0.9047 C.3       1 <0>        -0.0856
     10 C9         -2.4695    1.2397   -0.4392 C.3       1 <0>        -0.1198
     11 C10        -1.1995    2.0154   -0.2016 C.ar      1 <0>        -0.0682
     12 C11        -1.2540    3.3866    0.0464 C.ar      1 <0>        -0.1052
     13 C12        -0.0743    4.0989    0.2592 C.ar      1 <0>        -0.0642
     14 C13         1.1402    3.4440    0.2291 C.ar      1 <0>        -0.0839
     15 C14         1.1899    2.0832   -0.0116 C.ar      1 <0>        -0.0892
     16 C15         0.0217    1.3688   -0.2239 C.ar      1 <0>         0.1192
     17 F1          0.0770    0.0394   -0.4586 F         1 <0>        -0.1127
     18 C16        -2.5597    4.0848    0.0778 C.cat     1 <0>         0.5634
     19 C17        -4.8002    4.4238    0.0565 C.3       1 <0>         0.0393
     20 C18        -4.1044    5.7929    0.1908 C.3       1 <0>         0.0712
     21 N1         -2.6734    5.4461    0.1931 N.pl3     1 <0>        -0.6643
     22 Br1        -8.4050    0.8948    0.4765 Br        1 <0>        -0.0343
     23 H1         -3.7082   -3.8449    0.9554 H         1 <0>         0.0635
     24 H2         -3.5644   -3.5449   -0.7932 H         1 <0>         0.0631
     25 H3         -2.1000   -3.7369    0.2003 H         1 <0>         0.1101
     26 H4         -5.4285   -3.0782    0.0403 H         1 <0>         0.1466
     27 H5         -7.5971   -1.9144    0.0619 H         1 <0>         0.1443
     28 H6         -5.6151    1.7772    0.8670 H         1 <0>         0.1268
     29 H7         -2.3758    0.2207    1.4565 H         1 <0>         0.1110
     30 H8         -3.3070    1.7374    1.4821 H         1 <0>         0.0766
     31 H9         -3.1760    1.8596   -0.9910 H         1 <0>         0.0884
     32 H10        -2.2448    0.3429   -1.0166 H         1 <0>         0.1227
     33 H11        -0.1109    5.1618    0.4470 H         1 <0>         0.1454
     34 H12         2.0539    3.9957    0.3935 H         1 <0>         0.1599
     35 H13         2.1428    1.5753   -0.0338 H         1 <0>         0.1606
     36 H14        -5.4293    4.2282    0.9249 H         1 <0>         0.1288
     37 H15        -5.3909    4.3836   -0.8587 H         1 <0>         0.1300
     38 H16        -4.3845    6.2764    1.1267 H         1 <0>         0.1238
     39 H17        -4.3441    6.4311   -0.6597 H         1 <0>         0.1238
     40 H18        -1.9371    6.0736    0.2644 H         1 <0>         0.4553
     41 N2         -3.6898    3.4596   -0.0070 N.pl3     1 <0>        -0.6382
     42 H19        -3.7959    2.4429   -0.1041 H         1 <0>         0.4753
@<TRIPOS>BOND
     1    1    2 1
     2    1   23 1
     3    1   24 1
     4    1   25 1
     5    2    3 1
     6    3    8 ar
     7    3    4 ar
     8    4    5 ar
     9    4   26 1
    10    5    6 ar
    11    5   27 1
    12    6    7 ar
    13    6   22 1
    14    7    8 ar
    15    7   28 1
    16    8    9 1
    17    9   10 1
    18    9   29 1
    19    9   30 1
    20   10   11 1
    21   10   31 1
    22   10   32 1
    23   11   16 ar
    24   11   12 ar
    25   12   13 ar
    26   12   18 1
    27   13   14 ar
    28   13   33 1
    29   14   15 ar
    30   14   34 1
    31   15   16 ar
    32   15   35 1
    33   16   17 1
    34   18   21 1
    35   18   41 2
    36   19   20 1
    37   19   36 1
    38   19   37 1
    39   19   41 1
    40   20   21 1
    41   20   38 1
    42   20   39 1
    43   21   40 1
    44   41   42 1
@<TRIPOS>MOLECULE
ZINC38315919
   33    34     0     0     0
SMALL
USER_CHARGES

@<TRIPOS>ATOM
      1 C1         -0.0164    1.3567    0.0095 C.ar      1 <0>        -0.0852
      2 C2          1.1686    2.0905    0.0021 C.ar      1 <0>        -0.0967
      3 C3          2.3785    1.4675   -0.0131 C.ar      1 <0>        -0.1074
      4 C4          2.4375    0.0634   -0.0211 C.ar      1 <0>        -0.0641
      5 C5          3.6681   -0.6153   -0.0364 C.ar      1 <0>        -0.0525
      6 C6          3.6865   -1.9761   -0.0434 C.ar      1 <0>        -0.1782
      7 C7          2.5015   -2.7098   -0.0357 C.ar      1 <0>        -0.1231
      8 C8          1.2917   -2.0868   -0.0209 C.ar      1 <0>        -0.0775
      9 C9          1.2327   -0.6827   -0.0133 C.ar      1 <0>        -0.0308
     10 C10         0.0021   -0.0041    0.0020 C.ar      1 <0>        -0.1123
     11 C11         5.0079   -2.7004   -0.0602 C.3       1 <0>         0.0494
     12 N1          5.4511   -2.9427    1.3192 N.4       1 <0>        -0.5054
     13 C12         6.7391   -3.6488    1.3028 C.3       1 <0>        -0.0394
     14 C13         7.2007   -3.9012    2.7395 C.3       1 <0>        -0.0327
     15 N2          8.4888   -4.6072    2.7231 N.4       1 <0>        -0.6308
     16 H1         -0.9633    1.8757    0.0259 H         1 <0>         0.1385
     17 H2          1.1260    3.1696    0.0083 H         1 <0>         0.1374
     18 H3          3.2884    2.0491   -0.0194 H         1 <0>         0.1349
     19 H4          4.5943   -0.0599   -0.0428 H         1 <0>         0.1348
     20 H5          2.5441   -3.7890   -0.0419 H         1 <0>         0.1293
     21 H6          0.3816   -2.6684   -0.0154 H         1 <0>         0.1412
     22 H7         -0.9241   -0.5595    0.0082 H         1 <0>         0.1396
     23 H8          4.8935   -3.6529   -0.5777 H         1 <0>         0.1443
     24 H9          5.7491   -2.0921   -0.5784 H         1 <0>         0.1426
     25 H10         5.5569   -2.0610    1.7983 H         1 <0>         0.4353
     26 H11         6.6248   -4.6013    0.7853 H         1 <0>         0.1551
     27 H12         7.4804   -3.0404    0.7846 H         1 <0>         0.1548
     28 H13         7.3151   -2.9487    3.2570 H         1 <0>         0.1562
     29 H14         6.4595   -4.5095    3.2577 H         1 <0>         0.1564
     30 H15         8.3830   -5.4889    2.2441 H         1 <0>         0.4459
     31 H16         9.1750   -4.0441    2.2434 H         1 <0>         0.4458
     32 H17         4.7649   -3.5059    1.7989 H         1 <0>         0.4366
     33 H18         8.7932   -4.7736    3.6706 H         1 <0>         0.4583
@<TRIPOS>BOND
     1    1   10 ar
     2    1    2 ar
     3    1   16 1
     4    2    3 ar
     5    2   17 1
     6    3    4 ar
     7    3   18 1
     8    4    9 ar
     9    4    5 ar
    10    5    6 ar
    11    5   19 1
    12    6    7 ar
    13    6   11 1
    14    7    8 ar
    15    7   20 1
    16    8    9 ar
    17    8   21 1
    18    9   10 ar
    19   10   22 1
    20   11   12 1
    21   11   23 1
    22   11   24 1
    23   12   13 1
    24   12   25 1
    25   12   32 1
    26   13   14 1
    27   13   26 1
    28   13   27 1
    29   14   15 1
    30   14   28 1
    31   14   29 1
    32   15   30 1
    33   15   31 1
    34   15   33 1
@<TRIPOS>MOLECULE
ZINC38315919
   32    33     0     0     0
SMALL
USER_CHARGES

@<TRIPOS>ATOM
      1 C1         -0.0164    1.3567    0.0095 C.ar      1 <0>        -0.0932
      2 C2          1.1686    2.0905    0.0021 C.ar      1 <0>        -0.1029
      3 C3          2.3785    1.4675   -0.0131 C.ar      1 <0>        -0.1056
      4 C4          2.4375    0.0634   -0.0211 C.ar      1 <0>        -0.0616
      5 C5          3.6681   -0.6153   -0.0364 C.ar      1 <0>        -0.0602
      6 C6          3.6865   -1.9761   -0.0434 C.ar      1 <0>        -0.1641
      7 C7          2.5015   -2.7098   -0.0357 C.ar      1 <0>        -0.1166
      8 C8          1.2917   -2.0868   -0.0209 C.ar      1 <0>        -0.0845
      9 C9          1.2327   -0.6827   -0.0133 C.ar      1 <0>        -0.0345
     10 C10         0.0021   -0.0041    0.0020 C.ar      1 <0>        -0.1114
     11 C11         5.0079   -2.7004   -0.0602 C.3       1 <0>         0.0476
     12 N1          5.4511   -2.9427    1.3192 N.4       1 <0>        -0.5065
     13 C12         6.7391   -3.6488    1.3028 C.3       1 <0>        -0.0115
     14 C13         7.2007   -3.9012    2.7395 C.3       1 <0>         0.0352
     15 N2          8.4888   -4.6072    2.7231 N.3       1 <0>        -0.8430
     16 H1         -0.9633    1.8757    0.0259 H         1 <0>         0.1342
     17 H2          1.1260    3.1696    0.0083 H         1 <0>         0.1335
     18 H3          3.2884    2.0491   -0.0194 H         1 <0>         0.1334
     19 H4          4.5943   -0.0599   -0.0428 H         1 <0>         0.1350
     20 H5          2.5441   -3.7890   -0.0419 H         1 <0>         0.1308
     21 H6          0.3816   -2.6684   -0.0154 H         1 <0>         0.1388
     22 H7         -0.9241   -0.5595    0.0082 H         1 <0>         0.1364
     23 H8          4.8935   -3.6529   -0.5777 H         1 <0>         0.1401
     24 H9          5.7491   -2.0921   -0.5784 H         1 <0>         0.1372
     25 H10         5.5569   -2.0610    1.7983 H         1 <0>         0.4262
     26 H11         6.6248   -4.6013    0.7853 H         1 <0>         0.1414
     27 H12         7.4804   -3.0404    0.7846 H         1 <0>         0.1303
     28 H13         7.3151   -2.9487    3.2570 H         1 <0>         0.0505
     29 H14         6.4595   -4.5095    3.2577 H         1 <0>         0.0948
     30 H15         9.1762   -4.0932    2.1927 H         1 <0>         0.3526
     31 H16         8.8153   -4.7857    3.6610 H         1 <0>         0.3678
     32 H17         4.7649   -3.5059    1.7989 H         1 <0>         0.4294
@<TRIPOS>BOND
     1    1   10 ar
     2    1    2 ar
     3    1   16 1
     4    2    3 ar
     5    2   17 1
     6    3    4 ar
     7    3   18 1
     8    4    9 ar
     9    4    5 ar
    10    5    6 ar
    11    5   19 1
    12    6    7 ar
    13    6   11 1
    14    7    8 ar
    15    7   20 1
    16    8    9 ar
    17    8   21 1
    18    9   10 ar
    19   10   22 1
    20   11   12 1
    21   11   23 1
    22   11   24 1
    23   12   13 1
    24   12   25 1
    25   12   32 1
    26   13   14 1
    27   13   26 1
    28   13   27 1
    29   14   15 1
    30   14   28 1
    31   14   29 1
    32   15   30 1
    33   15   31 1
@<TRIPOS>MOLECULE
ZINC38315919
   32    33     0     0     0
SMALL
USER_CHARGES

@<TRIPOS>ATOM
      1 C1         -0.0164    1.3567    0.0095 C.ar      1 <0>        -0.1094
      2 C2          1.1686    2.0905    0.0021 C.ar      1 <0>        -0.1101
      3 C3          2.3785    1.4675   -0.0131 C.ar      1 <0>        -0.1099
      4 C4          2.4375    0.0634   -0.0211 C.ar      1 <0>        -0.0536
      5 C5          3.6681   -0.6153   -0.0364 C.ar      1 <0>        -0.0946
      6 C6          3.6865   -1.9761   -0.0434 C.ar      1 <0>        -0.0937
      7 C7          2.5015   -2.7098   -0.0357 C.ar      1 <0>        -0.1008
      8 C8          1.2917   -2.0868   -0.0209 C.ar      1 <0>        -0.0998
      9 C9          1.2327   -0.6827   -0.0133 C.ar      1 <0>        -0.0475
     10 C10         0.0021   -0.0041    0.0020 C.ar      1 <0>        -0.1076
     11 C11         5.0079   -2.7004   -0.0602 C.3       1 <0>         0.1025
     12 N1          5.4511   -2.9427    1.3192 N.3       1 <0>        -0.6781
     13 C12         6.7391   -3.6487    1.3420 C.3       1 <0>         0.0267
     14 C13         7.1669   -3.8826    2.7922 C.3       1 <0>        -0.0094
     15 N2          8.4549   -4.5886    2.8150 N.4       1 <0>        -0.6349
     16 H1         -0.9633    1.8757    0.0259 H         1 <0>         0.1277
     17 H2          1.1260    3.1696    0.0083 H         1 <0>         0.1269
     18 H3          3.2884    2.0491   -0.0194 H         1 <0>         0.1270
     19 H4          4.5943   -0.0599   -0.0428 H         1 <0>         0.1227
     20 H5          2.5441   -3.7890   -0.0419 H         1 <0>         0.1235
     21 H6          0.3816   -2.6684   -0.0154 H         1 <0>         0.1305
     22 H7         -0.9241   -0.5595    0.0082 H         1 <0>         0.1304
     23 H8          4.8935   -3.6529   -0.5777 H         1 <0>         0.0890
     24 H9          5.7491   -2.0921   -0.5784 H         1 <0>         0.0486
     25 H10         6.6368   -4.6078    0.8342 H         1 <0>         0.0964
     26 H11         7.4923   -3.0470    0.8335 H         1 <0>         0.0541
     27 H12         7.2692   -2.9235    3.3000 H         1 <0>         0.1327
     28 H13         6.4137   -4.4844    3.3007 H         1 <0>         0.1440
     29 H14         8.7371   -4.7428    3.7714 H         1 <0>         0.4419
     30 H15         8.3602   -5.4764    2.3450 H         1 <0>         0.4370
     31 H16         5.5025   -2.0797    1.8394 H         1 <0>         0.3526
     32 H17         9.1522   -4.0315    2.3443 H         1 <0>         0.4349
@<TRIPOS>BOND
     1    1   10 ar
     2    1    2 ar
     3    1   16 1
     4    2    3 ar
     5    2   17 1
     6    3    4 ar
     7    3   18 1
     8    4    9 ar
     9    4    5 ar
    10    5    6 ar
    11    5   19 1
    12    6    7 ar
    13    6   11 1
    14    7    8 ar
    15    7   20 1
    16    8    9 ar
    17    8   21 1
    18    9   10 ar
    19   10   22 1
    20   11   12 1
    21   11   23 1
    22   11   24 1
    23   12   13 1
    24   12   31 1
    25   13   14 1
    26   13   25 1
    27   13   26 1
    28   14   15 1
    29   14   27 1
    30   14   28 1
    31   15   29 1
    32   15   30 1
    33   15   32 1
