@<TRIPOS>MOLECULE
ZINC27328230
   72    75     0     0     0
SMALL
USER_CHARGES
(2S,3S,4R,5S,6S)-2-[8-[2-amino-6-[(4-bromo-2-thienyl)methoxy]purin-9-yl]octoxy]-6-(hydroxymethyl)tetrahydropyran-3,4,5-triol
@<TRIPOS>ATOM
      1 C1        -18.6524   -3.2709    8.9594 C.2       1 <0>        -0.1094
      2 C2        -20.0300   -3.1884    9.0442 C.2       1 <0>        -0.1282
      3 C3        -20.5863   -2.5607   10.1096 C.2       1 <0>        -0.1323
      4 S1        -19.1457   -2.0684   11.0420 S.3       1 <0>         0.1081
      5 C4        -17.8995   -2.7321    9.9495 C.2       1 <0>        -0.1549
      6 C5        -16.3993   -2.6967   10.0886 C.3       1 <0>         0.1520
      7 O1        -15.8906   -1.5170    9.4629 O.3       1 <0>        -0.2767
      8 C6        -14.5492   -1.3315    9.4987 C.ar      1 <0>         0.4751
      9 C7        -13.9665   -0.1993    8.9082 C.ar      1 <0>        -0.1208
     10 C8        -12.5694   -0.0601    8.9696 C.ar      1 <0>         0.3510
     11 N1        -11.8527   -0.9924    9.5884 N.ar      1 <0>        -0.5972
     12 C9        -12.4435   -2.0438   10.1320 C.ar      1 <0>         0.6292
     13 N2        -13.7590   -2.2162   10.0919 N.ar      1 <0>        -0.6259
     14 N3        -11.6627   -2.9976   10.7641 N.pl3     1 <0>        -0.8384
     15 N4        -12.2778    1.1173    8.3286 N.pl3     1 <0>        -0.4753
     16 C10       -13.4569    1.6506    7.8965 C.2       1 <0>         0.2425
     17 N5        -14.4458    0.8773    8.2372 N.2       1 <0>        -0.4443
     18 C11       -10.9444    1.6932    8.1376 C.3       1 <0>         0.1116
     19 C12       -10.2985    1.0822    6.8925 C.3       1 <0>        -0.1359
     20 C13        -8.9059    1.6836    6.6930 C.3       1 <0>        -0.1161
     21 C14        -8.2601    1.0725    5.4478 C.3       1 <0>        -0.1194
     22 C15        -6.8674    1.6739    5.2484 C.3       1 <0>        -0.1188
     23 C16        -6.2216    1.0629    4.0032 C.3       1 <0>        -0.1174
     24 C17        -4.8289    1.6643    3.8038 C.3       1 <0>        -0.1177
     25 C18        -4.1831    1.0533    2.5586 C.3       1 <0>         0.0590
     26 O2         -2.8824    1.6150    2.3723 O.3       1 <0>        -0.3531
     27 C19        -2.1890    1.1090    1.2298 C.3       1 <0>         0.2728
     28 H1         -2.2905    0.0137    1.2387 H         1 <0>         0.0591
     29 C20        -0.7333    1.5816    1.2655 C.3       1 <0>         0.1195
     30 H2         -0.6685    2.6754    1.3628 H         1 <0>         0.0850
     31 C21        -0.0127    1.0858    0.0080 C.3       1 <0>         0.0976
     32 H3          0.0786   -0.0104    0.0012 H         1 <0>         0.0783
     33 C22        -0.7571    1.5950   -1.2301 C.3       1 <0>         0.0619
     34 H4         -0.2650    1.2700   -2.1586 H         1 <0>         0.0723
     35 C23        -2.2138    1.1219   -1.1683 C.3       1 <0>         0.0683
     36 H5         -2.2776    0.0245   -1.1276 H         1 <0>         0.0748
     37 O3         -2.8159    1.5913    0.0397 O.3       1 <0>        -0.3818
     38 C24        -2.9814    1.6763   -2.3700 C.3       1 <0>         0.0938
     39 O4         -4.3069    1.1423   -2.3762 O.3       1 <0>        -0.5921
     40 O5         -0.7201    3.0233   -1.2558 O.3       1 <0>        -0.5718
     41 O6          1.3273    1.5821   -0.0021 O.3       1 <0>        -0.5838
     42 O7         -0.0869    1.0539    2.4256 O.3       1 <0>        -0.5858
     43 Br1       -21.1213   -3.9324    7.6910 Br        1 <0>        -0.0316
     44 H6        -18.1833   -3.7605    8.1187 H         1 <0>         0.1458
     45 H7        -21.6302   -2.4005   10.3357 H         1 <0>         0.1995
     46 H8        -16.1300   -2.6913   11.1551 H         1 <0>         0.0922
     47 H9        -15.9652   -3.5844    9.6053 H         1 <0>         0.0999
     48 H10       -12.1348   -3.8792   11.2223 H         1 <0>         0.4394
     49 H11       -10.5706   -2.8734   10.8078 H         1 <0>         0.4395
     50 H12       -13.5548    2.5781    7.3518 H         1 <0>         0.2223
     51 H13       -11.0304    2.7823    8.0091 H         1 <0>         0.1001
     52 H14       -10.3216    1.4759    9.0179 H         1 <0>         0.0956
     53 H15       -10.2126   -0.0069    7.0210 H         1 <0>         0.0714
     54 H16       -10.9213    1.2995    6.0122 H         1 <0>         0.0702
     55 H17        -8.9918    2.7727    6.5645 H         1 <0>         0.0670
     56 H18        -8.2831    1.4663    7.5733 H         1 <0>         0.0671
     57 H19        -8.1743   -0.0166    5.5763 H         1 <0>         0.0625
     58 H20        -8.8829    1.2899    4.5675 H         1 <0>         0.0630
     59 H21        -6.9533    2.7630    5.1200 H         1 <0>         0.0643
     60 H22        -6.2446    1.4565    6.1287 H         1 <0>         0.0641
     61 H23        -6.1358   -0.0262    4.1316 H         1 <0>         0.0636
     62 H24        -6.8444    1.2803    3.1229 H         1 <0>         0.0646
     63 H25        -4.9148    2.7534    3.6754 H         1 <0>         0.0719
     64 H26        -4.2061    1.4469    4.6841 H         1 <0>         0.0715
     65 H27        -4.0972   -0.0358    2.6870 H         1 <0>         0.0487
     66 H28        -4.8059    1.2707    1.6784 H         1 <0>         0.0602
     67 H29        -3.0283    2.7731   -2.3008 H         1 <0>         0.0574
     68 H30        -2.4661    1.3892   -3.2985 H         1 <0>         0.0610
     69 H31        -5.0116    1.4288   -3.1708 H         1 <0>         0.4146
     70 H32        -1.2058    3.5714   -2.0766 H         1 <0>         0.4054
     71 H33         2.0015    1.3285   -0.8335 H         1 <0>         0.4142
     72 H34         0.9700    1.2880    2.6207 H         1 <0>         0.4196
@<TRIPOS>BOND
     1    1    5 2
     2    1    2 1
     3    1   44 1
     4    2    3 2
     5    2   43 1
     6    3    4 1
     7    3   45 1
     8    4    5 1
     9    5    6 1
    10    6    7 1
    11    6   46 1
    12    6   47 1
    13    7    8 1
    14    8   13 ar
    15    8    9 ar
    16    9   17 1
    17    9   10 ar
    18   10   11 ar
    19   10   15 1
    20   11   12 ar
    21   12   13 ar
    22   12   14 1
    23   14   48 1
    24   14   49 1
    25   15   16 1
    26   15   18 1
    27   16   17 2
    28   16   50 1
    29   18   19 1
    30   18   51 1
    31   18   52 1
    32   19   20 1
    33   19   53 1
    34   19   54 1
    35   20   21 1
    36   20   55 1
    37   20   56 1
    38   21   22 1
    39   21   57 1
    40   21   58 1
    41   22   23 1
    42   22   59 1
    43   22   60 1
    44   23   24 1
    45   23   61 1
    46   23   62 1
    47   24   25 1
    48   24   63 1
    49   24   64 1
    50   25   26 1
    51   25   65 1
    52   25   66 1
    53   26   27 1
    54   27   28 1
    55   27   37 1
    56   27   29 1
    57   29   30 1
    58   29   31 1
    59   29   42 1
    60   31   32 1
    61   31   33 1
    62   31   41 1
    63   33   34 1
    64   33   35 1
    65   33   40 1
    66   35   36 1
    67   35   37 1
    68   35   38 1
    69   38   39 1
    70   38   67 1
    71   38   68 1
    72   39   69 1
    73   40   70 1
    74   41   71 1
    75   42   72 1
@<TRIPOS>MOLECULE
ZINC27328237
   72    75     0     0     0
SMALL
USER_CHARGES
(2S,3R,4R,5S,6S)-2-[8-[2-amino-6-[(4-bromo-2-thienyl)methoxy]purin-9-yl]octoxy]-6-(hydroxymethyl)tetrahydropyran-3,4,5-triol
@<TRIPOS>ATOM
      1 C1          0.2996   -5.8478   -1.0873 C.2       1 <0>        -0.1094
      2 C2         -0.5857   -6.8817   -0.8442 C.2       1 <0>        -0.1282
      3 C3         -0.8626   -7.2217    0.4388 C.2       1 <0>        -0.1322
      4 S1          0.1492   -6.0694    1.3529 S.3       1 <0>         0.1081
      5 C4          0.8729   -5.2125   -0.0360 C.2       1 <0>        -0.1550
      6 C5          1.8601   -4.0739   -0.0388 C.3       1 <0>         0.1520
      7 O1          1.1543   -2.8315   -0.0250 O.3       1 <0>        -0.2767
      8 C6          1.9000   -1.7005   -0.0256 C.ar      1 <0>         0.4751
      9 C7          1.2868   -0.4380   -0.0126 C.ar      1 <0>        -0.1207
     10 C8          2.1085    0.7020   -0.0143 C.ar      1 <0>         0.3508
     11 N1          3.4284    0.5486   -0.0285 N.ar      1 <0>        -0.5972
     12 C9          3.9643   -0.6609   -0.0401 C.ar      1 <0>         0.6291
     13 N2          3.2247   -1.7631   -0.0390 N.ar      1 <0>        -0.6259
     14 N3          5.3442   -0.7811   -0.0543 N.pl3     1 <0>        -0.8384
     15 N4          1.2602    1.7801   -0.0004 N.pl3     1 <0>        -0.4753
     16 C10        -0.0156    1.2966    0.0092 C.2       1 <0>         0.2426
     17 N5          0.0021   -0.0041    0.0020 N.2       1 <0>        -0.4443
     18 C11         1.6522    3.1917    0.0034 C.3       1 <0>         0.1116
     19 C12         1.8955    3.6573   -1.4335 C.3       1 <0>        -0.1358
     20 C13         2.3050    5.1315   -1.4295 C.3       1 <0>        -0.1162
     21 C14         2.5483    5.5972   -2.8665 C.3       1 <0>        -0.1194
     22 C15         2.9577    7.0713   -2.8625 C.3       1 <0>        -0.1188
     23 C16         3.2010    7.5370   -4.2995 C.3       1 <0>        -0.1174
     24 C17         3.6105    9.0112   -4.2955 C.3       1 <0>        -0.1173
     25 C18         3.8538    9.4768   -5.7324 C.3       1 <0>         0.0574
     26 O2          4.2362   10.8537   -5.7287 O.3       1 <0>        -0.3513
     27 C19         4.4884   11.3904   -7.0288 C.3       1 <0>         0.2691
     28 H1          5.1239   10.6713   -7.5664 H         1 <0>         0.0636
     29 C20         5.1240   12.7767   -6.8944 C.3       1 <0>         0.1175
     30 H2          6.0659   12.7345   -6.3278 H         1 <0>         0.0700
     31 C21         5.3358   13.3702   -8.2906 C.3       1 <0>         0.0930
     32 H3          6.0871   12.8045   -8.8611 H         1 <0>         0.0733
     33 C22         3.9915   13.4156   -9.0234 C.3       1 <0>         0.0681
     34 H4          4.0958   13.8454  -10.0306 H         1 <0>         0.0635
     35 C23         3.3997   12.0047   -9.0756 C.3       1 <0>         0.0712
     36 H5          4.0752   11.3065   -9.5916 H         1 <0>         0.0684
     37 O3          3.2574   11.4998   -7.7463 O.3       1 <0>        -0.3779
     38 C24         2.0287   12.0512   -9.7532 C.3       1 <0>         0.0944
     39 O4          1.5279   10.7216   -9.9067 O.3       1 <0>        -0.5929
     40 O5          3.0962   14.2835   -8.3253 O.3       1 <0>        -0.5539
     41 O6          5.8628   14.6932   -8.1726 O.3       1 <0>        -0.5836
     42 O7          4.2593   13.6272   -6.1388 O.3       1 <0>        -0.5502
     43 Br1        -1.4038   -7.8023   -2.2792 Br        1 <0>        -0.0316
     44 H6          0.5335   -5.5531   -2.0997 H         1 <0>         0.1458
     45 H7         -1.5236   -7.9904    0.8111 H         1 <0>         0.1995
     46 H8          2.5005   -4.1417    0.8530 H         1 <0>         0.0922
     47 H9          2.4836   -4.1314   -0.9432 H         1 <0>         0.0998
     48 H10         5.8094   -1.7778   -0.0641 H         1 <0>         0.4394
     49 H11         5.9748    0.1202   -0.0558 H         1 <0>         0.4395
     50 H12        -0.9084    1.9042    0.0169 H         1 <0>         0.2224
     51 H13         0.8491    3.7940    0.4530 H         1 <0>         0.1001
     52 H14         2.5747    3.3145    0.5898 H         1 <0>         0.0955
     53 H15         2.6986    3.0549   -1.8831 H         1 <0>         0.0714
     54 H16         0.9730    3.5346   -2.0199 H         1 <0>         0.0703
     55 H17         1.5019    5.7339   -0.9799 H         1 <0>         0.0672
     56 H18         3.2276    5.2542   -0.8431 H         1 <0>         0.0670
     57 H19         3.3514    4.9948   -3.3161 H         1 <0>         0.0623
     58 H20         1.6258    5.4745   -3.4529 H         1 <0>         0.0631
     59 H21         2.1546    7.6737   -2.4129 H         1 <0>         0.0646
     60 H22         3.8802    7.1941   -2.2761 H         1 <0>         0.0638
     61 H23         4.0041    6.9346   -4.7491 H         1 <0>         0.0630
     62 H24         2.2785    7.4143   -4.8859 H         1 <0>         0.0648
     63 H25         2.8074    9.6136   -3.8459 H         1 <0>         0.0730
     64 H26         4.5330    9.1339   -3.7091 H         1 <0>         0.0701
     65 H27         4.6569    8.8744   -6.1820 H         1 <0>         0.0470
     66 H28         2.9313    9.3540   -6.3188 H         1 <0>         0.0606
     67 H29         1.3330   12.6358   -9.1333 H         1 <0>         0.0577
     68 H30         2.1242   12.5235  -10.7420 H         1 <0>         0.0584
     69 H31         0.5478   10.5539  -10.3771 H         1 <0>         0.4133
     70 H32         2.0762   14.4424   -8.7051 H         1 <0>         0.3968
     71 H33         6.0807   15.2811   -9.0764 H         1 <0>         0.4140
     72 H34         4.5505   14.6688   -5.9378 H         1 <0>         0.4082
@<TRIPOS>BOND
     1    1    5 2
     2    1    2 1
     3    1   44 1
     4    2    3 2
     5    2   43 1
     6    3    4 1
     7    3   45 1
     8    4    5 1
     9    5    6 1
    10    6    7 1
    11    6   46 1
    12    6   47 1
    13    7    8 1
    14    8   13 ar
    15    8    9 ar
    16    9   17 1
    17    9   10 ar
    18   10   11 ar
    19   10   15 1
    20   11   12 ar
    21   12   13 ar
    22   12   14 1
    23   14   48 1
    24   14   49 1
    25   15   16 1
    26   15   18 1
    27   16   17 2
    28   16   50 1
    29   18   19 1
    30   18   51 1
    31   18   52 1
    32   19   20 1
    33   19   53 1
    34   19   54 1
    35   20   21 1
    36   20   55 1
    37   20   56 1
    38   21   22 1
    39   21   57 1
    40   21   58 1
    41   22   23 1
    42   22   59 1
    43   22   60 1
    44   23   24 1
    45   23   61 1
    46   23   62 1
    47   24   25 1
    48   24   63 1
    49   24   64 1
    50   25   26 1
    51   25   65 1
    52   25   66 1
    53   26   27 1
    54   27   28 1
    55   27   37 1
    56   27   29 1
    57   29   30 1
    58   29   31 1
    59   29   42 1
    60   31   32 1
    61   31   33 1
    62   31   41 1
    63   33   34 1
    64   33   35 1
    65   33   40 1
    66   35   36 1
    67   35   37 1
    68   35   38 1
    69   38   39 1
    70   38   67 1
    71   38   68 1
    72   39   69 1
    73   40   70 1
    74   41   71 1
    75   42   72 1
@<TRIPOS>MOLECULE
ZINC13470184
   26    28     0     0     0
SMALL
USER_CHARGES
6-[(4-bromo-2-thienyl)methoxy]-9H-purin-2-amine
@<TRIPOS>ATOM
      1 C1         -5.4344   -3.2738    1.0899 C.2       1 <0>        -0.1080
      2 C2         -6.5315   -4.0821    0.8560 C.2       1 <0>        -0.1289
      3 C3         -6.8966   -4.3400   -0.4241 C.2       1 <0>        -0.1313
      4 S1         -5.6775   -3.4200   -1.3485 S.3       1 <0>         0.1091
      5 C4         -4.7637   -2.7539    0.0329 C.2       1 <0>        -0.1573
      6 C5         -3.5559   -1.8527    0.0256 C.3       1 <0>         0.1538
      7 O1         -2.3685   -2.6476    0.0105 O.3       1 <0>        -0.2751
      8 C6         -1.1860   -1.9868    0.0023 C.ar      1 <0>         0.4764
      9 C7          0.0282   -2.6908   -0.0127 C.ar      1 <0>        -0.1149
     10 C8          1.2253   -1.9548   -0.0201 C.ar      1 <0>         0.3480
     11 N1          2.2383   -2.8799   -0.0348 N.pl3     1 <0>        -0.5852
     12 H1          3.2188   -2.6836   -0.0432 H         1 <0>         0.4393
     13 C9          1.6626   -4.1168   -0.0359 C.2       1 <0>         0.2494
     14 N2          0.3668   -4.0039   -0.0229 N.2       1 <0>        -0.4451
     15 N3          1.1689   -0.6272   -0.0125 N.ar      1 <0>        -0.5948
     16 C10         0.0021   -0.0041    0.0020 C.ar      1 <0>         0.6272
     17 N4         -1.1513   -0.6610    0.0149 N.ar      1 <0>        -0.6212
     18 N5         -0.0167    1.3810    0.0096 N.pl3     1 <0>        -0.8128
     19 Br1        -7.5029   -4.8233    2.2991 Br        1 <0>        -0.0310
     20 H2         -5.1187   -3.0569    2.0998 H         1 <0>         0.1462
     21 H3         -7.7133   -4.9448   -0.7897 H         1 <0>         0.1998
     22 H4         -3.5634   -1.2278    0.9187 H         1 <0>         0.0997
     23 H5         -3.5804   -1.2193   -0.8612 H         1 <0>         0.0921
     24 H6          2.2031   -5.0518   -0.0456 H         1 <0>         0.2285
     25 H7          0.8166    1.8774    0.0043 H         1 <0>         0.4180
     26 H8         -0.8632    1.8545    0.0162 H         1 <0>         0.4181
@<TRIPOS>BOND
     1    1    5 2
     2    1    2 1
     3    1   20 1
     4    2    3 2
     5    2   19 1
     6    3    4 1
     7    3   21 1
     8    4    5 1
     9    5    6 1
    10    6    7 1
    11    6   22 1
    12    6   23 1
    13    7    8 1
    14    8   17 ar
    15    8    9 ar
    16    9   14 1
    17    9   10 ar
    18   10   11 1
    19   10   15 ar
    20   11   12 1
    21   11   13 1
    22   13   14 2
    23   13   24 1
    24   15   16 ar
    25   16   17 ar
    26   16   18 1
    27   18   25 1
    28   18   26 1
@<TRIPOS>MOLECULE
ZINC05425464
   29    31     0     0     0
SMALL
USER_CHARGES

@<TRIPOS>ATOM
      1 C1         -0.0167    1.3781    0.0096 C.ar      1 <0>        -0.1074
      2 C2          1.1709    2.0855    0.0021 C.ar      1 <0>        -0.1232
      3 C3          2.3773    1.4107   -0.0130 C.ar      1 <0>        -0.0929
      4 C4          2.3960    0.0285   -0.0201 C.ar      1 <0>        -0.1017
      5 C5          1.2084   -0.6789   -0.0117 C.ar      1 <0>        -0.0929
      6 C6          0.0021   -0.0041    0.0020 C.ar      1 <0>        -0.1232
      7 C7          3.7112   -0.7071   -0.0376 C.3       1 <0>         0.1084
      8 O1          4.1410   -0.9464    1.3041 O.3       1 <0>        -0.2741
      9 C8          5.3148   -1.6028    1.4660 C.ar      1 <0>         0.4756
     10 C9          5.8101   -1.8787    2.7496 C.ar      1 <0>        -0.1165
     11 C10         7.0332   -2.5627    2.8595 C.ar      1 <0>         0.3468
     12 N1          7.2729   -2.6957    4.2037 N.pl3     1 <0>        -0.5823
     13 C11         6.2315   -2.1126    4.8646 C.2       1 <0>         0.2466
     14 N2          5.3749   -1.6342    4.0105 N.2       1 <0>        -0.4437
     15 H1          8.0419   -3.1254    4.6098 H         1 <0>         0.4324
     16 N3          7.6749   -2.9226    1.7533 N.ar      1 <0>        -0.5969
     17 C12         7.1712   -2.6419    0.5624 C.ar      1 <0>         0.6268
     18 N4          6.0175   -2.0031    0.4144 N.ar      1 <0>        -0.6209
     19 N5          7.8691   -3.0332   -0.5684 N.pl3     1 <0>        -0.8133
     20 H2         -0.9591    1.9053    0.0259 H         1 <0>         0.1250
     21 H3          1.1563    3.1654    0.0076 H         1 <0>         0.1261
     22 H4          3.3051    1.9634   -0.0196 H         1 <0>         0.1243
     23 H5          1.2231   -1.7588   -0.0176 H         1 <0>         0.1243
     24 H6         -0.9258   -0.5567    0.0082 H         1 <0>         0.1261
     25 H7          3.5884   -1.6586   -0.5549 H         1 <0>         0.0815
     26 H8          4.4573   -0.1052   -0.5563 H         1 <0>         0.0814
     27 H9          6.1329   -2.0562    5.9387 H         1 <0>         0.2285
     28 H10         7.5148   -2.8358   -1.4495 H         1 <0>         0.4179
     29 H11         8.7122   -3.5047   -0.4790 H         1 <0>         0.4176
@<TRIPOS>BOND
     1    1    6 ar
     2    1    2 ar
     3    1   20 1
     4    2    3 ar
     5    2   21 1
     6    3    4 ar
     7    3   22 1
     8    4    5 ar
     9    4    7 1
    10    5    6 ar
    11    5   23 1
    12    6   24 1
    13    7   25 1
    14    7   26 1
    15    7    8 1
    16    8    9 1
    17    9   10 ar
    18    9   18 ar
    19   10   14 1
    20   10   11 ar
    21   11   12 1
    22   11   16 ar
    23   12   15 1
    24   12   13 1
    25   13   27 1
    26   13   14 2
    27   16   17 ar
    28   17   18 ar
    29   17   19 1
    30   19   29 1
    31   19   28 1
@<TRIPOS>MOLECULE
ZINC05425464
   30    32     0     0     0
SMALL
USER_CHARGES

@<TRIPOS>ATOM
      1 C1         -0.0167    1.3781    0.0096 C.ar      1 <0>        -0.0866
      2 C2          1.1709    2.0855    0.0021 C.ar      1 <0>        -0.1188
      3 C3          2.3773    1.4107   -0.0130 C.ar      1 <0>        -0.0852
      4 C4          2.3960    0.0285   -0.0201 C.ar      1 <0>        -0.1249
      5 C5          1.2084   -0.6789   -0.0117 C.ar      1 <0>        -0.0852
      6 C6          0.0021   -0.0041    0.0020 C.ar      1 <0>        -0.1187
      7 C7          3.7112   -0.7071   -0.0376 C.3       1 <0>         0.0701
      8 O1          4.1410   -0.9464    1.3041 O.3       1 <0>        -0.2364
      9 C8          5.3148   -1.6028    1.4660 C.ar      1 <0>         0.5080
     10 C9          5.8101   -1.8787    2.7496 C.ar      1 <0>        -0.0737
     11 C10         7.0332   -2.5627    2.8595 C.ar      1 <0>         0.3826
     12 N1          7.2729   -2.6957    4.2037 N.pl3     1 <0>        -0.5585
     13 C11         6.2315   -2.1126    4.8646 C.2       1 <0>         0.3097
     14 N2          5.3749   -1.6342    4.0105 N.2       1 <0>        -0.4316
     15 H1          8.0419   -3.1254    4.6098 H         1 <0>         0.4527
     16 N3          7.6749   -2.9226    1.7533 N.ar      1 <0>        -0.5166
     17 C12         7.1712   -2.6419    0.5624 C.ar      1 <0>         0.6505
     18 N4          6.0175   -2.0031    0.4144 N.ar      1 <0>        -0.5810
     19 N5          7.8691   -3.0332   -0.5684 N.pl3     1 <0>        -0.7895
     20 H2         -0.9591    1.9053    0.0259 H         1 <0>         0.1343
     21 H3          1.1563    3.1654    0.0076 H         1 <0>         0.1345
     22 H4          3.3051    1.9634   -0.0196 H         1 <0>         0.1274
     23 H5          1.2231   -1.7588   -0.0176 H         1 <0>         0.1274
     24 H6         -0.9258   -0.5567    0.0082 H         1 <0>         0.1345
     25 H7          3.5884   -1.6586   -0.5549 H         1 <0>         0.0983
     26 H8          4.4573   -0.1052   -0.5563 H         1 <0>         0.0984
     27 H9          6.1329   -2.0562    5.9387 H         1 <0>         0.2544
     28 H10         7.5148   -2.8358   -1.4495 H         1 <0>         0.4306
     29 H11         8.7122   -3.5047   -0.4790 H         1 <0>         0.4482
     30 H12         5.6841   -1.8221   -0.4783 H         1 <0>         0.4452
@<TRIPOS>BOND
     1    1    6 ar
     2    1    2 ar
     3    1   20 1
     4    2    3 ar
     5    2   21 1
     6    3    4 ar
     7    3   22 1
     8    4    5 ar
     9    4    7 1
    10    5    6 ar
    11    5   23 1
    12    6   24 1
    13    7   25 1
    14    7   26 1
    15    7    8 1
    16    8    9 1
    17    9   10 ar
    18    9   18 ar
    19   10   14 1
    20   10   11 ar
    21   11   12 1
    22   11   16 ar
    23   12   15 1
    24   12   13 1
    25   13   27 1
    26   13   14 2
    27   16   17 ar
    28   17   18 ar
    29   17   19 1
    30   18   30 1
    31   19   29 1
    32   19   28 1
@<TRIPOS>MOLECULE
ZINC06096446
   29    30     0     0     0
SMALL
USER_CHARGES
6-benzyloxy-5-nitroso-pyrimidine-2,4-diamine
@<TRIPOS>ATOM
      1 C1         -0.2130    1.2564   -0.5614 C.ar      1 <0>        -0.1047
      2 C2          0.9571    1.8837   -0.1764 C.ar      1 <0>        -0.1225
      3 C3          2.1348    1.1637   -0.1011 C.ar      1 <0>        -0.0920
      4 C4          2.1421   -0.1837   -0.4098 C.ar      1 <0>        -0.1056
      5 C5          0.9718   -0.8111   -0.7943 C.ar      1 <0>        -0.0921
      6 C6         -0.2058   -0.0910   -0.8701 C.ar      1 <0>        -0.1223
      7 C7          3.4259   -0.9686   -0.3276 C.3       1 <0>         0.1049
      8 O1          4.0955   -0.9199   -1.5891 O.3       1 <0>        -0.2656
      9 C8          5.2707   -1.5782   -1.6852 C.ar      1 <0>         0.5215
     10 C9          6.0313   -1.5913   -2.9447 C.ar      1 <0>        -0.3082
     11 C10         7.3031   -2.3346   -2.9446 C.ar      1 <0>         0.5475
     12 N1          7.6672   -2.9426   -1.8236 N.ar      1 <0>        -0.6677
     13 C11         6.9227   -2.8872   -0.7297 C.ar      1 <0>         0.6845
     14 N2          5.7701   -2.2355   -0.6513 N.ar      1 <0>        -0.6651
     15 N3          7.3707   -3.5445    0.3907 N.pl3     1 <0>        -0.8158
     16 N4          8.0839   -2.4005   -4.0708 N.pl3     1 <0>        -0.7983
     17 N5          5.5958   -0.9620   -4.0244 N.2       1 <0>        -0.2456
     18 O2          6.0055   -1.2858   -5.1248 O.2       1 <0>        -0.0370
     19 H1         -1.1321    1.8201   -0.6253 H         1 <0>         0.1267
     20 H2          0.9514    2.9364    0.0648 H         1 <0>         0.1274
     21 H3          3.0491    1.6539    0.1989 H         1 <0>         0.1242
     22 H4          0.9775   -1.8637   -1.0358 H         1 <0>         0.1243
     23 H5         -1.1200   -0.5810   -1.1708 H         1 <0>         0.1276
     24 H6          4.0729   -0.5330    0.4481 H         1 <0>         0.0861
     25 H7          3.2005   -2.0145   -0.0722 H         1 <0>         0.0859
     26 H8          6.7778   -3.5197    1.3169 H         1 <0>         0.4447
     27 H9          8.3223   -4.0955    0.3615 H         1 <0>         0.4464
     28 H10         9.0306   -2.9604   -4.0517 H         1 <0>         0.4346
     29 H11         7.7632   -1.8935   -4.9928 H         1 <0>         0.4564
@<TRIPOS>BOND
     1    1    6 ar
     2    1    2 ar
     3    1   19 1
     4    2    3 ar
     5    2   20 1
     6    3    4 ar
     7    3   21 1
     8    4    5 ar
     9    4    7 1
    10    5    6 ar
    11    5   22 1
    12    6   23 1
    13    7    8 1
    14    7   24 1
    15    7   25 1
    16    8    9 1
    17    9   14 ar
    18    9   10 ar
    19   10   11 ar
    20   10   17 1
    21   11   12 ar
    22   11   16 1
    23   12   13 ar
    24   13   14 ar
    25   13   15 1
    26   15   26 1
    27   15   27 1
    28   16   28 1
    29   16   29 1
    30   17   18 2
