@<TRIPOS>MOLECULE
ZINC27633025
   19    19     0     0     0
SMALL
USER_CHARGES
(E)-3-(2-fluoro-4-hydroxy-phenyl)prop-2-enoic acid
@<TRIPOS>ATOM
      1 C1          2.4049    0.0299   -0.0207 C.ar      1 <0>        -0.1676
      2 C2          1.2272   -0.6818   -0.0133 C.ar      1 <0>        -0.0497
      3 C3          0.0021   -0.0041    0.0020 C.ar      1 <0>        -0.1075
      4 C4         -0.0169    1.3986    0.0097 C.ar      1 <0>         0.1407
      5 C5          1.1704    2.1007    0.0022 C.ar      1 <0>        -0.2512
      6 C6          2.3817    1.4206   -0.0131 C.ar      1 <0>         0.1712
      7 O1          3.5473    2.1160   -0.0204 O.3       1 <0>        -0.5059
      8 F1         -1.1949    2.0601    0.0189 F         1 <0>        -0.1317
      9 C7         -1.2576   -0.7584    0.0095 C.2       1 <0>        -0.1140
     10 C8         -1.2360   -2.1101    0.0020 C.2       1 <0>        -0.1431
     11 C9         -2.4515   -2.8379    0.0093 C.2       1 <0>         0.4696
     12 O2         -3.5146   -2.2465    0.0222 O.co2     1 <0>        -0.6362
     13 O3         -2.4300   -4.1872    0.0018 O.co2     1 <0>        -0.7652
     14 H1          3.3499   -0.4928   -0.0322 H         1 <0>         0.1340
     15 H2          1.2478   -1.7616   -0.0190 H         1 <0>         0.1454
     16 H3          1.1584    3.1806    0.0081 H         1 <0>         0.1364
     17 H4          3.5316    3.2159   -0.0144 H         1 <0>         0.4315
     18 H5         -2.2189   -0.2237    0.0212 H         1 <0>         0.1343
     19 H6         -0.2747   -2.6448   -0.0098 H         1 <0>         0.1090
@<TRIPOS>BOND
     1    1    6 ar
     2    1    2 ar
     3    1   14 1
     4    2    3 ar
     5    2   15 1
     6    3    4 ar
     7    3    9 1
     8    4    5 ar
     9    4    8 1
    10    5    6 ar
    11    5   16 1
    12    6    7 1
    13    7   17 1
    14    9   10 2
    15    9   18 1
    16   10   11 1
    17   10   19 1
    18   11   12 2
    19   11   13 1
@<TRIPOS>MOLECULE
ZINC05933945
   27    28     0     0     0
SMALL
USER_CHARGES

@<TRIPOS>ATOM
      1 C1          0.3007    1.4032    0.6770 C.ar      1 <0>        -0.1063
      2 C2          1.1601    2.0828   -0.1669 C.ar      1 <0>        -0.1005
      3 C3          2.0451    1.3837   -0.9667 C.ar      1 <0>        -0.1075
      4 C4          2.0737    0.0024   -0.9246 C.ar      1 <0>        -0.0441
      5 C5          1.2115   -0.6829   -0.0771 C.ar      1 <0>         0.1352
      6 C6          0.3239    0.0231    0.7241 C.ar      1 <0>        -0.0661
      7 N1          1.2375   -2.0813   -0.0316 N.pl3     1 <0>        -0.6284
      8 C7          0.0864   -2.7734    0.0800 C.2       1 <0>         0.5173
      9 S1         -1.4123   -1.9459    0.0911 S.2       1 <0>        -0.4749
     10 N2          0.1151   -4.1169    0.1828 N.pl3     1 <0>        -0.6109
     11 C8         -1.0754   -4.8405    0.1909 C.ar      1 <0>         0.3327
     12 C9         -1.0368   -6.2306    0.1829 C.ar      1 <0>        -0.1943
     13 C10        -2.2264   -6.9368    0.1916 C.ar      1 <0>        -0.0539
     14 C11        -3.4189   -6.2257    0.2080 C.ar      1 <0>        -0.1893
     15 C12        -3.3829   -4.8455    0.2152 C.ar      1 <0>         0.1197
     16 N3         -2.2329   -4.1987    0.2117 N.ar      1 <0>        -0.4150
     17 Cl1         3.1846   -0.8751   -1.9293 Cl        1 <0>        -0.0678
     18 H1         -0.3864    1.9527    1.3034 H         1 <0>         0.1362
     19 H2          1.1396    3.1621   -0.2016 H         1 <0>         0.1355
     20 H3          2.7144    1.9174   -1.6252 H         1 <0>         0.1383
     21 H4         -0.3474   -0.5066    1.3838 H         1 <0>         0.1581
     22 H5          2.0839   -2.5525   -0.0803 H         1 <0>         0.4068
     23 H6          0.9647   -4.5800    0.2511 H         1 <0>         0.4108
     24 H7         -0.0910   -6.7519    0.1697 H         1 <0>         0.1326
     25 H8         -2.2276   -8.0168    0.1854 H         1 <0>         0.1391
     26 H9         -4.3648   -6.7468    0.2148 H         1 <0>         0.1356
     27 H10        -4.3079   -4.2882    0.2276 H         1 <0>         0.1611
@<TRIPOS>BOND
     1    1    6 ar
     2    1    2 ar
     3    1   18 1
     4    2    3 ar
     5    2   19 1
     6    3    4 ar
     7    3   20 1
     8    4    5 ar
     9    4   17 1
    10    5    6 ar
    11    5    7 1
    12    6   21 1
    13    7    8 1
    14    7   22 1
    15    8    9 2
    16    8   10 1
    17   10   11 1
    18   10   23 1
    19   11   16 ar
    20   11   12 ar
    21   12   13 ar
    22   12   24 1
    23   13   14 ar
    24   13   25 1
    25   14   15 ar
    26   14   26 1
    27   15   16 ar
    28   15   27 1
@<TRIPOS>MOLECULE
ZINC01059557
   30    32     0     0     0
SMALL
USER_CHARGES
(6-phenylpyridazin-3-yl) thiophene-2-carboxylate
@<TRIPOS>ATOM
      1 C1         -4.9164   -0.3219    0.0220 C.ar      1 <0>        -0.1024
      2 C2         -4.9105    1.0613    0.0301 C.ar      1 <0>        -0.1226
      3 C3         -3.7139    1.7489    0.0288 C.ar      1 <0>        -0.0764
      4 C4         -2.5099    1.0469    0.0194 C.ar      1 <0>        -0.0527
      5 C5         -2.5219   -0.3466    0.0060 C.ar      1 <0>        -0.0975
      6 C6         -3.7245   -1.0238    0.0132 C.ar      1 <0>        -0.1223
      7 C7         -1.2206    1.7803    0.0174 C.ar      1 <0>         0.0971
      8 C8         -0.0126    1.0758    0.0080 C.ar      1 <0>        -0.0857
      9 C9          1.1637    1.8053    0.0006 C.ar      1 <0>        -0.1083
     10 C10         1.0717    3.1959    0.0090 C.ar      1 <0>         0.2351
     11 N1         -0.1163    3.7794    0.0236 N.ar      1 <0>        -0.2305
     12 N2         -1.2092    3.1065    0.0304 N.ar      1 <0>        -0.2028
     13 O1          2.1993    3.9512    0.0019 O.3       1 <0>        -0.2705
     14 C11         2.0627    5.2936    0.0105 C.2       1 <0>         0.5421
     15 O2          0.9532    5.7919    0.0242 O.2       1 <0>        -0.4202
     16 C12         3.2496    6.1501    0.0033 C.2       1 <0>        -0.2402
     17 C13         3.3286    7.5351    0.0099 C.2       1 <0>        -0.0495
     18 C14         4.5838    8.0891    0.0012 C.2       1 <0>        -0.1836
     19 C15         5.6700    7.2720   -0.0133 C.2       1 <0>        -0.1742
     20 S1          4.9720    5.6851   -0.0085 S.3       1 <0>         0.1878
     21 H1         -5.8552   -0.8559    0.0231 H         1 <0>         0.1268
     22 H2         -5.8441    1.6043    0.0370 H         1 <0>         0.1294
     23 H3         -3.7104    2.8288    0.0354 H         1 <0>         0.1375
     24 H4         -1.5920   -0.8956   -0.0055 H         1 <0>         0.1275
     25 H5         -3.7350   -2.1038    0.0073 H         1 <0>         0.1291
     26 H6          0.0021   -0.0041    0.0020 H         1 <0>         0.1645
     27 H7          2.1242    1.3116   -0.0109 H         1 <0>         0.1659
     28 H8          2.4410    8.1503    0.0218 H         1 <0>         0.1533
     29 H9          4.7074    9.1620    0.0061 H         1 <0>         0.1472
     30 H10         6.7148    7.5452   -0.0211 H         1 <0>         0.1961
@<TRIPOS>BOND
     1    1    6 ar
     2    1    2 ar
     3    1   21 1
     4    2    3 ar
     5    2   22 1
     6    3    4 ar
     7    3   23 1
     8    4    5 ar
     9    4    7 1
    10    5    6 ar
    11    5   24 1
    12    6   25 1
    13    7   12 ar
    14    7    8 ar
    15    8    9 ar
    16    8   26 1
    17    9   10 ar
    18    9   27 1
    19   10   11 ar
    20   10   13 1
    21   11   12 ar
    22   13   14 1
    23   14   15 2
    24   14   16 1
    25   16   20 1
    26   16   17 2
    27   17   18 1
    28   17   28 1
    29   18   19 2
    30   18   29 1
    31   19   20 1
    32   19   30 1
@<TRIPOS>MOLECULE
ZINC00436272
   23    24     0     0     0
SMALL
USER_CHARGES
1-phenyl-3-(1,3,4-thiadiazol-2-yl)thiourea
@<TRIPOS>ATOM
      1 C1         -5.9726    2.9535    0.3604 C.ar      1 <0>        -0.1067
      2 C2         -5.1774    3.1476   -0.7541 C.ar      1 <0>        -0.1124
      3 C3         -3.9742    2.4797   -0.8706 C.ar      1 <0>        -0.0696
      4 C4         -3.5631    1.6124    0.1333 C.ar      1 <0>         0.1110
      5 C5         -4.3666    1.4157    1.2489 C.ar      1 <0>        -0.1170
      6 C6         -5.5660    2.0910    1.3619 C.ar      1 <0>        -0.1169
      7 N1         -2.3452    0.9341    0.0182 N.pl3     1 <0>        -0.6193
      8 C7         -1.2394    1.5966   -0.3752 C.2       1 <0>         0.5136
      9 S1         -1.3462    3.2413   -0.8382 S.2       1 <0>        -0.4628
     10 N2         -0.0496    0.9642   -0.4042 N.pl3     1 <0>        -0.5715
     11 C8          1.0899    1.6459   -0.8155 C.2       1 <0>         0.2773
     12 N3          1.2359    2.9030   -1.2111 N.2       1 <0>        -0.2213
     13 N4          2.3574    3.3662   -1.5550 N.2       1 <0>        -0.2654
     14 C9          3.4530    2.6334   -1.5435 C.2       1 <0>         0.0597
     15 S2          2.7831    1.0805   -0.9556 S.3       1 <0>        -0.0269
     16 H1         -6.9131    3.4769    0.4491 H         1 <0>         0.1266
     17 H2         -5.4975    3.8224   -1.5342 H         1 <0>         0.1305
     18 H3         -3.3537    2.6314   -1.7414 H         1 <0>         0.1463
     19 H4         -4.0517    0.7388    2.0293 H         1 <0>         0.1244
     20 H5         -6.1892    1.9418    2.2313 H         1 <0>         0.1288
     21 H6         -2.2965   -0.0131    0.2217 H         1 <0>         0.4082
     22 H7          0.0109    0.0324   -0.1419 H         1 <0>         0.4201
     23 H8          4.4665    2.8961   -1.8084 H         1 <0>         0.2433
@<TRIPOS>BOND
     1    1    6 ar
     2    1    2 ar
     3    1   16 1
     4    2    3 ar
     5    2   17 1
     6    3    4 ar
     7    3   18 1
     8    4    5 ar
     9    4    7 1
    10    5    6 ar
    11    5   19 1
    12    6   20 1
    13    7    8 1
    14    7   21 1
    15    8    9 2
    16    8   10 1
    17   10   11 1
    18   10   22 1
    19   11   15 1
    20   11   12 2
    21   12   13 1
    22   13   14 2
    23   14   15 1
    24   14   23 1
@<TRIPOS>MOLECULE
ZINC02848864
   30    31     0     0     0
SMALL
USER_CHARGES

@<TRIPOS>ATOM
      1 C1         -0.0187    1.5258    0.0104 C.3       1 <0>        -0.1525
      2 C2          0.0021   -0.0041    0.0020 C.3       1 <0>        -0.1221
      3 C3          0.7182   -0.4975   -1.2568 C.3       1 <0>        -0.1188
      4 C4          0.7390   -2.0273   -1.2652 C.3       1 <0>         0.0654
      5 O1          1.4078   -2.4882   -2.4409 O.3       1 <0>        -0.3287
      6 C5          1.5127   -3.8211   -2.6019 C.2       1 <0>         0.4262
      7 O2          1.0489   -4.5722   -1.7669 O.2       1 <0>        -0.4452
      8 S1          2.3223   -4.4758   -4.0233 S.3       1 <0>         0.2371
      9 C6          2.2184   -6.2214   -3.8069 C.2       1 <0>         0.1805
     10 N1          1.6458   -6.8179   -2.7937 N.2       1 <0>        -0.4255
     11 C7          1.7556   -8.1640   -2.9607 C.ar      1 <0>         0.0204
     12 C8          1.3391   -9.2654   -2.2112 C.ar      1 <0>        -0.0529
     13 C9          1.6095  -10.5391   -2.6606 C.ar      1 <0>        -0.1177
     14 C10         2.2922  -10.7326   -3.8519 C.ar      1 <0>        -0.0836
     15 C11         2.7096   -9.6525   -4.6027 C.ar      1 <0>        -0.0926
     16 C12         2.4461   -8.3643   -4.1655 C.ar      1 <0>         0.0192
     17 O3          2.7111   -7.1345   -4.6623 O.3       1 <0>        -0.1851
     18 H1          1.0039    1.9031    0.0027 H         1 <0>         0.0568
     19 H2         -0.5459    1.8868   -0.8726 H         1 <0>         0.0568
     20 H3         -0.5289    1.8773    0.9072 H         1 <0>         0.0586
     21 H4          0.5293   -0.3651    0.8851 H         1 <0>         0.0666
     22 H5         -1.0205   -0.3814    0.0098 H         1 <0>         0.0666
     23 H6          0.1910   -0.1364   -2.1398 H         1 <0>         0.0774
     24 H7          1.7408   -0.1202   -1.2645 H         1 <0>         0.0774
     25 H8          1.2661   -2.3884   -0.3821 H         1 <0>         0.0740
     26 H9         -0.2836   -2.4046   -1.2575 H         1 <0>         0.0740
     27 H10         0.8074   -9.1195   -1.2826 H         1 <0>         0.1396
     28 H11         1.2881  -11.3922   -2.0815 H         1 <0>         0.1420
     29 H12         2.4990  -11.7358   -4.1945 H         1 <0>         0.1456
     30 H13         3.2409   -9.8110   -5.5295 H         1 <0>         0.1404
@<TRIPOS>BOND
     1    1    2 1
     2    1   18 1
     3    1   19 1
     4    1   20 1
     5    2    3 1
     6    2   21 1
     7    2   22 1
     8    3    4 1
     9    3   23 1
    10    3   24 1
    11    4    5 1
    12    4   25 1
    13    4   26 1
    14    5    6 1
    15    6    7 2
    16    6    8 1
    17    8    9 1
    18    9   17 1
    19    9   10 2
    20   10   11 1
    21   11   16 ar
    22   11   12 ar
    23   12   13 ar
    24   12   27 1
    25   13   14 ar
    26   13   28 1
    27   14   15 ar
    28   14   29 1
    29   15   16 ar
    30   15   30 1
    31   16   17 1
@<TRIPOS>MOLECULE
ZINC01186119
   29    30     0     0     0
SMALL
USER_CHARGES
(4-chlorobenzoyl)amino 2-bromobenzoate
@<TRIPOS>ATOM
      1 C1          0.1131    5.4415    0.0298 C.ar      1 <0>        -0.1159
      2 C2          1.3390    6.0841    0.0220 C.ar      1 <0>        -0.0709
      3 C3          2.5114    5.3508    0.0069 C.ar      1 <0>        -0.1022
      4 C4          2.4659    3.9705   -0.0002 C.ar      1 <0>        -0.0362
      5 C5          1.2318    3.3161    0.0081 C.ar      1 <0>        -0.1015
      6 C6          0.0524    4.0639    0.0176 C.ar      1 <0>        -0.0534
      7 C7          1.1745    1.8401    0.0007 C.2       1 <0>         0.4742
      8 O1          2.2026    1.1921   -0.0126 O.2       1 <0>        -0.4654
      9 O2         -0.0144    1.2138    0.0087 O.3       1 <0>        -0.0715
     10 N1          0.0021   -0.0041    0.0020 N.am      1 <0>        -0.5690
     11 C8         -1.1558   -0.6938    0.0094 C.2       1 <0>         0.5684
     12 O3         -2.2173   -0.1000    0.0227 O.2       1 <0>        -0.5032
     13 C9         -1.1358   -2.1719    0.0012 C.ar      1 <0>        -0.1244
     14 C10         0.0808   -2.8560   -0.0199 C.ar      1 <0>        -0.0727
     15 C11         0.0933   -4.2350   -0.0216 C.ar      1 <0>        -0.1143
     16 C12        -1.0982   -4.9411   -0.0145 C.ar      1 <0>        -0.0063
     17 C13        -2.3085   -4.2677    0.0007 C.ar      1 <0>        -0.1150
     18 C14        -2.3334   -2.8889    0.0088 C.ar      1 <0>        -0.0387
     19 Cl1        -1.0747   -6.6769   -0.0241 Cl        1 <0>        -0.0538
     20 Br1         4.0699    2.9692   -0.0215 Br        1 <0>        -0.0034
     21 H1         -0.7985    6.0206    0.0413 H         1 <0>         0.1435
     22 H2          1.3802    7.1633    0.0275 H         1 <0>         0.1434
     23 H3          3.4646    5.8586    0.0001 H         1 <0>         0.1464
     24 H4         -0.9051    3.5643    0.0192 H         1 <0>         0.1500
     25 H5          0.8486   -0.4776   -0.0086 H         1 <0>         0.4112
     26 H6          1.0105   -2.3065   -0.0303 H         1 <0>         0.1370
     27 H7          1.0340   -4.7654   -0.0327 H         1 <0>         0.1452
     28 H8         -3.2344   -4.8236    0.0066 H         1 <0>         0.1469
     29 H9         -3.2777   -2.3649    0.0214 H         1 <0>         0.1514
@<TRIPOS>BOND
     1    1    6 ar
     2    1    2 ar
     3    1   21 1
     4    2    3 ar
     5    2   22 1
     6    3    4 ar
     7    3   23 1
     8    4    5 ar
     9    4   20 1
    10    5    6 ar
    11    5    7 1
    12    6   24 1
    13    7    8 2
    14    7    9 1
    15    9   10 1
    16   10   11 am
    17   10   25 1
    18   11   12 2
    19   11   13 1
    20   13   18 ar
    21   13   14 ar
    22   14   15 ar
    23   14   26 1
    24   15   16 ar
    25   15   27 1
    26   16   17 ar
    27   16   19 1
    28   17   18 ar
    29   17   28 1
    30   18   29 1
@<TRIPOS>MOLECULE
ZINC00476927
   30    32     0     0     0
SMALL
USER_CHARGES
benzotriazol-1-yl-(2-methoxyphenyl)-methanone
@<TRIPOS>ATOM
      1 C1          0.0490    1.0860    0.0440 C.3       1 <0>         0.0204
      2 O1         -0.6405    1.5468    1.2078 O.3       1 <0>        -0.2888
      3 C2         -0.7636    2.8891    1.3594 C.ar      1 <0>         0.1970
      4 C3         -0.2329    3.7492    0.4095 C.ar      1 <0>        -0.2269
      5 C4         -0.3594    5.1151    0.5650 C.ar      1 <0>        -0.0350
      6 C5         -1.0156    5.6378    1.6680 C.ar      1 <0>        -0.1702
      7 C6         -1.5482    4.7990    2.6220 C.ar      1 <0>        -0.0382
      8 C7         -1.4331    3.4136    2.4745 C.ar      1 <0>        -0.1930
      9 C8         -2.0066    2.5101    3.4873 C.2       1 <0>         0.5988
     10 O2         -1.9990    1.3088    3.3040 O.2       1 <0>        -0.4524
     11 N1         -2.5395    3.0160    4.6172 N.am      1 <0>        -0.3935
     12 C9         -3.0211    2.3010    5.6949 C.ar      1 <0>         0.0993
     13 C10        -3.1254    0.9466    5.9854 C.ar      1 <0>        -0.1097
     14 C11        -3.6705    0.5459    7.1856 C.ar      1 <0>        -0.0575
     15 C12        -4.1162    1.4867    8.1043 C.ar      1 <0>        -0.1258
     16 C13        -4.0221    2.8216    7.8366 C.ar      1 <0>        -0.0289
     17 C14        -3.4714    3.2539    6.6239 C.ar      1 <0>        -0.0227
     18 N2         -3.2529    4.4804    6.0913 N.2       1 <0>        -0.1701
     19 N3         -2.7081    4.3726    4.9311 N.2       1 <0>         0.0063
     20 H1          0.0764   -0.0037    0.0456 H         1 <0>         0.1058
     21 H2          1.0672    1.4750    0.0471 H         1 <0>         0.0598
     22 H3         -0.4707    1.4351   -0.8482 H         1 <0>         0.0602
     23 H4          0.2796    3.3498   -0.4531 H         1 <0>         0.1397
     24 H5          0.0554    5.7805   -0.1778 H         1 <0>         0.1348
     25 H6         -1.1095    6.7078    1.7802 H         1 <0>         0.1367
     26 H7         -2.0585    5.2110    3.4802 H         1 <0>         0.1708
     27 H8         -2.7807    0.2110    5.2737 H         1 <0>         0.1469
     28 H9         -3.7519   -0.5067    7.4131 H         1 <0>         0.1453
     29 H10        -4.5417    1.1586    9.0411 H         1 <0>         0.1446
     30 H11        -4.3716    3.5438    8.5595 H         1 <0>         0.1462
@<TRIPOS>BOND
     1    1    2 1
     2    1   20 1
     3    1   21 1
     4    1   22 1
     5    2    3 1
     6    3    8 ar
     7    3    4 ar
     8    4    5 ar
     9    4   23 1
    10    5    6 ar
    11    5   24 1
    12    6    7 ar
    13    6   25 1
    14    7    8 ar
    15    7   26 1
    16    8    9 1
    17    9   10 2
    18    9   11 am
    19   11   19 1
    20   11   12 1
    21   12   17 ar
    22   12   13 ar
    23   13   14 ar
    24   13   27 1
    25   14   15 ar
    26   14   28 1
    27   15   16 ar
    28   15   29 1
    29   16   17 ar
    30   16   30 1
    31   17   18 1
    32   18   19 2
@<TRIPOS>MOLECULE
ZINC02976359
   26    27     0     0     0
SMALL
USER_CHARGES
5-[2-nitro-4-(trifluoromethylsulfonyl)phenyl]sulfanyl-3H-1,3,4-thiadiazole-2-thione
@<TRIPOS>ATOM
      1 C1          2.3506    1.4250   -0.1615 C.ar      1 <0>         0.0317
      2 C2          2.3888    0.0463   -0.1729 C.ar      1 <0>        -0.0740
      3 C3          1.2111   -0.6827   -0.0096 C.ar      1 <0>        -0.0453
      4 C4          0.0001   -0.0122    0.1645 C.ar      1 <0>         0.0216
      5 C5         -0.0264    1.3664    0.1743 C.ar      1 <0>         0.0525
      6 C6          1.1461    2.0853    0.0117 C.ar      1 <0>        -0.6534
      7 S1          1.1046    3.8468    0.0246 S.o2      1 <0>         2.4964
      8 O1          2.2340    4.2417   -0.7420 O.2       1 <0>        -0.8434
      9 O2         -0.2104    4.1816   -0.3973 O.2       1 <0>        -0.8417
     10 C7          1.3386    4.3058    1.7639 C.3       1 <0>        -0.0177
     11 F1          2.5682    3.8137    2.2147 F         1 <0>        -0.1553
     12 F2          1.3214    5.6994    1.8848 F         1 <0>        -0.1545
     13 F3          0.3067    3.7581    2.5337 F         1 <0>        -0.1537
     14 N1         -1.2539   -0.7792    0.3380 N.pl3     1 <0>        -0.0310
     15 O3         -2.3964   -0.1450    0.5018 O.2       1 <0>        -0.1763
     16 O4         -1.2271   -2.0959    0.3285 O.3       1 <0>        -0.1069
     17 S2          1.2524   -2.4442   -0.0237 S.3       1 <0>         0.2369
     18 C8          0.6657   -2.7427   -1.6040 C.2       1 <0>        -0.1584
     19 N2          0.3683   -3.9221   -2.1997 N.2       1 <0>        -0.2044
     20 N3         -0.0596   -3.9677   -3.3868 N.2       1 <0>        -0.3300
     21 C9         -0.2279   -2.8161   -4.0872 C.2       1 <0>         0.2451
     22 S3         -0.7843   -2.5820   -5.6892 S.3       1 <0>        -0.5924
     23 S4          0.2858   -1.6121   -2.8689 S.3       1 <0>        -0.0795
     24 H1          3.2620    1.9906   -0.2879 H         1 <0>         0.1749
     25 H2          3.3289   -0.4677   -0.3084 H         1 <0>         0.1775
     26 H3         -0.9640    1.8865    0.3045 H         1 <0>         0.1813
@<TRIPOS>BOND
     1    1    6 ar
     2    1    2 ar
     3    1   24 1
     4    2    3 ar
     5    2   25 1
     6    3    4 ar
     7    3   17 1
     8    4    5 ar
     9    4   14 1
    10    5    6 ar
    11    5   26 1
    12    6    7 1
    13    7    8 2
    14    7    9 2
    15    7   10 1
    16   10   11 1
    17   10   12 1
    18   10   13 1
    19   14   15 2
    20   14   16 1
    21   17   18 1
    22   18   23 1
    23   18   19 2
    24   19   20 1
    25   20   21 2
    26   21   22 1
    27   21   23 1
@<TRIPOS>MOLECULE
ZINC00386008
   35    37     0     0     0
SMALL
USER_CHARGES

@<TRIPOS>ATOM
      1 C1         -0.0184    1.5028    0.0103 C.3       1 <0>        -0.1146
      2 C2          0.0021   -0.0041    0.0020 C.ar      1 <0>        -0.0635
      3 C3          0.0058   -0.6876   -1.2015 C.ar      1 <0>        -0.1118
      4 C4          0.0249   -2.0686   -1.2189 C.ar      1 <0>        -0.0737
      5 C5          0.0405   -2.7748   -0.0263 C.ar      1 <0>         0.0261
      6 C6          0.0368   -2.0851    1.1859 C.ar      1 <0>         0.0808
      7 C7          0.0228   -0.6991    1.1955 C.ar      1 <0>        -0.1051
      8 N1          0.0551   -3.0495    2.1931 N.am      1 <0>        -0.5416
      9 C8          0.0690   -4.2581    1.5966 C.2       1 <0>         0.6316
     10 O1          0.0867   -5.3270    2.1760 O.2       1 <0>        -0.4636
     11 O2          0.0603   -4.0988    0.2639 O.3       1 <0>        -0.2411
     12 C9          0.0593   -2.7954    3.6359 C.3       1 <0>         0.1856
     13 C10        -1.3599   -2.7274    4.1381 C.ar      1 <0>        -0.1614
     14 C11        -1.9599   -1.5013    4.3514 C.ar      1 <0>        -0.0590
     15 C12        -3.2616   -1.4382    4.8126 C.ar      1 <0>        -0.1626
     16 C13        -3.9667   -2.6016    5.0612 C.ar      1 <0>        -0.0663
     17 C14        -3.3716   -3.8299    4.8491 C.ar      1 <0>        -0.2142
     18 C15        -2.0669   -3.8958    4.3813 C.ar      1 <0>         0.1504
     19 O3         -1.4811   -5.1031    4.1665 O.3       1 <0>        -0.2920
     20 C16        -2.2688   -6.2640    4.4383 C.3       1 <0>         0.0304
     21 H1          1.0042    1.8801    0.0026 H         1 <0>         0.0762
     22 H2         -0.5455    1.8639   -0.8728 H         1 <0>         0.0727
     23 H3         -0.5286    1.8543    0.9071 H         1 <0>         0.0697
     24 H4         -0.0068   -0.1385   -2.1315 H         1 <0>         0.1415
     25 H5          0.0273   -2.5974   -2.1605 H         1 <0>         0.1411
     26 H6          0.0244   -0.1641    2.1337 H         1 <0>         0.1325
     27 H7          0.5867   -3.6019    4.1454 H         1 <0>         0.1080
     28 H8          0.5615   -1.8491    3.8367 H         1 <0>         0.1003
     29 H9         -1.4113   -0.5913    4.1580 H         1 <0>         0.1290
     30 H10        -3.7286   -0.4788    4.9794 H         1 <0>         0.1272
     31 H11        -4.9834   -2.5497    5.4218 H         1 <0>         0.1270
     32 H12        -3.9226   -4.7382    5.0434 H         1 <0>         0.1306
     33 H13        -2.5651   -6.2647    5.4872 H         1 <0>         0.0541
     34 H14        -3.1590   -6.2544    3.8093 H         1 <0>         0.0527
     35 H15        -1.6832   -7.1584    4.2255 H         1 <0>         0.1029
@<TRIPOS>BOND
     1    1    2 1
     2    1   21 1
     3    1   22 1
     4    1   23 1
     5    2    7 ar
     6    2    3 ar
     7    3    4 ar
     8    3   24 1
     9    4    5 ar
    10    4   25 1
    11    5   11 1
    12    5    6 ar
    13    6    7 ar
    14    6    8 1
    15    7   26 1
    16    8    9 am
    17    8   12 1
    18    9   10 2
    19    9   11 1
    20   12   13 1
    21   12   27 1
    22   12   28 1
    23   13   18 ar
    24   13   14 ar
    25   14   15 ar
    26   14   29 1
    27   15   16 ar
    28   15   30 1
    29   16   17 ar
    30   16   31 1
    31   17   18 ar
    32   17   32 1
    33   18   19 1
    34   19   20 1
    35   20   33 1
    36   20   34 1
    37   20   35 1
@<TRIPOS>MOLECULE
ZINC00391976
   30    32     0     0     0
SMALL
USER_CHARGES
3-(3,4-dihydroxyphenyl)-7-hydroxy-chromen-4-one
@<TRIPOS>ATOM
      1 C1         -0.0126    1.0758    0.0080 C.ar      1 <0>        -0.0794
      2 C2          1.1737    1.7822    0.0004 C.ar      1 <0>        -0.1269
      3 C3          1.1582    3.1680    0.0071 C.ar      1 <0>         0.0856
      4 C4         -0.0543    3.8530    0.0214 C.ar      1 <0>         0.0825
      5 C5         -1.2453    3.1497    0.0295 C.ar      1 <0>        -0.1231
      6 C6         -1.2287    1.7558    0.0174 C.ar      1 <0>        -0.0175
      7 C7         -2.5036    0.9977    0.0198 C.2       1 <0>        -0.2492
      8 C8         -3.4779    1.2848    0.9211 C.2       1 <0>         0.1415
      9 O1         -4.6399    0.6273    0.9573 O.3       1 <0>        -0.2173
     10 C9         -4.9501   -0.3738    0.1101 C.ar      1 <0>         0.1639
     11 C10        -6.1768   -1.0191    0.1982 C.ar      1 <0>        -0.1718
     12 C11        -6.4798   -2.0448   -0.6808 C.ar      1 <0>         0.1767
     13 C12        -5.5643   -2.4380   -1.6550 C.ar      1 <0>        -0.1723
     14 C13        -4.3536   -1.8142   -1.7550 C.ar      1 <0>        -0.0119
     15 C14        -4.0337   -0.7782   -0.8762 C.ar      1 <0>        -0.2313
     16 C15        -2.7397   -0.0771   -0.9592 C.2       1 <0>         0.4312
     17 O2         -1.9038   -0.3752   -1.7949 O.2       1 <0>        -0.4516
     18 O3         -7.6796   -2.6735   -0.5927 O.3       1 <0>        -0.4907
     19 O4         -0.0674    5.2129    0.0279 O.3       1 <0>        -0.4867
     20 O5          2.3289    3.8602   -0.0008 O.3       1 <0>        -0.4878
     21 H1          0.0021   -0.0041    0.0020 H         1 <0>         0.1317
     22 H2          2.1156    1.2537   -0.0110 H         1 <0>         0.1377
     23 H3         -2.1864    3.6795    0.0406 H         1 <0>         0.1351
     24 H4         -3.3067    2.0759    1.6361 H         1 <0>         0.2052
     25 H5         -6.8926   -0.7211    0.9500 H         1 <0>         0.1522
     26 H6         -5.8135   -3.2396   -2.3344 H         1 <0>         0.1445
     27 H7         -3.6462   -2.1217   -2.5109 H         1 <0>         0.1484
     28 H8         -7.6793   -3.4407   -0.0040 H         1 <0>         0.4032
     29 H9         -0.0792    5.6103   -0.8535 H         1 <0>         0.3890
     30 H10         2.6591    4.0645   -0.8865 H         1 <0>         0.3894
@<TRIPOS>BOND
     1    1    6 ar
     2    1    2 ar
     3    1   21 1
     4    2    3 ar
     5    2   22 1
     6    3    4 ar
     7    3   20 1
     8    4    5 ar
     9    4   19 1
    10    5    6 ar
    11    5   23 1
    12    6    7 1
    13    7   16 1
    14    7    8 2
    15    8    9 1
    16    8   24 1
    17    9   10 1
    18   10   15 ar
    19   10   11 ar
    20   11   12 ar
    21   11   25 1
    22   12   13 ar
    23   12   18 1
    24   13   14 ar
    25   13   26 1
    26   14   15 ar
    27   14   27 1
    28   15   16 1
    29   16   17 2
    30   18   28 1
    31   19   29 1
    32   20   30 1
@<TRIPOS>MOLECULE
ZINC00190428
   35    37     0     0     0
SMALL
USER_CHARGES

@<TRIPOS>ATOM
      1 C1         -0.0167    1.3798    0.0096 C.ar      1 <0>        -0.0848
      2 C2          1.1680    2.0953    0.0022 C.ar      1 <0>        -0.1299
      3 C3          2.3774    1.4332   -0.0134 C.ar      1 <0>        -0.0570
      4 C4          2.4048    0.0349   -0.0211 C.ar      1 <0>        -0.1657
      5 C5          1.2034   -0.6808   -0.0130 C.ar      1 <0>        -0.0764
      6 C6          0.0021   -0.0041    0.0020 C.ar      1 <0>        -0.1302
      7 C7          3.6913   -0.6795   -0.0381 C.2       1 <0>         0.3943
      8 O1          4.7311   -0.0559   -0.0455 O.2       1 <0>        -0.4157
      9 C8          3.7163   -2.1863   -0.0464 C.3       1 <0>         0.0201
     10 O2          5.0712   -2.6401   -0.0628 O.3       1 <0>        -0.3132
     11 C9          5.2700   -3.9733   -0.0719 C.2       1 <0>         0.5331
     12 O3          4.3186   -4.7297   -0.0661 O.2       1 <0>        -0.5007
     13 C10         6.6385   -4.5129   -0.0889 C.2       1 <0>        -0.2624
     14 C11         6.8750   -5.8817   -0.1044 C.2       1 <0>         0.0949
     15 C12         8.2218   -6.3263   -0.0877 C.ar      1 <0>        -0.1781
     16 C13         8.5279   -7.6782   -0.3028 C.ar      1 <0>        -0.0363
     17 C14         9.8315   -8.0831   -0.3253 C.ar      1 <0>        -0.1456
     18 C15        10.8582   -7.1696   -0.1293 C.ar      1 <0>        -0.0435
     19 C16        10.5797   -5.8388    0.1038 C.ar      1 <0>        -0.1393
     20 C17         9.2614   -5.4048    0.1382 C.ar      1 <0>         0.1611
     21 O4          8.9736   -4.1089    0.4086 O.3       1 <0>        -0.2713
     22 C18         7.8136   -3.6222   -0.0962 C.2       1 <0>         0.5203
     23 O5          7.7420   -2.4902   -0.5363 O.2       1 <0>        -0.4014
     24 H1         -0.9607    1.9041    0.0260 H         1 <0>         0.1300
     25 H2          1.1452    3.1750    0.0081 H         1 <0>         0.1324
     26 H3          3.3011    1.9929   -0.0199 H         1 <0>         0.1366
     27 H4          1.2164   -1.7607   -0.0192 H         1 <0>         0.1325
     28 H5         -0.9266   -0.5553    0.0082 H         1 <0>         0.1321
     29 H6          3.2178   -2.5629    0.8468 H         1 <0>         0.1070
     30 H7          3.1995   -2.5534   -0.9331 H         1 <0>         0.1075
     31 H8          6.0572   -6.5867   -0.1281 H         1 <0>         0.1689
     32 H9          7.7348   -8.3964   -0.4498 H         1 <0>         0.1454
     33 H10        10.0659   -9.1233   -0.4967 H         1 <0>         0.1407
     34 H11        11.8847   -7.5041   -0.1592 H         1 <0>         0.1452
     35 H12        11.3852   -5.1362    0.2585 H         1 <0>         0.1494
@<TRIPOS>BOND
     1    1    6 ar
     2    1    2 ar
     3    1   24 1
     4    2    3 ar
     5    2   25 1
     6    3    4 ar
     7    3   26 1
     8    4    5 ar
     9    4    7 1
    10    5    6 ar
    11    5   27 1
    12    6   28 1
    13    7    8 2
    14    7    9 1
    15    9   10 1
    16    9   29 1
    17    9   30 1
    18   10   11 1
    19   11   12 2
    20   11   13 1
    21   13   22 1
    22   13   14 2
    23   14   15 1
    24   14   31 1
    25   15   20 ar
    26   15   16 ar
    27   16   17 ar
    28   16   32 1
    29   17   18 ar
    30   17   33 1
    31   18   19 ar
    32   18   34 1
    33   19   20 ar
    34   19   35 1
    35   20   21 1
    36   21   22 1
    37   22   23 2
@<TRIPOS>MOLECULE
ZINC00058014
   19    20     0     0     0
SMALL
USER_CHARGES
7-hydroxy-2-oxo-chromene-3-carbonitrile
@<TRIPOS>ATOM
      1 C1         -0.0126    1.0758    0.0080 C.ar      1 <0>        -0.0201
      2 C2         -1.2018    1.7417    0.0172 C.ar      1 <0>        -0.1696
      3 C3         -1.2298    3.1355    0.0307 C.ar      1 <0>         0.1891
      4 C4         -0.0504    3.8625    0.0234 C.ar      1 <0>        -0.1721
      5 C5          1.1701    3.2029    0.0082 C.ar      1 <0>         0.1839
      6 C6          1.1936    1.7949    0.0003 C.ar      1 <0>        -0.1810
      7 C7          2.4306    1.1068   -0.0158 C.2       1 <0>         0.0752
      8 C8          3.6032    1.8445   -0.0234 C.2       1 <0>        -0.1584
      9 C9          3.5174    3.3090   -0.0146 C.2       1 <0>         0.5297
     10 O1          4.5347    3.9768   -0.0206 O.2       1 <0>        -0.4367
     11 O2          2.3181    3.9145    0.0006 O.3       1 <0>        -0.2540
     12 C10         4.8763    1.1892   -0.0392 C.1       1 <0>         0.2643
     13 N1          5.8863    0.6693   -0.0517 N.1       1 <0>        -0.3881
     14 O3         -2.4211    3.7850    0.0456 O.3       1 <0>        -0.4893
     15 H1          0.0021   -0.0041    0.0020 H         1 <0>         0.1516
     16 H2         -2.1280    1.1862    0.0182 H         1 <0>         0.1475
     17 H3         -0.0811    4.9421    0.0299 H         1 <0>         0.1559
     18 H4          2.4597    0.0272   -0.0216 H         1 <0>         0.1653
     19 H5         -2.7748    3.9780   -0.8334 H         1 <0>         0.4065
@<TRIPOS>BOND
     1    1    6 ar
     2    1    2 ar
     3    1   15 1
     4    2    3 ar
     5    2   16 1
     6    3    4 ar
     7    3   14 1
     8    4    5 ar
     9    4   17 1
    10    5   11 1
    11    5    6 ar
    12    6    7 1
    13    7    8 2
    14    7   18 1
    15    8    9 1
    16    8   12 1
    17    9   10 2
    18    9   11 1
    19   12   13 3
    20   14   19 1
@<TRIPOS>MOLECULE
ZINC13861871
   37    39     0     0     0
SMALL
USER_CHARGES
(3Z)-3-[(4-dimethylaminophenyl)methylene]chroman-2,4-dione
@<TRIPOS>ATOM
      1 C1          0.3888   -2.7933   -0.7775 C.3       1 <0>         0.0858
      2 N1          1.5336   -1.9236   -1.0588 N.pl3     1 <0>        -0.6237
      3 C2          2.7604   -2.4882   -1.6264 C.3       1 <0>         0.0807
      4 C3          1.4558   -0.5651   -0.7878 C.ar      1 <0>         0.2540
      5 C4          0.2487   -0.0090   -0.3659 C.ar      1 <0>        -0.2096
      6 C5          0.1667    1.3261   -0.0976 C.ar      1 <0>        -0.0142
      7 C6          1.3011    2.1408   -0.2474 C.ar      1 <0>        -0.1869
      8 C7          2.5147    1.5751   -0.6722 C.ar      1 <0>        -0.0156
      9 C8          2.5853    0.2388   -0.9378 C.ar      1 <0>        -0.2068
     10 C9          1.2217    3.5290    0.0296 C.2       1 <0>         0.1155
     11 C10         2.3143    4.1924    0.5622 C.2       1 <0>        -0.3306
     12 C11         2.3737    5.6716    0.7275 C.2       1 <0>         0.4495
     13 O1          1.3821    6.3541    0.9093 O.2       1 <0>        -0.4352
     14 C12         3.7399    6.2453    0.6521 C.ar      1 <0>        -0.2268
     15 C13         3.9140    7.6286    0.6010 C.ar      1 <0>        -0.0288
     16 C14         5.1861    8.1558    0.5439 C.ar      1 <0>        -0.1497
     17 C15         6.2867    7.3132    0.5389 C.ar      1 <0>        -0.0537
     18 C16         6.1251    5.9449    0.5841 C.ar      1 <0>        -0.1443
     19 C17         4.8490    5.3904    0.6351 C.ar      1 <0>         0.1694
     20 O2          4.7218    4.0425    0.6446 O.3       1 <0>        -0.2936
     21 C18         3.5422    3.4990    1.0318 C.2       1 <0>         0.5415
     22 O3          3.4889    2.4993    1.7224 O.2       1 <0>        -0.4152
     23 H1         -0.2560   -2.8407   -1.6551 H         1 <0>         0.0552
     24 H2          0.7443   -3.7944   -0.5334 H         1 <0>         0.0723
     25 H3         -0.1739   -2.3921    0.0655 H         1 <0>         0.0732
     26 H4          3.4596   -1.6834   -1.8537 H         1 <0>         0.0814
     27 H5          3.2132   -3.1704   -0.9069 H         1 <0>         0.0596
     28 H6          2.5214   -3.0309   -2.5410 H         1 <0>         0.0631
     29 H7         -0.6228   -0.6363   -0.2511 H         1 <0>         0.1314
     30 H8         -0.7698    1.7565    0.2251 H         1 <0>         0.1331
     31 H9          3.3902    2.1967   -0.7881 H         1 <0>         0.1184
     32 H10         3.5177   -0.1972   -1.2645 H         1 <0>         0.1315
     33 H11         0.3090    4.0691   -0.1748 H         1 <0>         0.1512
     34 H12         3.0554    8.2837    0.6064 H         1 <0>         0.1433
     35 H13         5.3255    9.2260    0.5034 H         1 <0>         0.1384
     36 H14         7.2811    7.7329    0.4995 H         1 <0>         0.1413
     37 H15         6.9917    5.3005    0.5804 H         1 <0>         0.1446
@<TRIPOS>BOND
     1    1    2 1
     2    1   23 1
     3    1   24 1
     4    1   25 1
     5    2    3 1
     6    2    4 1
     7    3   26 1
     8    3   27 1
     9    3   28 1
    10    4    9 ar
    11    4    5 ar
    12    5    6 ar
    13    5   29 1
    14    6    7 ar
    15    6   30 1
    16    7    8 ar
    17    7   10 1
    18    8    9 ar
    19    8   31 1
    20    9   32 1
    21   10   11 2
    22   10   33 1
    23   11   21 1
    24   11   12 1
    25   12   13 2
    26   12   14 1
    27   14   19 ar
    28   14   15 ar
    29   15   16 ar
    30   15   34 1
    31   16   17 ar
    32   16   35 1
    33   17   18 ar
    34   17   36 1
    35   18   19 ar
    36   18   37 1
    37   19   20 1
    38   20   21 1
    39   21   22 2
@<TRIPOS>MOLECULE
ZINC00047516
   23    24     0     0     0
SMALL
USER_CHARGES

@<TRIPOS>ATOM
      1 C1         -0.0184    1.5028    0.0103 C.3       1 <0>        -0.1948
      2 C2          0.0021   -0.0041    0.0020 C.2       1 <0>         0.4166
      3 O1          1.0612   -0.5965   -0.0113 O.2       1 <0>        -0.4570
      4 C3         -1.2550   -0.7528    0.0100 C.2       1 <0>        -0.3095
      5 C4         -1.2687   -2.1475    0.0085 C.2       1 <0>         0.0831
      6 C5         -2.5227   -2.8005   -0.0154 C.ar      1 <0>        -0.1859
      7 C6         -2.6051   -4.1891    0.1832 C.ar      1 <0>        -0.0205
      8 C7         -3.8223   -4.8008    0.2003 C.ar      1 <0>        -0.1703
      9 C8         -4.9899   -4.0602    0.0140 C.ar      1 <0>         0.1860
     10 C9         -4.9283   -2.6923   -0.2032 C.ar      1 <0>        -0.1711
     11 C10        -3.6993   -2.0542   -0.2314 C.ar      1 <0>         0.1775
     12 O2         -3.6249   -0.7255   -0.4864 O.3       1 <0>        -0.2719
     13 C11        -2.5590   -0.0630    0.0262 C.2       1 <0>         0.5276
     14 O3         -2.6711    1.0606    0.4791 O.2       1 <0>        -0.4270
     15 O4         -6.1945   -4.6832    0.0452 O.3       1 <0>        -0.4889
     16 H1          1.0042    1.8801    0.0026 H         1 <0>         0.0862
     17 H2         -0.5455    1.8639   -0.8728 H         1 <0>         0.0923
     18 H3         -0.5286    1.8543    0.9071 H         1 <0>         0.1038
     19 H4         -0.3483   -2.7123    0.0247 H         1 <0>         0.1652
     20 H5         -1.7054   -4.7703    0.3216 H         1 <0>         0.1507
     21 H6         -3.8838   -5.8674    0.3589 H         1 <0>         0.1472
     22 H7         -5.8360   -2.1259   -0.3503 H         1 <0>         0.1549
     23 H8         -6.5937   -4.7237    0.9250 H         1 <0>         0.4057
@<TRIPOS>BOND
     1    1    2 1
     2    1   16 1
     3    1   17 1
     4    1   18 1
     5    2    3 2
     6    2    4 1
     7    4   13 1
     8    4    5 2
     9    5    6 1
    10    5   19 1
    11    6   11 ar
    12    6    7 ar
    13    7    8 ar
    14    7   20 1
    15    8    9 ar
    16    8   21 1
    17    9   10 ar
    18    9   15 1
    19   10   11 ar
    20   10   22 1
    21   11   12 1
    22   12   13 1
    23   13   14 2
    24   15   23 1
@<TRIPOS>MOLECULE
ZINC03658930
   39    43     0     0     0
SMALL
USER_CHARGES
7-hydroxy-3-[4-(2-oxochromen-3-yl)thiazol-2-yl]-chromen-2-one
@<TRIPOS>ATOM
      1 C1          4.9580  -10.5752   -0.0960 C.ar      1 <0>        -0.1394
      2 C2          6.2658  -11.0385   -0.1091 C.ar      1 <0>        -0.0617
      3 C3          7.3246  -10.1550   -0.1138 C.ar      1 <0>        -0.1327
      4 C4          7.0857   -8.7856   -0.1053 C.ar      1 <0>         0.1402
      5 C5          5.7595   -8.3197   -0.0921 C.ar      1 <0>        -0.1534
      6 C6          4.6986   -9.2341   -0.0870 C.ar      1 <0>        -0.0506
      7 C7          5.4997   -6.8791   -0.0831 C.2       1 <0>         0.0311
      8 C8          6.5713   -6.0273   -0.0881 C.2       1 <0>        -0.1569
      9 C9          7.9253   -6.5889   -0.1081 C.2       1 <0>         0.5259
     10 O1          8.8858   -5.8416   -0.1177 O.2       1 <0>        -0.4556
     11 O2          8.1189   -7.9165   -0.1094 O.3       1 <0>        -0.2594
     12 C10         6.3658   -4.5602   -0.0794 C.2       1 <0>         0.0981
     13 C11         7.4425   -3.7100   -0.0844 C.2       1 <0>        -0.1549
     14 S1          6.6141   -2.1253   -0.0692 S.3       1 <0>         0.0280
     15 C12         4.9391   -2.7494   -0.0580 C.2       1 <0>         0.1569
     16 N1          5.1445   -4.0582   -0.0609 N.2       1 <0>        -0.4630
     17 C13         3.6657   -2.0046   -0.0428 C.2       1 <0>        -0.1333
     18 C14         3.6597   -0.6226   -0.0358 C.2       1 <0>         0.0303
     19 C15         2.4141    0.0538   -0.0208 C.ar      1 <0>        -0.1677
     20 C16         2.3745    1.4570   -0.0129 C.ar      1 <0>        -0.0273
     21 C17         1.1747    2.1041    0.0021 C.ar      1 <0>        -0.1670
     22 C18        -0.0167    1.3806    0.0096 C.ar      1 <0>         0.1804
     23 C19         0.0021   -0.0041    0.0020 C.ar      1 <0>        -0.1693
     24 C20         1.2140   -0.6808   -0.0132 C.ar      1 <0>         0.1755
     25 O3          1.2297   -2.0315   -0.0202 O.3       1 <0>        -0.2589
     26 C21         2.3843   -2.7180   -0.0344 C.2       1 <0>         0.5223
     27 O4          2.3670   -3.9349   -0.0400 O.2       1 <0>        -0.4163
     28 O5         -1.2041    2.0382    0.0188 O.3       1 <0>        -0.4897
     29 H1          4.1394  -11.2798   -0.0924 H         1 <0>         0.1376
     30 H2          6.4565  -12.1015   -0.1153 H         1 <0>         0.1421
     31 H3          8.3386  -10.5266   -0.1236 H         1 <0>         0.1455
     32 H4          3.6784   -8.8799   -0.0765 H         1 <0>         0.1421
     33 H5          4.4892   -6.4983   -0.0733 H         1 <0>         0.1666
     34 H6          8.4986   -3.9354   -0.0949 H         1 <0>         0.2240
     35 H7          4.5867   -0.0684   -0.0413 H         1 <0>         0.1566
     36 H8          3.2940    2.0235   -0.0190 H         1 <0>         0.1493
     37 H9          1.1472    3.1838    0.0079 H         1 <0>         0.1461
     38 H10        -0.9256   -0.5571    0.0083 H         1 <0>         0.1539
     39 H11        -1.5440    2.2240    0.9049 H         1 <0>         0.4046
@<TRIPOS>BOND
     1    1    6 ar
     2    1    2 ar
     3    1   29 1
     4    2    3 ar
     5    2   30 1
     6    3    4 ar
     7    3   31 1
     8    4   11 1
     9    4    5 ar
    10    5    6 ar
    11    5    7 1
    12    6   32 1
    13    7    8 2
    14    7   33 1
    15    8    9 1
    16    8   12 1
    17    9   10 2
    18    9   11 1
    19   12   16 1
    20   12   13 2
    21   13   14 1
    22   13   34 1
    23   14   15 1
    24   15   16 2
    25   15   17 1
    26   17   26 1
    27   17   18 2
    28   18   19 1
    29   18   35 1
    30   19   24 ar
    31   19   20 ar
    32   20   21 ar
    33   20   36 1
    34   21   22 ar
    35   21   37 1
    36   22   23 ar
    37   22   28 1
    38   23   24 ar
    39   23   38 1
    40   24   25 1
    41   25   26 1
    42   26   27 2
    43   28   39 1
@<TRIPOS>MOLECULE
ZINC06227952
   32    33     0     0     0
SMALL
USER_CHARGES
ethyl 3-(7-hydroxy-2-oxo-chromen-3-yl)-3-oxo-propanoate
@<TRIPOS>ATOM
      1 C1          8.3012   -3.9269   -0.0988 C.3       1 <0>        -0.1548
      2 C2          8.1463   -2.4047   -0.0895 C.3       1 <0>         0.0604
      3 O1          6.7354   -2.0620   -0.0740 O.3       1 <0>        -0.3611
      4 C3          6.4256   -0.7560   -0.0643 C.2       1 <0>         0.4553
      5 O2          7.3043    0.0734   -0.0686 O.2       1 <0>        -0.4668
      6 C4          4.9819   -0.3241   -0.0480 C.3       1 <0>        -0.1614
      7 C5          4.9079    1.1811   -0.0395 C.2       1 <0>         0.3939
      8 O3          5.9278    1.8388   -0.0461 O.2       1 <0>        -0.3774
      9 C6          3.6065    1.8495   -0.0234 C.2       1 <0>        -0.3035
     10 C7          2.4297    1.1087   -0.0157 C.2       1 <0>         0.0723
     11 C8          1.1949    1.7957    0.0003 C.ar      1 <0>        -0.2224
     12 C9         -0.0126    1.0758    0.0080 C.ar      1 <0>         0.0026
     13 C10        -1.2010    1.7412    0.0172 C.ar      1 <0>        -0.1843
     14 C11        -1.2291    3.1361    0.0307 C.ar      1 <0>         0.2415
     15 C12        -0.0500    3.8635    0.0234 C.ar      1 <0>        -0.2532
     16 C13         1.1710    3.2045    0.0082 C.ar      1 <0>         0.2150
     17 O4          2.3177    3.9178    0.0011 O.3       1 <0>        -0.2660
     18 C14         3.5184    3.3152   -0.0145 C.2       1 <0>         0.5186
     19 O5          4.5341    3.9849   -0.0209 O.2       1 <0>        -0.4212
     20 O6         -2.4202    3.7851    0.0456 O.3       1 <0>        -0.4922
     21 H1          9.3700   -4.1866   -0.1105 H         1 <0>         0.0822
     22 H2          7.8137   -4.3396   -0.9944 H         1 <0>         0.0677
     23 H3          7.8312   -4.3488    0.8018 H         1 <0>         0.0677
     24 H4          8.6338   -1.9920    0.8061 H         1 <0>         0.0723
     25 H5          8.6163   -1.9828   -0.9901 H         1 <0>         0.0723
     26 H6          4.4733   -0.7112   -0.9433 H         1 <0>         0.1410
     27 H7          4.4907   -0.7205    0.8529 H         1 <0>         0.1410
     28 H8          2.4589    0.0291   -0.0216 H         1 <0>         0.1608
     29 H9          0.0021   -0.0041    0.0020 H         1 <0>         0.1522
     30 H10        -2.1271    1.1857    0.0185 H         1 <0>         0.1464
     31 H11        -0.0811    4.9430    0.0299 H         1 <0>         0.1514
     32 H12        -2.4473    4.8847    0.0563 H         1 <0>         0.4496
@<TRIPOS>BOND
     1    1    2 1
     2    1   21 1
     3    1   22 1
     4    1   23 1
     5    2    3 1
     6    2   24 1
     7    2   25 1
     8    3    4 1
     9    4    5 2
    10    4    6 1
    11    6    7 1
    12    6   26 1
    13    6   27 1
    14    7    8 2
    15    7    9 1
    16    9   18 1
    17    9   10 2
    18   10   11 1
    19   10   28 1
    20   11   16 ar
    21   11   12 ar
    22   12   13 ar
    23   12   29 1
    24   13   14 ar
    25   13   30 1
    26   14   15 ar
    27   14   20 1
    28   15   16 ar
    29   15   31 1
    30   16   17 1
    31   17   18 1
    32   18   19 2
    33   20   32 1
@<TRIPOS>MOLECULE
ZINC06227952
   31    32     0     0     0
SMALL
USER_CHARGES
ethyl 3-(7-hydroxy-2-oxo-chromen-3-yl)-3-oxo-propanoate
@<TRIPOS>ATOM
      1 C1          8.3012   -3.9269   -0.0988 C.3       1 <0>        -0.1532
      2 C2          8.1463   -2.4047   -0.0895 C.3       1 <0>         0.0595
      3 O1          6.7354   -2.0620   -0.0740 O.3       1 <0>        -0.3642
      4 C3          6.4256   -0.7560   -0.0643 C.2       1 <0>         0.4557
      5 O2          7.3043    0.0734   -0.0686 O.2       1 <0>        -0.4669
      6 C4          4.9819   -0.3241   -0.0480 C.3       1 <0>        -0.1607
      7 C5          4.9079    1.1811   -0.0395 C.2       1 <0>         0.4036
      8 O3          5.9278    1.8388   -0.0461 O.2       1 <0>        -0.4115
      9 C6          3.6065    1.8495   -0.0234 C.2       1 <0>        -0.3951
     10 C7          2.4297    1.1087   -0.0157 C.2       1 <0>         0.1035
     11 C8          1.1949    1.7957    0.0003 C.ar      1 <0>        -0.2977
     12 C9         -0.0126    1.0758    0.0080 C.ar      1 <0>        -0.0103
     13 C10        -1.2010    1.7412    0.0172 C.ar      1 <0>        -0.2460
     14 C11        -1.2291    3.1361    0.0307 C.ar      1 <0>         0.3296
     15 C12        -0.0500    3.8635    0.0234 C.ar      1 <0>        -0.2967
     16 C13         1.1710    3.2045    0.0082 C.ar      1 <0>         0.2181
     17 O4          2.3177    3.9178    0.0011 O.3       1 <0>        -0.2780
     18 C14         3.5184    3.3152   -0.0145 C.2       1 <0>         0.5248
     19 O5          4.5341    3.9849   -0.0209 O.2       1 <0>        -0.4658
     20 O6         -2.4202    3.7851    0.0456 O.3       1 <0>        -0.6655
     21 H1          9.3700   -4.1866   -0.1105 H         1 <0>         0.0786
     22 H2          7.8137   -4.3396   -0.9944 H         1 <0>         0.0666
     23 H3          7.8312   -4.3488    0.8018 H         1 <0>         0.0666
     24 H4          8.6338   -1.9920    0.8061 H         1 <0>         0.0697
     25 H5          8.6163   -1.9828   -0.9901 H         1 <0>         0.0697
     26 H6          4.4733   -0.7112   -0.9433 H         1 <0>         0.1348
     27 H7          4.4907   -0.7205    0.8529 H         1 <0>         0.1348
     28 H8          2.4589    0.0291   -0.0216 H         1 <0>         0.1375
     29 H9          0.0021   -0.0041    0.0020 H         1 <0>         0.1198
     30 H10        -2.1271    1.1857    0.0185 H         1 <0>         0.1165
     31 H11        -0.0811    4.9430    0.0299 H         1 <0>         0.1223
@<TRIPOS>BOND
     1    1    2 1
     2    1   21 1
     3    1   22 1
     4    1   23 1
     5    2    3 1
     6    2   24 1
     7    2   25 1
     8    3    4 1
     9    4    5 2
    10    4    6 1
    11    6    7 1
    12    6   26 1
    13    6   27 1
    14    7    8 2
    15    7    9 1
    16    9   18 1
    17    9   10 2
    18   10   11 1
    19   10   28 1
    20   11   16 ar
    21   11   12 ar
    22   12   13 ar
    23   12   29 1
    24   13   14 ar
    25   13   30 1
    26   14   15 ar
    27   14   20 1
    28   15   16 ar
    29   15   31 1
    30   16   17 1
    31   17   18 1
    32   18   19 2
@<TRIPOS>MOLECULE
ZINC00058069
   28    30     0     0     0
SMALL
USER_CHARGES

@<TRIPOS>ATOM
      1 C1         -0.0167    1.3792    0.0096 C.ar      1 <0>        -0.1111
      2 C2          1.1686    2.0927    0.0021 C.ar      1 <0>        -0.1165
      3 C3          2.3774    1.4275   -0.0135 C.ar      1 <0>        -0.0972
      4 C4          2.4028    0.0332   -0.0212 C.ar      1 <0>        -0.0380
      5 C5          1.2047   -0.6805   -0.0131 C.ar      1 <0>        -0.0987
      6 C6          0.0021   -0.0041    0.0020 C.ar      1 <0>        -0.1183
      7 C7          3.6975   -0.6871   -0.0384 C.2       1 <0>        -0.1658
      8 C8          4.0863   -1.4769    1.0153 C.2       1 <0>        -0.0015
      9 C9          5.3539   -2.1114    0.9471 C.ar      1 <0>        -0.1580
     10 C10         5.7157   -3.0814    1.8935 C.ar      1 <0>        -0.0371
     11 C11         6.9206   -3.7122    1.7930 C.ar      1 <0>        -0.1644
     12 C12         7.8013   -3.3955    0.7601 C.ar      1 <0>         0.1662
     13 C13         7.4696   -2.4267   -0.1734 C.ar      1 <0>        -0.1628
     14 C14         6.2522   -1.7711   -0.0818 C.ar      1 <0>         0.1547
     15 O1          5.9316   -0.7922   -0.9629 O.3       1 <0>        -0.2743
     16 C15         4.6107   -0.5868   -1.1883 C.2       1 <0>         0.5164
     17 O2          4.1935   -0.3242   -2.3013 O.2       1 <0>        -0.4269
     18 O3          8.9923   -4.0403    0.6683 O.3       1 <0>        -0.4906
     19 H1         -0.9604    1.9042    0.0260 H         1 <0>         0.1257
     20 H2          1.1476    3.1725    0.0082 H         1 <0>         0.1274
     21 H3          3.3020    1.9856   -0.0200 H         1 <0>         0.1221
     22 H4          1.2181   -1.7603   -0.0194 H         1 <0>         0.1249
     23 H5         -0.9264   -0.5557    0.0079 H         1 <0>         0.1274
     24 H6          3.4446   -1.6114    1.8735 H         1 <0>         0.1541
     25 H7          5.0414   -3.3280    2.7003 H         1 <0>         0.1461
     26 H8          7.1948   -4.4627    2.5197 H         1 <0>         0.1431
     27 H9          8.1576   -2.1833   -0.9695 H         1 <0>         0.1509
     28 H10         8.9635   -4.8453    0.1334 H         1 <0>         0.4020
@<TRIPOS>BOND
     1    1    6 ar
     2    1    2 ar
     3    1   19 1
     4    2    3 ar
     5    2   20 1
     6    3    4 ar
     7    3   21 1
     8    4    5 ar
     9    4    7 1
    10    5    6 ar
    11    5   22 1
    12    6   23 1
    13    7   16 1
    14    7    8 2
    15    8    9 1
    16    8   24 1
    17    9   14 ar
    18    9   10 ar
    19   10   11 ar
    20   10   25 1
    21   11   12 ar
    22   11   26 1
    23   12   13 ar
    24   12   18 1
    25   13   14 ar
    26   13   27 1
    27   14   15 1
    28   15   16 1
    29   16   17 2
    30   18   28 1
@<TRIPOS>MOLECULE
ZINC00057354
   27    28     0     0     0
SMALL
USER_CHARGES
ethyl 7-hydroxy-2-oxo-chromene-3-carboxylate
@<TRIPOS>ATOM
      1 C1          6.1740   -2.2930   -0.0696 C.3       1 <0>        -0.1530
      2 C2          6.3008   -0.7683   -0.0631 C.3       1 <0>         0.0647
      3 O1          4.9768   -0.1726   -0.0471 O.3       1 <0>        -0.3587
      4 C3          4.9115    1.1739   -0.0396 C.2       1 <0>         0.5182
      5 O2          5.9336    1.8320   -0.0462 O.2       1 <0>        -0.4741
      6 C4          3.6044    1.8464   -0.0234 C.2       1 <0>        -0.2598
      7 C5          2.4303    1.1077   -0.0157 C.2       1 <0>         0.0834
      8 C6          1.1943    1.7954    0.0003 C.ar      1 <0>        -0.1902
      9 C7         -0.0126    1.0758    0.0080 C.ar      1 <0>        -0.0182
     10 C8         -1.2012    1.7413    0.0172 C.ar      1 <0>        -0.1723
     11 C9         -1.2292    3.1360    0.0307 C.ar      1 <0>         0.1908
     12 C10        -0.0501    3.8630    0.0234 C.ar      1 <0>        -0.1754
     13 C11         1.1708    3.2036    0.0082 C.ar      1 <0>         0.1883
     14 O3          2.3184    3.9155    0.0011 O.3       1 <0>        -0.2583
     15 C12         3.5181    3.3106   -0.0146 C.2       1 <0>         0.5246
     16 O4          4.5350    3.9788   -0.0210 O.2       1 <0>        -0.4153
     17 O5         -2.4203    3.7852    0.0452 O.3       1 <0>        -0.4891
     18 H1          5.6405   -2.6171    0.8239 H         1 <0>         0.0676
     19 H2          5.6231   -2.6080   -0.9559 H         1 <0>         0.0675
     20 H3          7.1679   -2.7403   -0.0816 H         1 <0>         0.0831
     21 H4          6.8343   -0.4443   -0.9566 H         1 <0>         0.0735
     22 H5          6.8516   -0.4534    0.8232 H         1 <0>         0.0735
     23 H6          2.4594    0.0281   -0.0215 H         1 <0>         0.1686
     24 H7          0.0021   -0.0041    0.0020 H         1 <0>         0.1515
     25 H8         -2.1274    1.1859    0.0185 H         1 <0>         0.1476
     26 H9         -0.0810    4.9426    0.0299 H         1 <0>         0.1556
     27 H10        -2.7739    3.9780   -0.8340 H         1 <0>         0.4064
@<TRIPOS>BOND
     1    1    2 1
     2    1   18 1
     3    1   19 1
     4    1   20 1
     5    2    3 1
     6    2   21 1
     7    2   22 1
     8    3    4 1
     9    4    5 2
    10    4    6 1
    11    6   15 1
    12    6    7 2
    13    7    8 1
    14    7   23 1
    15    8   13 ar
    16    8    9 ar
    17    9   10 ar
    18    9   24 1
    19   10   11 ar
    20   10   25 1
    21   11   12 ar
    22   11   17 1
    23   12   13 ar
    24   12   26 1
    25   13   14 1
    26   14   15 1
    27   15   16 2
    28   17   27 1
@<TRIPOS>MOLECULE
ZINC01443667
   29    31     0     0     0
SMALL
USER_CHARGES
4-fluoro-8-(4-methoxyphenyl)-7-thia-8-azabicyclo[4.3.0]nona-2,4,10-trien-9-one
@<TRIPOS>ATOM
      1 C1          0.8676    8.3935   -0.5042 C.3       1 <0>         0.0244
      2 O1          1.9242    7.5873    0.0208 O.3       1 <0>        -0.3136
      3 C2          1.7338    6.2411    0.0166 C.ar      1 <0>         0.1235
      4 C3          2.7198    5.4000    0.5118 C.ar      1 <0>        -0.1243
      5 C4          2.5276    4.0328    0.5076 C.ar      1 <0>        -0.0970
      6 C5          1.3464    3.4994    0.0076 C.ar      1 <0>         0.1341
      7 C6          0.3618    4.3421   -0.4925 C.ar      1 <0>        -0.0752
      8 C7          0.5540    5.7093   -0.4834 C.ar      1 <0>        -0.1824
      9 N1          1.1510    2.1141    0.0024 N.am      1 <0>        -0.5529
     10 C8         -0.0177    1.4529    0.0100 C.2       1 <0>         0.5287
     11 O2         -1.0749    2.0599    0.0184 O.2       1 <0>        -0.4965
     12 C9          0.0021   -0.0041    0.0020 C.ar      1 <0>        -0.1904
     13 C10        -1.0701   -0.9226    0.0073 C.ar      1 <0>         0.0177
     14 C11        -0.8340   -2.2619   -0.0026 C.ar      1 <0>        -0.1665
     15 C12         0.4611   -2.7708   -0.0173 C.ar      1 <0>         0.1658
     16 C13         1.5368   -1.9015   -0.0224 C.ar      1 <0>        -0.1240
     17 C14         1.3085   -0.5413   -0.0134 C.ar      1 <0>        -0.0640
     18 S1          2.3465    0.8951   -0.0156 S.3       1 <0>         0.2672
     19 F1          0.6665   -4.1060   -0.0260 F         1 <0>        -0.1192
     20 H1          0.6897    8.1261   -1.5459 H         1 <0>         0.0578
     21 H2         -0.0405    8.2243    0.0745 H         1 <0>         0.0579
     22 H3          1.1475    9.4451   -0.4418 H         1 <0>         0.1035
     23 H4          3.6381    5.8148    0.9005 H         1 <0>         0.1436
     24 H5          3.2956    3.3782    0.8925 H         1 <0>         0.1384
     25 H6         -0.5552    3.9281   -0.8852 H         1 <0>         0.1456
     26 H7         -0.2130    6.3648   -0.8687 H         1 <0>         0.1393
     27 H8         -2.0868   -0.5584    0.0190 H         1 <0>         0.1494
     28 H9         -1.6701   -2.9456    0.0014 H         1 <0>         0.1527
     29 H10         2.5466   -2.2844   -0.0338 H         1 <0>         0.1564
@<TRIPOS>BOND
     1    1    2 1
     2    1   20 1
     3    1   21 1
     4    1   22 1
     5    2    3 1
     6    3    8 ar
     7    3    4 ar
     8    4    5 ar
     9    4   23 1
    10    5    6 ar
    11    5   24 1
    12    6    7 ar
    13    6    9 1
    14    7    8 ar
    15    7   25 1
    16    8   26 1
    17    9   18 1
    18    9   10 am
    19   10   11 2
    20   10   12 1
    21   12   17 ar
    22   12   13 ar
    23   13   14 ar
    24   13   27 1
    25   14   15 ar
    26   14   28 1
    27   15   16 ar
    28   15   19 1
    29   16   17 ar
    30   16   29 1
    31   17   18 1
@<TRIPOS>MOLECULE
ZINC00196523
   28    30     0     0     0
SMALL
USER_CHARGES

@<TRIPOS>ATOM
      1 C1         -0.0167    1.3792    0.0096 C.ar      1 <0>        -0.0406
      2 C2          1.1722    2.0804    0.0020 C.ar      1 <0>        -0.2044
      3 C3          2.3846    1.3998   -0.0104 C.ar      1 <0>         0.2590
      4 C4          2.4060    0.0131   -0.0048 C.ar      1 <0>        -0.1512
      5 C5          1.2055   -0.6820   -0.0059 C.ar      1 <0>        -0.0360
      6 C6          0.0021   -0.0041    0.0020 C.ar      1 <0>        -0.1655
      7 Br1        -1.6240   -0.9693    0.0030 Br        1 <0>        -0.0813
      8 C7          3.6861   -0.7513    0.0224 C.3       1 <0>        -0.0098
      9 H1          3.5848   -1.5680    0.7371 H         1 <0>         0.0816
     10 C8          4.0246   -1.3396   -1.3235 C.2       1 <0>        -0.1591
     11 C9          5.3191   -1.3079   -1.5191 C.2       1 <0>        -0.1619
     12 C10         6.0292   -0.6887   -0.3354 C.3       1 <0>        -0.0984
     13 C11         4.9103    0.0764    0.4085 C.3       1 <0>        -0.0736
     14 H2          5.0772    0.0521    1.4854 H         1 <0>         0.0833
     15 C12         4.8780    1.4962   -0.1182 C.3       1 <0>         0.0883
     16 H3          5.2197    1.4894   -1.1533 H         1 <0>         0.0625
     17 N1          3.5735    2.1200   -0.0369 N.pl3     1 <0>        -0.6922
     18 C13         5.8345    2.3303    0.6945 C.2       1 <0>         0.4878
     19 O1          6.9986    2.4347    0.3476 O.co2     1 <0>        -0.6876
     20 O2          5.4442    2.9006    1.6989 O.co2     1 <0>        -0.6829
     21 H4         -0.9580    1.9084    0.0259 H         1 <0>         0.1247
     22 H5          1.1607    3.1604    0.0054 H         1 <0>         0.1258
     23 H6          1.2119   -1.7619   -0.0129 H         1 <0>         0.1226
     24 H7          3.3033   -1.7313   -2.0254 H         1 <0>         0.1222
     25 H8          5.8135   -1.6746   -2.4065 H         1 <0>         0.1221
     26 H9          6.4625   -1.4632    0.2975 H         1 <0>         0.0754
     27 H10         6.7995    0.0049   -0.6726 H         1 <0>         0.0887
     28 H11         3.5255    3.0887   -0.0229 H         1 <0>         0.4005
@<TRIPOS>BOND
     1    1    6 ar
     2    1    2 ar
     3    1   21 1
     4    2    3 ar
     5    2   22 1
     6    3   17 1
     7    3    4 ar
     8    4    5 ar
     9    4    8 1
    10    5    6 ar
    11    5   23 1
    12    6    7 1
    13    8    9 1
    14    8   13 1
    15    8   10 1
    16   10   11 2
    17   10   24 1
    18   11   12 1
    19   11   25 1
    20   12   13 1
    21   12   26 1
    22   12   27 1
    23   13   14 1
    24   13   15 1
    25   15   16 1
    26   15   17 1
    27   15   18 1
    28   17   28 1
    29   18   19 2
    30   18   20 1
@<TRIPOS>MOLECULE
ZINC04959623
   28    30     0     0     0
SMALL
USER_CHARGES

@<TRIPOS>ATOM
      1 C1         -0.0167    1.3792    0.0096 C.ar      1 <0>        -0.0429
      2 C2          1.1713    2.0814    0.0021 C.ar      1 <0>        -0.2040
      3 C3          2.3856    1.4007   -0.0114 C.ar      1 <0>         0.2575
      4 C4          2.4052    0.0173   -0.0072 C.ar      1 <0>        -0.1482
      5 C5          1.2064   -0.6808   -0.0068 C.ar      1 <0>        -0.0336
      6 C6          0.0021   -0.0041    0.0020 C.ar      1 <0>        -0.1648
      7 Br1        -1.6235   -0.9701    0.0045 Br        1 <0>        -0.0818
      8 C7          3.6866   -0.7674    0.0151 C.3       1 <0>        -0.0066
      9 H1          3.8360   -1.2753   -0.9377 H         1 <0>         0.0790
     10 C8          3.5924   -1.7797    1.1458 C.2       1 <0>        -0.1714
     11 C9          4.2681   -1.3710    2.1881 C.2       1 <0>        -0.1517
     12 C10         4.9264   -0.0346    1.9160 C.3       1 <0>        -0.0910
     13 C11         4.9057    0.0840    0.3595 C.3       1 <0>        -0.0755
     14 H2          5.7977   -0.3946   -0.0447 H         1 <0>         0.0823
     15 C12         4.8740    1.5043   -0.1202 C.3       1 <0>         0.0854
     16 H3          5.2266    1.5281   -1.1513 H         1 <0>         0.0611
     17 N1          3.5692    2.1310   -0.0350 N.pl3     1 <0>        -0.6923
     18 C13         5.8227    2.3145    0.7251 C.2       1 <0>         0.4920
     19 O1          6.9893    2.4313    0.3907 O.co2     1 <0>        -0.6912
     20 O2          5.4236    2.8532    1.7434 O.co2     1 <0>        -0.6777
     21 H4         -0.9582    1.9080    0.0259 H         1 <0>         0.1239
     22 H5          1.1590    3.1613    0.0062 H         1 <0>         0.1255
     23 H6          1.2147   -1.7608   -0.0139 H         1 <0>         0.1229
     24 H7          3.0428   -2.7080    1.0952 H         1 <0>         0.1215
     25 H8          4.3459   -1.9138    3.1186 H         1 <0>         0.1202
     26 H9          4.3528    0.7741    2.3690 H         1 <0>         0.0913
     27 H10         5.9521   -0.0309    2.2847 H         1 <0>         0.0684
     28 H11         3.5181    3.0995   -0.0171 H         1 <0>         0.4017
@<TRIPOS>BOND
     1    1    6 ar
     2    1    2 ar
     3    1   21 1
     4    2    3 ar
     5    2   22 1
     6    3   17 1
     7    3    4 ar
     8    4    5 ar
     9    4    8 1
    10    5    6 ar
    11    5   23 1
    12    6    7 1
    13    8    9 1
    14    8   13 1
    15    8   10 1
    16   10   11 2
    17   10   24 1
    18   11   12 1
    19   11   25 1
    20   12   13 1
    21   12   26 1
    22   12   27 1
    23   13   14 1
    24   13   15 1
    25   15   16 1
    26   15   17 1
    27   15   18 1
    28   17   28 1
    29   18   19 2
    30   18   20 1
@<TRIPOS>MOLECULE
ZINC04959624
   28    30     0     0     0
SMALL
USER_CHARGES

@<TRIPOS>ATOM
      1 C1         -0.0167    1.3792    0.0096 C.ar      1 <0>        -0.0479
      2 C2          1.1671    2.0884    0.0021 C.ar      1 <0>        -0.2097
      3 C3          2.3853    1.4206   -0.0096 C.ar      1 <0>         0.2667
      4 C4          2.3970    0.0210   -0.0045 C.ar      1 <0>        -0.1102
      5 C5          1.2103   -0.6786   -0.0057 C.ar      1 <0>        -0.0449
      6 C6          0.0021   -0.0041    0.0020 C.ar      1 <0>        -0.1593
      7 Br1        -1.6222   -0.9724    0.0028 Br        1 <0>        -0.0838
      8 C7          3.7147   -0.6502    0.0225 C.3       1 <0>        -0.0490
      9 H1          4.0721   -0.6544    1.0523 H         1 <0>         0.1197
     10 C8          3.9142   -2.0107   -0.5397 C.2       1 <0>        -0.1471
     11 C9          5.1552   -2.1007   -1.0023 C.2       1 <0>        -0.1761
     12 C10         5.8829   -0.7687   -0.8103 C.3       1 <0>        -0.0894
     13 C11         4.7058    0.2097   -0.8178 C.3       1 <0>        -0.0876
     14 H2          4.3309    0.3944   -1.8245 H         1 <0>         0.0782
     15 C12         4.8932    1.4953   -0.0325 C.3       1 <0>         0.0824
     16 H3          5.6369    2.1276   -0.5173 H         1 <0>         0.0817
     17 N1          3.5730    2.1624   -0.0387 N.pl3     1 <0>        -0.7139
     18 C13         5.3162    1.1852    1.3804 C.2       1 <0>         0.4897
     19 O1          6.5003    1.0929    1.6559 O.co2     1 <0>        -0.6917
     20 O2          4.4743    1.0266    2.2479 O.co2     1 <0>        -0.6730
     21 H4         -0.9598    1.9052    0.0260 H         1 <0>         0.1214
     22 H5          1.1464    3.1682    0.0050 H         1 <0>         0.1205
     23 H6          1.2230   -1.7585   -0.0134 H         1 <0>         0.1221
     24 H7          3.1730   -2.7958   -0.5675 H         1 <0>         0.1234
     25 H8          5.5878   -2.9843   -1.4479 H         1 <0>         0.1225
     26 H9          6.4217   -0.7509    0.1370 H         1 <0>         0.0997
     27 H10         6.5553   -0.5672   -1.6442 H         1 <0>         0.0632
     28 H11         3.5291    3.1311   -0.0635 H         1 <0>         0.3924
@<TRIPOS>BOND
     1    1    6 ar
     2    1    2 ar
     3    1   21 1
     4    2    3 ar
     5    2   22 1
     6    3   17 1
     7    3    4 ar
     8    4    5 ar
     9    4    8 1
    10    5    6 ar
    11    5   23 1
    12    6    7 1
    13    8    9 1
    14    8   13 1
    15    8   10 1
    16   10   11 2
    17   10   24 1
    18   11   12 1
    19   11   25 1
    20   12   13 1
    21   12   26 1
    22   12   27 1
    23   13   14 1
    24   13   15 1
    25   15   16 1
    26   15   17 1
    27   15   18 1
    28   17   28 1
    29   18   19 2
    30   18   20 1
@<TRIPOS>MOLECULE
ZINC04959625
   28    30     0     0     0
SMALL
USER_CHARGES

@<TRIPOS>ATOM
      1 C1         -0.0167    1.3792    0.0096 C.ar      1 <0>        -0.0405
      2 C2          1.1671    2.0884    0.0021 C.ar      1 <0>        -0.2068
      3 C3          2.3852    1.4207   -0.0175 C.ar      1 <0>         0.2527
      4 C4          2.3967    0.0212   -0.0378 C.ar      1 <0>        -0.1419
      5 C5          1.2102   -0.6786   -0.0205 C.ar      1 <0>        -0.0347
      6 C6          0.0021   -0.0041    0.0020 C.ar      1 <0>        -0.1644
      7 Br1        -1.6220   -0.9725    0.0230 Br        1 <0>        -0.0798
      8 C7          3.7135   -0.6496   -0.0982 C.3       1 <0>        -0.0321
      9 H1          4.0503   -0.6427   -1.1349 H         1 <0>         0.0799
     10 C8          3.9240   -2.0160    0.4452 C.2       1 <0>        -0.1557
     11 C9          5.1741   -2.1108    0.8820 C.2       1 <0>        -0.1626
     12 C10         5.8979   -0.7767    0.6899 C.3       1 <0>        -0.0832
     13 C11         4.7212    0.2013    0.7314 C.3       1 <0>        -0.0805
     14 H2          4.3665    0.3752    1.7473 H         1 <0>         0.0878
     15 C12         4.8931    1.4953   -0.0437 C.3       1 <0>         0.0868
     16 H3          5.1763    1.2820   -1.0744 H         1 <0>         0.0685
     17 N1          3.5734    2.1622   -0.0040 N.pl3     1 <0>        -0.7062
     18 C13         5.9369    2.3611    0.6135 C.2       1 <0>         0.4963
     19 O1          7.1074    2.2578    0.2883 O.co2     1 <0>        -0.6839
     20 O2          5.6109    3.1648    1.4705 O.co2     1 <0>        -0.6840
     21 H4         -0.9598    1.9052    0.0260 H         1 <0>         0.1239
     22 H5          1.1465    3.1682    0.0112 H         1 <0>         0.1251
     23 H6          1.2228   -1.7585   -0.0249 H         1 <0>         0.1240
     24 H7          3.1834   -2.8013    0.4797 H         1 <0>         0.1254
     25 H8          5.6151   -2.9989    1.3099 H         1 <0>         0.1250
     26 H9          6.5868   -0.5841    1.5123 H         1 <0>         0.0732
     27 H10         6.4177   -0.7487   -0.2677 H         1 <0>         0.0841
     28 H11         3.5300    3.1306    0.0318 H         1 <0>         0.4036
@<TRIPOS>BOND
     1    1    6 ar
     2    1    2 ar
     3    1   21 1
     4    2    3 ar
     5    2   22 1
     6    3   17 1
     7    3    4 ar
     8    4    5 ar
     9    4    8 1
    10    5    6 ar
    11    5   23 1
    12    6    7 1
    13    8    9 1
    14    8   13 1
    15    8   10 1
    16   10   11 2
    17   10   24 1
    18   11   12 1
    19   11   25 1
    20   12   13 1
    21   12   26 1
    22   12   27 1
    23   13   14 1
    24   13   15 1
    25   15   16 1
    26   15   17 1
    27   15   18 1
    28   17   28 1
    29   18   19 2
    30   18   20 1
@<TRIPOS>MOLECULE
ZINC04529217
   40    42     0     0     0
SMALL
USER_CHARGES

@<TRIPOS>ATOM
      1 C1         -0.3344    1.5784   -0.0638 C.ar      1 <0>        -0.1065
      2 C2         -0.5223    0.2102   -0.1209 C.ar      1 <0>        -0.1188
      3 C3          0.5709   -0.6366   -0.1660 C.ar      1 <0>        -0.0379
      4 C4          1.8516   -0.1133   -0.1541 C.ar      1 <0>        -0.1156
      5 C5          2.0382    1.2550   -0.0970 C.ar      1 <0>        -0.0610
      6 C6          0.9455    2.1007   -0.0519 C.ar      1 <0>        -0.0330
      7 C7          1.1497    3.5925    0.0104 C.3       1 <0>         0.0729
      8 C8          0.6038    4.1271    1.3359 C.3       1 <0>        -0.1541
      9 C9          1.3332    3.4721    2.4804 C.2       1 <0>         0.4608
     10 O1          2.2008    2.6609    2.2586 O.co2     1 <0>        -0.6155
     11 C10         2.6211    3.9026   -0.0885 C.ar      1 <0>        -0.0325
     12 C11         3.2365    4.6538    0.8954 C.ar      1 <0>        -0.0624
     13 C12         4.5870    4.9346    0.8077 C.ar      1 <0>        -0.1121
     14 C13         5.3208    4.4722   -0.2702 C.ar      1 <0>        -0.0366
     15 C14         4.7032    3.7249   -1.2573 C.ar      1 <0>        -0.1212
     16 C15         3.3537    3.4407   -1.1661 C.ar      1 <0>        -0.1058
     17 Cl1         7.0160    4.8290   -0.3839 Cl        1 <0>        -0.0881
     18 C16         0.4202    4.2475   -1.1341 C.ar      1 <0>        -0.0537
     19 C17        -0.1548    3.4703   -2.1222 C.ar      1 <0>        -0.1059
     20 C18        -0.8281    4.0703   -3.1696 C.ar      1 <0>        -0.1090
     21 C19        -0.9179    5.4494   -3.2343 C.ar      1 <0>        -0.0401
     22 C20        -0.3377    6.2269   -2.2479 C.ar      1 <0>        -0.1082
     23 C21         0.3312    5.6255   -1.1985 C.ar      1 <0>        -0.0944
     24 Cl2        -1.7587    6.2039   -4.5524 Cl        1 <0>        -0.0816
     25 Cl3         0.3357   -2.3551   -0.2372 Cl        1 <0>        -0.0887
     26 H1         -1.1877    2.2397   -0.0330 H         1 <0>         0.1266
     27 H2         -1.5222   -0.1977   -0.1298 H         1 <0>         0.1273
     28 H3          2.7053   -0.7738   -0.1890 H         1 <0>         0.1267
     29 H4          3.0379    1.6636   -0.0876 H         1 <0>         0.1400
     30 H5          0.7514    5.2061    1.3809 H         1 <0>         0.0734
     31 H6         -0.4605    3.9027    1.4074 H         1 <0>         0.0725
     32 H7          2.6628    5.0179    1.7348 H         1 <0>         0.1379
     33 H8          5.0686    5.5180    1.5785 H         1 <0>         0.1281
     34 H9          5.2756    3.3634   -2.0988 H         1 <0>         0.1270
     35 H10         2.8715    2.8574   -1.9365 H         1 <0>         0.1260
     36 H11        -0.0814    2.3938   -2.0736 H         1 <0>         0.1395
     37 H12        -1.2808    3.4628   -3.9393 H         1 <0>         0.1306
     38 H13        -0.4078    7.3034   -2.2977 H         1 <0>         0.1314
     39 H14         0.7842    6.2323   -0.4284 H         1 <0>         0.1328
     40 O2          1.0192    3.7898    3.7461 O.co2     1 <0>        -0.7709
@<TRIPOS>BOND
     1    1    6 ar
     2    1    2 ar
     3    1   26 1
     4    2    3 ar
     5    2   27 1
     6    3    4 ar
     7    3   25 1
     8    4    5 ar
     9    4   28 1
    10    5    6 ar
    11    5   29 1
    12    6    7 1
    13    7    8 1
    14    7   11 1
    15    7   18 1
    16    8    9 1
    17    8   30 1
    18    8   31 1
    19    9   10 2
    20    9   40 1
    21   11   16 ar
    22   11   12 ar
    23   12   13 ar
    24   12   32 1
    25   13   14 ar
    26   13   33 1
    27   14   15 ar
    28   14   17 1
    29   15   16 ar
    30   15   34 1
    31   16   35 1
    32   18   23 ar
    33   18   19 ar
    34   19   20 ar
    35   19   36 1
    36   20   21 ar
    37   20   37 1
    38   21   22 ar
    39   21   24 1
    40   22   23 ar
    41   22   38 1
    42   23   39 1
@<TRIPOS>MOLECULE
ZINC34633601
   43    45     0     0     0
SMALL
USER_CHARGES

@<TRIPOS>ATOM
      1 C1         -0.0169    1.3928    0.0097 C.ar      1 <0>        -0.0609
      2 C2          1.1680    2.0959    0.0022 C.ar      1 <0>        -0.1477
      3 C3          2.3803    1.4177   -0.0135 C.ar      1 <0>         0.1290
      4 C4          2.4037    0.0288   -0.0217 C.ar      1 <0>        -0.1481
      5 C5          1.2234   -0.6821   -0.0142 C.ar      1 <0>        -0.0685
      6 C6          0.0021   -0.0041    0.0020 C.ar      1 <0>        -0.0554
      7 C7         -1.2642   -0.7611    0.0105 C.2       1 <0>         0.1236
      8 N1         -2.4506   -0.2511    0.0194 N.2       1 <0>        -0.2814
      9 O1         -3.4697   -1.2312    0.0333 O.3       1 <0>        -0.1766
     10 C8         -2.8791   -2.4801   -0.3802 C.3       1 <0>         0.0543
     11 H1         -2.9828   -2.6235   -1.4557 H         1 <0>         0.0991
     12 C9         -1.3964   -2.2722    0.0037 C.3       1 <0>        -0.1460
     13 C10        -3.4888   -3.6548    0.3874 C.3       1 <0>        -0.1095
     14 C11        -4.9378   -3.8082    0.0027 C.2       1 <0>         0.4598
     15 O2         -5.4321   -3.0553   -0.8027 O.2       1 <0>        -0.4897
     16 O3         -5.6793   -4.7814    0.5549 O.3       1 <0>        -0.3488
     17 C12        -7.0452   -4.8685    0.1441 C.3       1 <0>         0.0881
     18 C13        -7.9107   -4.0060    1.0649 C.3       1 <0>        -0.1372
     19 C14        -9.3732   -4.0993    0.6251 C.3       1 <0>        -0.1167
     20 C15        -9.8378   -5.5548    0.7045 C.3       1 <0>        -0.1243
     21 C16        -8.9723   -6.4174   -0.2163 C.3       1 <0>        -0.1172
     22 C17        -7.5098   -6.3241    0.2235 C.3       1 <0>        -0.1150
     23 O4          3.5460    2.1146   -0.0214 O.3       1 <0>        -0.4978
     24 H2         -0.9589    1.9207    0.0260 H         1 <0>         0.1383
     25 H3          1.1543    3.1758    0.0081 H         1 <0>         0.1373
     26 H4          3.3483   -0.4946   -0.0342 H         1 <0>         0.1377
     27 H5          1.2424   -1.7619   -0.0213 H         1 <0>         0.1352
     28 H6         -0.7366   -2.7150   -0.7424 H         1 <0>         0.1105
     29 H7         -1.1942   -2.6827    0.9930 H         1 <0>         0.1100
     30 H8         -2.9488   -4.5691    0.1413 H         1 <0>         0.1266
     31 H9         -3.4152   -3.4664    1.4584 H         1 <0>         0.1177
     32 H10        -7.1396   -4.5125   -0.8818 H         1 <0>         0.0839
     33 H11        -7.8164   -4.3620    2.0908 H         1 <0>         0.0725
     34 H12        -7.5797   -2.9690    1.0083 H         1 <0>         0.0685
     35 H13        -9.9898   -3.4848    1.2811 H         1 <0>         0.0697
     36 H14        -9.4675   -3.7432   -0.4008 H         1 <0>         0.0655
     37 H15        -9.7435   -5.9109    1.7303 H         1 <0>         0.0654
     38 H16       -10.8797   -5.6213    0.3911 H         1 <0>         0.0671
     39 H17        -9.3033   -7.4544   -0.1598 H         1 <0>         0.0728
     40 H18        -9.0666   -6.0613   -1.2422 H         1 <0>         0.0655
     41 H19        -6.8933   -6.9386   -0.4325 H         1 <0>         0.0710
     42 H20        -7.4155   -6.6802    1.2493 H         1 <0>         0.0752
     43 H21         3.8923    2.3117    0.8597 H         1 <0>         0.3965
@<TRIPOS>BOND
     1    1    6 ar
     2    1    2 ar
     3    1   24 1
     4    2    3 ar
     5    2   25 1
     6    3    4 ar
     7    3   23 1
     8    4    5 ar
     9    4   26 1
    10    5    6 ar
    11    5   27 1
    12    6    7 1
    13    7   12 1
    14    7    8 2
    15    8    9 1
    16    9   10 1
    17   10   11 1
    18   10   12 1
    19   10   13 1
    20   12   28 1
    21   12   29 1
    22   13   14 1
    23   13   30 1
    24   13   31 1
    25   14   15 2
    26   14   16 1
    27   16   17 1
    28   17   22 1
    29   17   18 1
    30   17   32 1
    31   18   19 1
    32   18   33 1
    33   18   34 1
    34   19   20 1
    35   19   35 1
    36   19   36 1
    37   20   21 1
    38   20   37 1
    39   20   38 1
    40   21   22 1
    41   21   39 1
    42   21   40 1
    43   22   41 1
    44   22   42 1
    45   23   43 1
@<TRIPOS>MOLECULE
ZINC34633602
   43    45     0     0     0
SMALL
USER_CHARGES

@<TRIPOS>ATOM
      1 C1         -0.0169    1.3928    0.0097 C.ar      1 <0>        -0.0609
      2 C2          1.1680    2.0959    0.0022 C.ar      1 <0>        -0.1477
      3 C3          2.3803    1.4177   -0.0135 C.ar      1 <0>         0.1290
      4 C4          2.4037    0.0288   -0.0217 C.ar      1 <0>        -0.1481
      5 C5          1.2234   -0.6821   -0.0142 C.ar      1 <0>        -0.0686
      6 C6          0.0021   -0.0041    0.0020 C.ar      1 <0>        -0.0554
      7 C7         -1.2642   -0.7611    0.0105 C.2       1 <0>         0.1233
      8 N1         -2.4506   -0.2511    0.0194 N.2       1 <0>        -0.2813
      9 O1         -3.4698   -1.2311    0.0187 O.3       1 <0>        -0.1771
     10 C8         -2.8733   -2.4807    0.4218 C.3       1 <0>         0.0547
     11 H1         -2.9616   -2.6257    1.4985 H         1 <0>         0.0999
     12 C9         -1.3964   -2.2722    0.0037 C.3       1 <0>        -0.1458
     13 C10        -3.4941   -3.6542   -0.3387 C.3       1 <0>        -0.1101
     14 C11        -4.9374   -3.8083    0.0665 C.2       1 <0>         0.4599
     15 O2         -5.4200   -3.0566    0.8801 O.2       1 <0>        -0.4900
     16 O3         -5.6867   -4.7806   -0.4764 O.3       1 <0>        -0.3486
     17 C12        -7.0466   -4.8684   -0.0461 C.3       1 <0>         0.0873
     18 C13        -7.1387   -5.7949    1.1679 C.3       1 <0>        -0.1359
     19 C14        -8.5947   -5.8889    1.6286 C.3       1 <0>        -0.1170
     20 C15        -9.4536   -6.4491    0.4931 C.3       1 <0>        -0.1242
     21 C16        -9.3616   -5.5226   -0.7209 C.3       1 <0>        -0.1175
     22 C17        -7.9056   -5.4286   -1.1816 C.3       1 <0>        -0.1154
     23 O4          3.5460    2.1146   -0.0214 O.3       1 <0>        -0.4979
     24 H2         -0.9589    1.9207    0.0260 H         1 <0>         0.1383
     25 H3          1.1543    3.1758    0.0081 H         1 <0>         0.1373
     26 H4          3.3483   -0.4946   -0.0342 H         1 <0>         0.1377
     27 H5          1.2424   -1.7619   -0.0213 H         1 <0>         0.1352
     28 H6         -1.2139   -2.6721   -0.9937 H         1 <0>         0.1106
     29 H7         -0.7220   -2.7229    0.7318 H         1 <0>         0.1101
     30 H8         -3.4358   -3.4642   -1.4104 H         1 <0>         0.1178
     31 H9         -2.9506   -4.5689   -0.1018 H         1 <0>         0.1266
     32 H10        -7.4064   -3.8761    0.2260 H         1 <0>         0.0847
     33 H11        -6.7789   -6.7872    0.8958 H         1 <0>         0.0727
     34 H12        -6.5267   -5.3958    1.9768 H         1 <0>         0.0666
     35 H13        -8.6602   -6.5489    2.4935 H         1 <0>         0.0695
     36 H14        -8.9544   -4.8966    1.9007 H         1 <0>         0.0657
     37 H15        -9.0939   -7.4414    0.2210 H         1 <0>         0.0654
     38 H16       -10.4909   -6.5160    0.8213 H         1 <0>         0.0672
     39 H17        -9.9735   -5.9217   -1.5298 H         1 <0>         0.0729
     40 H18        -9.7213   -4.5303   -0.4488 H         1 <0>         0.0659
     41 H19        -7.8400   -4.7685   -2.0465 H         1 <0>         0.0716
     42 H20        -7.5459   -6.4209   -1.4537 H         1 <0>         0.0750
     43 H21         3.8923    2.3117    0.8597 H         1 <0>         0.3965
@<TRIPOS>BOND
     1    1    6 ar
     2    1    2 ar
     3    1   24 1
     4    2    3 ar
     5    2   25 1
     6    3    4 ar
     7    3   23 1
     8    4    5 ar
     9    4   26 1
    10    5    6 ar
    11    5   27 1
    12    6    7 1
    13    7   12 1
    14    7    8 2
    15    8    9 1
    16    9   10 1
    17   10   11 1
    18   10   12 1
    19   10   13 1
    20   12   28 1
    21   12   29 1
    22   13   14 1
    23   13   30 1
    24   13   31 1
    25   14   15 2
    26   14   16 1
    27   16   17 1
    28   17   22 1
    29   17   18 1
    30   17   32 1
    31   18   19 1
    32   18   33 1
    33   18   34 1
    34   19   20 1
    35   19   35 1
    36   19   36 1
    37   20   21 1
    38   20   37 1
    39   20   38 1
    40   21   22 1
    41   21   39 1
    42   21   40 1
    43   22   41 1
    44   22   42 1
    45   23   43 1
@<TRIPOS>MOLECULE
ZINC03938675
   30    31     0     0     0
SMALL
USER_CHARGES

@<TRIPOS>ATOM
      1 C1         -0.0173    1.4248    0.0099 C.3       1 <0>         0.0333
      2 O1          0.0021   -0.0041    0.0020 O.3       1 <0>        -0.3553
      3 C2         -1.1855   -0.6297    0.0100 C.2       1 <0>         0.4586
      4 O2         -2.2076    0.0145    0.0232 O.2       1 <0>        -0.4911
      5 C3         -1.2439   -2.1355    0.0025 C.3       1 <0>        -0.1094
      6 C4         -2.7051   -2.5893    0.0140 C.3       1 <0>         0.0536
      7 H1         -3.2598   -2.1323   -0.8055 H         1 <0>         0.1005
      8 C5         -2.8062   -4.1323   -0.0414 C.3       1 <0>        -0.1458
      9 C6         -3.9798   -4.4189    0.8759 C.2       1 <0>         0.1241
     10 N1         -4.2140   -3.3595    1.5765 N.2       1 <0>        -0.2812
     11 O3         -3.3257   -2.2986    1.2828 O.3       1 <0>        -0.1790
     12 C7         -4.7259   -5.6893    0.9540 C.ar      1 <0>        -0.0557
     13 C8         -4.3643   -6.7651    0.1395 C.ar      1 <0>        -0.0683
     14 C9         -5.0634   -7.9499    0.2160 C.ar      1 <0>        -0.1482
     15 C10        -6.1267   -8.0754    1.1011 C.ar      1 <0>         0.1292
     16 C11        -6.4896   -7.0081    1.9129 C.ar      1 <0>        -0.1477
     17 C12        -5.7921   -5.8216    1.8469 C.ar      1 <0>        -0.0608
     18 O4         -6.8138   -9.2447    1.1727 O.3       1 <0>        -0.4979
     19 H2          1.0053    1.8021    0.0021 H         1 <0>         0.1038
     20 H3         -0.5445    1.7859   -0.8732 H         1 <0>         0.0615
     21 H4         -0.5275    1.7763    0.9067 H         1 <0>         0.0623
     22 H5         -0.7531   -2.5137   -0.8943 H         1 <0>         0.1276
     23 H6         -0.7361   -2.5233    0.8856 H         1 <0>         0.1191
     24 H7         -3.0168   -4.4701   -1.0561 H         1 <0>         0.1106
     25 H8         -1.8953   -4.5937    0.3400 H         1 <0>         0.1107
     26 H9         -3.5383   -6.6681   -0.5494 H         1 <0>         0.1353
     27 H10        -4.7846   -8.7821   -0.4134 H         1 <0>         0.1378
     28 H11        -7.3168   -7.1098    2.5997 H         1 <0>         0.1374
     29 H12        -6.0720   -4.9938    2.4815 H         1 <0>         0.1384
     30 H13        -6.4585   -9.8707    1.8184 H         1 <0>         0.3966
@<TRIPOS>BOND
     1    1    2 1
     2    1   19 1
     3    1   20 1
     4    1   21 1
     5    2    3 1
     6    3    4 2
     7    3    5 1
     8    5    6 1
     9    5   22 1
    10    5   23 1
    11    6    7 1
    12    6   11 1
    13    6    8 1
    14    8    9 1
    15    8   24 1
    16    8   25 1
    17    9   10 2
    18    9   12 1
    19   10   11 1
    20   12   17 ar
    21   12   13 ar
    22   13   14 ar
    23   13   26 1
    24   14   15 ar
    25   14   27 1
    26   15   16 ar
    27   15   18 1
    28   16   17 ar
    29   16   28 1
    30   17   29 1
    31   18   30 1
@<TRIPOS>MOLECULE
ZINC03938675
   30    31     0     0     0
SMALL
USER_CHARGES

@<TRIPOS>ATOM
      1 C1         -0.0173    1.4248    0.0099 C.3       1 <0>         0.0330
      2 O1          0.0021   -0.0041    0.0020 O.3       1 <0>        -0.3519
      3 C2          0.5984   -0.5997   -1.0427 C.2       1 <0>         0.4580
      4 O2          1.0877    0.0699   -1.9214 O.2       1 <0>        -0.4951
      5 C3          0.6575   -2.1036   -1.1196 C.3       1 <0>        -0.1116
      6 C4          1.3848   -2.5205   -2.3995 C.3       1 <0>         0.0662
      7 H1          2.3642   -2.0457   -2.4588 H         1 <0>         0.1120
      8 C5          1.5144   -4.0591   -2.4814 C.3       1 <0>        -0.1356
      9 C6          1.3331   -4.3342   -3.9624 C.2       1 <0>         0.2729
     10 C7          1.6485   -5.5253   -4.6265 C.2       1 <0>        -0.2355
     11 C8          2.1849   -6.6157   -3.9067 C.2       1 <0>        -0.0049
     12 C9          2.4894   -7.7695   -4.5527 C.2       1 <0>        -0.2557
     13 C10         2.2714   -7.8801   -5.9392 C.2       1 <0>         0.3907
     14 O3          2.5472   -8.9218   -6.5200 O.2       1 <0>        -0.5173
     15 C11         1.7364   -6.7947   -6.6588 C.2       1 <0>        -0.2504
     16 C12         1.4253   -5.6406   -6.0164 C.2       1 <0>        -0.0211
     17 N1          0.8158   -3.2301   -4.5197 N.pl3     1 <0>        -0.5330
     18 O4          0.5937   -2.2089   -3.5625 O.3       1 <0>        -0.1244
     19 H2          1.0053    1.8021    0.0021 H         1 <0>         0.0633
     20 H3         -0.5445    1.7859   -0.8732 H         1 <0>         0.0629
     21 H4         -0.5275    1.7763    0.9067 H         1 <0>         0.1061
     22 H5          1.1948   -2.4908   -0.2539 H         1 <0>         0.1392
     23 H6         -0.3550   -2.5070   -1.1292 H         1 <0>         0.1252
     24 H7          2.5002   -4.3818   -2.1467 H         1 <0>         0.1317
     25 H8          0.7302   -4.5440   -1.9000 H         1 <0>         0.1294
     26 H9          2.3529   -6.5312   -2.8433 H         1 <0>         0.1226
     27 H10         2.8996   -8.6036   -4.0028 H         1 <0>         0.1296
     28 H11         1.5701   -6.8818   -7.7223 H         1 <0>         0.1280
     29 H12         1.0111   -4.8097   -6.5680 H         1 <0>         0.1109
     30 H13         0.6194   -3.1394   -5.4653 H         1 <0>         0.4546
@<TRIPOS>BOND
     1    1    2 1
     2    1   19 1
     3    1   20 1
     4    1   21 1
     5    2    3 1
     6    3    4 2
     7    3    5 1
     8    5    6 1
     9    5   22 1
    10    5   23 1
    11    6    7 1
    12    6   18 1
    13    6    8 1
    14    8    9 1
    15    8   24 1
    16    8   25 1
    17    9   10 2
    18    9   17 1
    19   10   16 1
    20   10   11 1
    21   11   12 2
    22   11   26 1
    23   12   13 1
    24   12   27 1
    25   13   14 2
    26   13   15 1
    27   15   16 2
    28   15   28 1
    29   16   29 1
    30   17   18 1
    31   17   30 1
@<TRIPOS>MOLECULE
ZINC28636956
   38    39     0     0     0
SMALL
USER_CHARGES
(4-methoxyphenyl)methyl N-[(4-hydroxyphenyl)methyleneamino]carbamate
@<TRIPOS>ATOM
      1 C1          6.8285    5.9539    1.2422 C.3       1 <0>         0.0221
      2 O1          6.2203    5.7046   -0.0267 O.3       1 <0>        -0.3156
      3 C2          4.9715    5.1686   -0.0176 C.ar      1 <0>         0.1406
      4 C3          4.3217    4.9007   -1.2137 C.ar      1 <0>        -0.1552
      5 C4          3.0525    4.3554   -1.2019 C.ar      1 <0>        -0.0509
      6 C5          2.4298    4.0765    0.0008 C.ar      1 <0>        -0.1372
      7 C6          3.0731    4.3477    1.1942 C.ar      1 <0>        -0.0501
      8 C7          4.3446    4.8878    1.1877 C.ar      1 <0>        -0.2120
      9 C8          1.0453    3.4816    0.0108 C.3       1 <0>         0.1267
     10 O2          1.1409    2.0328    0.0021 O.3       1 <0>        -0.3408
     11 C9         -0.0162    1.3436    0.0094 C.2       1 <0>         0.6801
     12 O3         -1.0768    1.9368    0.0177 O.2       1 <0>        -0.5643
     13 N1          0.0021   -0.0041    0.0020 N.am      1 <0>        -0.5674
     14 N2          1.2247   -0.6880   -0.0133 N.2       1 <0>        -0.2379
     15 C10         1.2423   -1.9854   -0.0205 C.2       1 <0>         0.1246
     16 C11         2.5290   -2.7051   -0.0366 C.ar      1 <0>        -0.1054
     17 C12         3.7306   -1.9921   -0.0501 C.ar      1 <0>        -0.0329
     18 C13         4.9310   -2.6691   -0.0608 C.ar      1 <0>        -0.1692
     19 C14         4.9474   -4.0579   -0.0684 C.ar      1 <0>         0.1767
     20 C15         3.7554   -4.7707   -0.0599 C.ar      1 <0>        -0.2209
     21 C16         2.5504   -4.1022   -0.0443 C.ar      1 <0>        -0.0447
     22 O4          6.1329   -4.7211   -0.0846 O.3       1 <0>        -0.5079
     23 H1          7.8292    6.3848    1.0908 H         1 <0>         0.1038
     24 H2          6.9164    5.0091    1.7986 H         1 <0>         0.0583
     25 H3          6.2080    6.6597    1.8138 H         1 <0>         0.0580
     26 H4          4.8075    5.1187   -2.1534 H         1 <0>         0.1349
     27 H5          2.5463    4.1464   -2.1327 H         1 <0>         0.1324
     28 H6          2.5827    4.1334    2.1323 H         1 <0>         0.1276
     29 H7          4.8484    5.0954    2.1201 H         1 <0>         0.1318
     30 H8          0.5123    3.8085    0.9158 H         1 <0>         0.0809
     31 H9          0.4952    3.8181   -0.8803 H         1 <0>         0.0819
     32 H10        -0.9429   -0.5670    0.0080 H         1 <0>         0.4332
     33 H11         0.2973   -2.5483   -0.0146 H         1 <0>         0.1254
     34 H12         3.7188   -0.9122   -0.0486 H         1 <0>         0.1410
     35 H13         5.8603   -2.1189   -0.0671 H         1 <0>         0.1326
     36 H14         3.7729   -5.8506   -0.0659 H         1 <0>         0.1320
     37 H15         1.6240   -4.6573   -0.0384 H         1 <0>         0.1312
     38 H16         6.1478   -5.8210   -0.0906 H         1 <0>         0.4368
@<TRIPOS>BOND
     1    1    2 1
     2    1   23 1
     3    1   24 1
     4    1   25 1
     5    2    3 1
     6    3    8 ar
     7    3    4 ar
     8    4    5 ar
     9    4   26 1
    10    5    6 ar
    11    5   27 1
    12    6    7 ar
    13    6    9 1
    14    7    8 ar
    15    7   28 1
    16    8   29 1
    17    9   10 1
    18    9   30 1
    19    9   31 1
    20   10   11 1
    21   11   12 2
    22   11   13 am
    23   13   14 1
    24   13   32 1
    25   14   15 2
    26   15   16 1
    27   15   33 1
    28   16   21 ar
    29   16   17 ar
    30   17   18 ar
    31   17   34 1
    32   18   19 ar
    33   18   35 1
    34   19   20 ar
    35   19   22 1
    36   20   21 ar
    37   20   36 1
    38   21   37 1
    39   22   38 1
@<TRIPOS>MOLECULE
ZINC05483295
   28    29     0     0     0
SMALL
USER_CHARGES

@<TRIPOS>ATOM
      1 C1         -0.0167    1.3788    0.0096 C.ar      1 <0>        -0.1634
      2 C2          1.1695    2.0900    0.0021 C.ar      1 <0>        -0.0795
      3 C3          2.3774    1.4212   -0.0130 C.ar      1 <0>        -0.1825
      4 C4          2.4002    0.0315   -0.0207 C.ar      1 <0>         0.2108
      5 C5          1.2061   -0.6798   -0.0132 C.ar      1 <0>        -0.1595
      6 C6          0.0021   -0.0041    0.0020 C.ar      1 <0>        -0.0835
      7 N1          3.6187   -0.6478   -0.0365 N.pl3     1 <0>        -0.5826
      8 N2          3.6397   -2.0486   -0.0442 N.2       1 <0>        -0.2306
      9 C7          4.7737   -2.6808   -0.0589 C.2       1 <0>         0.0889
     10 C8          4.7958   -4.1549   -0.0671 C.ar      1 <0>        -0.0577
     11 C9          3.5976   -4.8738   -0.0648 C.ar      1 <0>        -0.0673
     12 C10         3.6232   -6.2517   -0.0724 C.ar      1 <0>        -0.1487
     13 C11         4.8374   -6.9258   -0.0818 C.ar      1 <0>         0.1185
     14 C12         6.0308   -6.2156   -0.0837 C.ar      1 <0>        -0.1477
     15 C13         6.0151   -4.8374   -0.0829 C.ar      1 <0>        -0.0764
     16 O1          4.8578   -8.2844   -0.0889 O.3       1 <0>        -0.4996
     17 H1         -0.9599    1.9047    0.0260 H         1 <0>         0.1214
     18 H2          1.1509    3.1699    0.0078 H         1 <0>         0.1250
     19 H3          3.3032    1.9772   -0.0192 H         1 <0>         0.1214
     20 H4          1.2200   -1.7597   -0.0195 H         1 <0>         0.1307
     21 H5         -0.9262   -0.5561    0.0079 H         1 <0>         0.1241
     22 H6          4.4513   -0.1502   -0.0421 H         1 <0>         0.3896
     23 H7          5.7008   -2.1268   -0.0652 H         1 <0>         0.1188
     24 H8          2.6529   -4.3504   -0.0567 H         1 <0>         0.1364
     25 H9          2.6976   -6.8082   -0.0707 H         1 <0>         0.1329
     26 H10         6.9727   -6.7440   -0.0907 H         1 <0>         0.1339
     27 H11         6.9436   -4.2859   -0.0892 H         1 <0>         0.1328
     28 H12         4.8593   -8.6731   -0.9743 H         1 <0>         0.3939
@<TRIPOS>BOND
     1    1    6 ar
     2    1    2 ar
     3    1   17 1
     4    2    3 ar
     5    2   18 1
     6    3    4 ar
     7    3   19 1
     8    4    5 ar
     9    4    7 1
    10    5    6 ar
    11    5   20 1
    12    6   21 1
    13    7    8 1
    14    7   22 1
    15    8    9 2
    16    9   10 1
    17    9   23 1
    18   10   15 ar
    19   10   11 ar
    20   11   12 ar
    21   11   24 1
    22   12   13 ar
    23   12   25 1
    24   13   14 ar
    25   13   16 1
    26   14   15 ar
    27   14   26 1
    28   15   27 1
    29   16   28 1
@<TRIPOS>MOLECULE
ZINC00972753
   29    30     0     0     0
SMALL
USER_CHARGES
(4-hydroxyphenyl)methyleneamino benzoate
@<TRIPOS>ATOM
      1 C1          3.6340    3.3839   -0.0139 C.ar      1 <0>        -0.0785
      2 C2          3.6564    2.0004   -0.0221 C.ar      1 <0>        -0.1283
      3 C3          2.4750    1.2882   -0.0147 C.ar      1 <0>        -0.0501
      4 C4          1.2547    1.9667    0.0006 C.ar      1 <0>        -0.1238
      5 C5          1.2394    3.3629    0.0025 C.ar      1 <0>        -0.0639
      6 C6          2.4282    4.0625    0.0008 C.ar      1 <0>        -0.1306
      7 C7         -0.0144    1.2107    0.0087 C.2       1 <0>         0.5118
      8 O1          0.0021   -0.0041    0.0020 O.2       1 <0>        -0.4557
      9 O2         -1.1895    1.8681    0.0178 O.3       1 <0>        -0.1188
     10 N1         -2.2019    1.1909    0.0190 N.2       1 <0>        -0.3527
     11 C8         -3.3633    1.7629    0.0276 C.2       1 <0>         0.1232
     12 C9         -4.5892    0.9429    0.0289 C.ar      1 <0>        -0.0663
     13 C10        -4.4994   -0.4514    0.0152 C.ar      1 <0>        -0.0629
     14 C11        -5.6471   -1.2136    0.0219 C.ar      1 <0>        -0.1505
     15 C12        -6.8924   -0.5977    0.0311 C.ar      1 <0>         0.1223
     16 C13        -6.9862    0.7884    0.0395 C.ar      1 <0>        -0.1499
     17 C14        -5.8436    1.5582    0.0382 C.ar      1 <0>        -0.0714
     18 O3         -8.0211   -1.3527    0.0315 O.3       1 <0>        -0.4991
     19 H1          4.5618    3.9365   -0.0194 H         1 <0>         0.1334
     20 H2          4.6010    1.4769   -0.0339 H         1 <0>         0.1374
     21 H3          2.4939    0.2084   -0.0210 H         1 <0>         0.1408
     22 H4          0.2989    3.8938    0.0094 H         1 <0>         0.1374
     23 H5          2.4179    5.1424    0.0064 H         1 <0>         0.1353
     24 H6         -3.4344    2.8405    0.0338 H         1 <0>         0.1244
     25 H7         -3.5318   -0.9309    0.0031 H         1 <0>         0.1385
     26 H8         -5.5786   -2.2914    0.0157 H         1 <0>         0.1335
     27 H9         -7.9562    1.2632    0.0467 H         1 <0>         0.1351
     28 H10        -5.9174    2.6356    0.0440 H         1 <0>         0.1349
     29 H11        -8.3518   -1.5663   -0.8517 H         1 <0>         0.3945
@<TRIPOS>BOND
     1    1    6 ar
     2    1    2 ar
     3    1   19 1
     4    2    3 ar
     5    2   20 1
     6    3    4 ar
     7    3   21 1
     8    4    5 ar
     9    4    7 1
    10    5    6 ar
    11    5   22 1
    12    6   23 1
    13    7    8 2
    14    7    9 1
    15    9   10 1
    16   10   11 2
    17   11   12 1
    18   11   24 1
    19   12   17 ar
    20   12   13 ar
    21   13   14 ar
    22   13   25 1
    23   14   15 ar
    24   14   26 1
    25   15   16 ar
    26   15   18 1
    27   16   17 ar
    28   16   27 1
    29   17   28 1
    30   18   29 1
@<TRIPOS>MOLECULE
ZINC00325078
   27    29     0     0     0
SMALL
USER_CHARGES
7-hydroxy-3-(2-methylthiazol-4-yl)-chromen-2-one
@<TRIPOS>ATOM
      1 C1          8.6501   -2.1986   -0.0875 C.3       1 <0>        -0.0649
      2 C2          7.2479   -2.7506   -0.0782 C.2       1 <0>         0.0958
      3 N1          6.1099   -2.1001   -0.0647 N.2       1 <0>        -0.5066
      4 C3          4.9494   -2.7376   -0.0580 C.2       1 <0>         0.0962
      5 C4          4.9712   -4.1074   -0.0599 C.2       1 <0>        -0.1768
      6 S1          6.7323   -4.4084   -0.0827 S.3       1 <0>         0.0475
      7 C5          3.6681   -1.9932   -0.0428 C.2       1 <0>        -0.1498
      8 C6          3.6604   -0.6249   -0.0358 C.2       1 <0>         0.0241
      9 C7          2.4141    0.0535   -0.0208 C.ar      1 <0>        -0.1619
     10 C8          2.3747    1.4559   -0.0129 C.ar      1 <0>        -0.0328
     11 C9          1.1746    2.1034    0.0021 C.ar      1 <0>        -0.1647
     12 C10        -0.0167    1.3805    0.0096 C.ar      1 <0>         0.1712
     13 C11         0.0021   -0.0041    0.0020 C.ar      1 <0>        -0.1655
     14 C12         1.2143   -0.6803   -0.0132 C.ar      1 <0>         0.1622
     15 O1          1.2326   -2.0313   -0.0202 O.3       1 <0>        -0.2574
     16 C13         2.3911   -2.7118   -0.0345 C.2       1 <0>         0.5227
     17 O2          2.3798   -3.9290   -0.0401 O.2       1 <0>        -0.4504
     18 O3         -1.2043    2.0384    0.0188 O.3       1 <0>        -0.4901
     19 H1          8.9972   -2.0711    0.9379 H         1 <0>         0.0927
     20 H2          9.3097   -2.8908   -0.6109 H         1 <0>         0.0892
     21 H3          8.6578   -1.2346   -0.5962 H         1 <0>         0.0946
     22 H4          4.1513   -4.8104   -0.0511 H         1 <0>         0.2165
     23 H5          4.5872   -0.0706   -0.0414 H         1 <0>         0.1610
     24 H6          3.2943    2.0223   -0.0183 H         1 <0>         0.1475
     25 H7          1.1473    3.1830    0.0082 H         1 <0>         0.1445
     26 H8         -0.9255   -0.5573    0.0083 H         1 <0>         0.1522
     27 H9         -1.5441    2.2242    0.9049 H         1 <0>         0.4028
@<TRIPOS>BOND
     1    1    2 1
     2    1   19 1
     3    1   20 1
     4    1   21 1
     5    2    6 1
     6    2    3 2
     7    3    4 1
     8    4    5 2
     9    4    7 1
    10    5    6 1
    11    5   22 1
    12    7   16 1
    13    7    8 2
    14    8    9 1
    15    8   23 1
    16    9   14 ar
    17    9   10 ar
    18   10   11 ar
    19   10   24 1
    20   11   12 ar
    21   11   25 1
    22   12   13 ar
    23   12   18 1
    24   13   14 ar
    25   13   26 1
    26   14   15 1
    27   15   16 1
    28   16   17 2
    29   18   27 1
@<TRIPOS>MOLECULE
ZINC00273815
   27    29     0     0     0
SMALL
USER_CHARGES
7-hydroxy-3-(4-methylthiazol-2-yl)-chromen-2-one
@<TRIPOS>ATOM
      1 C1          6.5714   -6.0473   -0.0900 C.3       1 <0>        -0.0859
      2 C2          6.3644   -4.5546   -0.0810 C.2       1 <0>         0.0589
      3 C3          7.4362   -3.7189   -0.0868 C.2       1 <0>        -0.1958
      4 S1          6.6164   -2.1295   -0.0712 S.3       1 <0>         0.0116
      5 C4          4.9393   -2.7493   -0.0587 C.2       1 <0>         0.1578
      6 N1          5.1486   -4.0596   -0.0618 N.2       1 <0>        -0.4668
      7 C5          3.6658   -2.0045   -0.0426 C.2       1 <0>        -0.1330
      8 C6          3.6598   -0.6227   -0.0356 C.2       1 <0>         0.0289
      9 C7          2.4141    0.0538   -0.0206 C.ar      1 <0>        -0.1679
     10 C8          2.3745    1.4569   -0.0127 C.ar      1 <0>        -0.0278
     11 C9          1.1747    2.1041    0.0021 C.ar      1 <0>        -0.1673
     12 C10        -0.0167    1.3806    0.0096 C.ar      1 <0>         0.1799
     13 C11         0.0021   -0.0041    0.0020 C.ar      1 <0>        -0.1693
     14 C12         1.2140   -0.6808   -0.0131 C.ar      1 <0>         0.1758
     15 O1          1.2297   -2.0315   -0.0201 O.3       1 <0>        -0.2593
     16 C13         2.3844   -2.7179   -0.0343 C.2       1 <0>         0.5198
     17 O2          2.3672   -3.9349   -0.0403 O.2       1 <0>        -0.4116
     18 O3         -1.2041    2.0382    0.0188 O.3       1 <0>        -0.4897
     19 H1          6.6306   -6.4120    0.9355 H         1 <0>         0.0764
     20 H2          5.7351   -6.5270   -0.5985 H         1 <0>         0.0778
     21 H3          7.4982   -6.2824   -0.6134 H         1 <0>         0.0757
     22 H4          8.4910   -3.9505   -0.0981 H         1 <0>         0.2026
     23 H5          4.5867   -0.0685   -0.0411 H         1 <0>         0.1559
     24 H6          3.2940    2.0234   -0.0181 H         1 <0>         0.1489
     25 H7          1.1472    3.1837    0.0082 H         1 <0>         0.1459
     26 H8         -0.9256   -0.5571    0.0082 H         1 <0>         0.1540
     27 H9         -1.5440    2.2240    0.9048 H         1 <0>         0.4044
@<TRIPOS>BOND
     1    1    2 1
     2    1   19 1
     3    1   20 1
     4    1   21 1
     5    2    6 1
     6    2    3 2
     7    3    4 1
     8    3   22 1
     9    4    5 1
    10    5    6 2
    11    5    7 1
    12    7   16 1
    13    7    8 2
    14    8    9 1
    15    8   23 1
    16    9   14 ar
    17    9   10 ar
    18   10   11 ar
    19   10   24 1
    20   11   12 ar
    21   11   25 1
    22   12   13 ar
    23   12   18 1
    24   13   14 ar
    25   13   26 1
    26   14   15 1
    27   15   16 1
    28   16   17 2
    29   18   27 1
@<TRIPOS>MOLECULE
ZINC00349032
   22    23     0     0     0
SMALL
USER_CHARGES

@<TRIPOS>ATOM
      1 C1         -0.0170    1.3992    0.0097 C.ar      1 <0>        -0.0115
      2 C2          1.1555    2.0947    0.0023 C.ar      1 <0>        -0.1695
      3 C3          2.3767    1.4223   -0.0241 C.ar      1 <0>         0.1924
      4 C4          2.4160    0.0368   -0.0566 C.ar      1 <0>        -0.1710
      5 C5          1.2346   -0.6861   -0.0554 C.ar      1 <0>         0.1768
      6 C6          0.0021   -0.0041    0.0020 C.ar      1 <0>        -0.1878
      7 C7         -1.2073   -0.7392    0.0455 C.2       1 <0>         0.1195
      8 C8         -1.1317   -2.1137    0.2409 C.2       1 <0>        -0.2734
      9 C9          0.2092   -2.6986    0.4217 C.2       1 <0>         0.5312
     10 O1          0.3649   -3.7386    1.0340 O.2       1 <0>        -0.4423
     11 O2          1.2608   -2.0394   -0.1181 O.3       1 <0>        -0.2642
     12 C10        -2.3405   -2.9499    0.2666 C.2       1 <0>         0.4197
     13 S1         -3.8811   -2.2343    0.0535 S.2       1 <0>        -0.5665
     14 N1         -2.2359   -4.2799    0.4580 N.pl3     1 <0>        -0.7553
     15 O3          3.5350    2.1290   -0.0184 O.3       1 <0>        -0.4882
     16 H1         -0.9589    1.9272    0.0261 H         1 <0>         0.1557
     17 H2          1.1383    3.1745    0.0166 H         1 <0>         0.1498
     18 H3          3.3654   -0.4774   -0.0832 H         1 <0>         0.1559
     19 H4         -2.1613   -0.2462   -0.0695 H         1 <0>         0.1845
     20 H5         -1.3630   -4.6853    0.5788 H         1 <0>         0.4115
     21 H6         -3.0335   -4.8317    0.4750 H         1 <0>         0.4255
     22 H7          3.8787    2.3137    0.8664 H         1 <0>         0.4071
@<TRIPOS>BOND
     1    1    6 ar
     2    1    2 ar
     3    1   16 1
     4    2    3 ar
     5    2   17 1
     6    3    4 ar
     7    3   15 1
     8    4    5 ar
     9    4   18 1
    10    5   11 1
    11    5    6 ar
    12    6    7 1
    13    7    8 2
    14    7   19 1
    15    8    9 1
    16    8   12 1
    17    9   10 2
    18    9   11 1
    19   12   13 2
    20   12   14 1
    21   14   20 1
    22   14   21 1
    23   15   22 1
@<TRIPOS>MOLECULE
ZINC00272979
   33    36     0     0     0
SMALL
USER_CHARGES
benzofuran-2-yl-indolin-1-yl-methanone
@<TRIPOS>ATOM
      1 C1          7.7233   -2.5765   -0.0709 C.ar      1 <0>        -0.1370
      2 C2          8.8284   -1.7361   -0.0815 C.ar      1 <0>        -0.0775
      3 C3          8.6723   -0.3670   -0.0744 C.ar      1 <0>        -0.1122
      4 C4          7.3960    0.1840   -0.0609 C.ar      1 <0>         0.0717
      5 C5          6.2794   -0.6726   -0.0548 C.ar      1 <0>        -0.1477
      6 C6          6.4594   -2.0580   -0.0625 C.ar      1 <0>        -0.0563
      7 C7          5.1082    0.2031   -0.0408 C.2       1 <0>        -0.0969
      8 C8          5.5885    1.4737   -0.0397 C.2       1 <0>        -0.0326
      9 O1          6.9377    1.4508   -0.0516 O.3       1 <0>        -0.1825
     10 C9          4.7635    2.6895   -0.0274 C.2       1 <0>         0.6100
     11 O2          3.5526    2.6039   -0.1097 O.2       1 <0>        -0.4917
     12 N1          5.3481    3.8996    0.0752 N.am      1 <0>        -0.5451
     13 C10         6.7942    4.1359    0.0804 C.3       1 <0>         0.1020
     14 C11         6.9533    5.6594    0.2123 C.3       1 <0>        -0.0864
     15 C12         5.5372    6.1848    0.2834 C.ar      1 <0>        -0.1319
     16 C13         4.6639    5.1116    0.1981 C.ar      1 <0>         0.1389
     17 C14         3.2892    5.3515    0.2426 C.ar      1 <0>        -0.1275
     18 C15         2.8118    6.6387    0.3695 C.ar      1 <0>        -0.0939
     19 C16         3.6913    7.7021    0.4538 C.ar      1 <0>        -0.1353
     20 C17         5.0541    7.4727    0.4105 C.ar      1 <0>        -0.0800
     21 H1          7.8638   -3.6473   -0.0725 H         1 <0>         0.1346
     22 H2          9.8216   -2.1602   -0.0920 H         1 <0>         0.1400
     23 H3          9.5396    0.2766   -0.0789 H         1 <0>         0.1368
     24 H4          5.6031   -2.7161   -0.0574 H         1 <0>         0.1333
     25 H5          4.0714   -0.0992   -0.0325 H         1 <0>         0.1729
     26 H6          7.2569    3.6305    0.9281 H         1 <0>         0.0897
     27 H7          7.2371    3.7911   -0.8540 H         1 <0>         0.0889
     28 H8          7.4675    6.0684   -0.6574 H         1 <0>         0.0950
     29 H9          7.4958    5.9036    1.1256 H         1 <0>         0.0943
     30 H10         2.5968    4.5252    0.1769 H         1 <0>         0.1393
     31 H11         1.7471    6.8169    0.4033 H         1 <0>         0.1304
     32 H12         3.3147    8.7095    0.5536 H         1 <0>         0.1290
     33 H13         5.7425    8.3023    0.4759 H         1 <0>         0.1278
@<TRIPOS>BOND
     1    1    6 ar
     2    1    2 ar
     3    1   21 1
     4    2    3 ar
     5    2   22 1
     6    3    4 ar
     7    3   23 1
     8    4    9 1
     9    4    5 ar
    10    5    6 ar
    11    5    7 1
    12    6   24 1
    13    7    8 2
    14    7   25 1
    15    8    9 1
    16    8   10 1
    17   10   11 2
    18   10   12 am
    19   12   16 1
    20   12   13 1
    21   13   14 1
    22   13   26 1
    23   13   27 1
    24   14   15 1
    25   14   28 1
    26   14   29 1
    27   15   20 ar
    28   15   16 ar
    29   16   17 ar
    30   17   18 ar
    31   17   30 1
    32   18   19 ar
    33   18   31 1
    34   19   20 ar
    35   19   32 1
    36   20   33 1
@<TRIPOS>MOLECULE
ZINC15016427
   33    35     0     0     0
SMALL
USER_CHARGES
2-[(E)-2-(4-hydroxyphenyl)vinyl]quinolin-8-ol
@<TRIPOS>ATOM
      1 C1          0.0021   -0.0041    0.0020 C.ar      1 <0>        -0.1017
      2 C2          1.1799   -0.6889   -0.0130 C.ar      1 <0>        -0.1042
      3 C3          2.3960    0.0104   -0.0209 C.ar      1 <0>        -0.0946
      4 C4          3.6301   -0.6729   -0.0359 C.ar      1 <0>        -0.0584
      5 C5          4.7761    0.0619   -0.0410 C.ar      1 <0>        -0.1570
      6 C6          4.7061    1.4680   -0.0333 C.ar      1 <0>         0.1885
      7 N1          3.5442    2.0996   -0.0197 N.ar      1 <0>        -0.4616
      8 C7          2.3911    1.4274   -0.0132 C.ar      1 <0>         0.1096
      9 C8          1.1551    2.1088    0.0024 C.ar      1 <0>         0.1311
     10 C9         -0.0168    1.3877    0.0097 C.ar      1 <0>        -0.1305
     11 O1          1.1227    3.4669    0.0096 O.3       1 <0>        -0.4808
     12 C10         5.9518    2.2514   -0.0400 C.2       1 <0>        -0.1319
     13 C11         5.9011    3.5949   -0.0323 C.2       1 <0>        -0.0495
     14 C12         7.1476    4.3787   -0.0390 C.ar      1 <0>        -0.0775
     15 C13         8.3853    3.7281   -0.0476 C.ar      1 <0>        -0.0907
     16 C14         9.5486    4.4658   -0.0601 C.ar      1 <0>        -0.1459
     17 C15         9.4936    5.8541   -0.0522 C.ar      1 <0>         0.1115
     18 C16         8.2663    6.5051   -0.0374 C.ar      1 <0>        -0.1462
     19 C17         7.0974    5.7762   -0.0311 C.ar      1 <0>        -0.0820
     20 O2         10.6434    6.5771   -0.0584 O.3       1 <0>        -0.4995
     21 H1         -0.9304   -0.5490    0.0077 H         1 <0>         0.1334
     22 H2          1.1773   -1.7689   -0.0184 H         1 <0>         0.1333
     23 H3          3.6649   -1.7524   -0.0419 H         1 <0>         0.1434
     24 H4          5.7363   -0.4324   -0.0517 H         1 <0>         0.1409
     25 H5         -0.9631    1.9081    0.0170 H         1 <0>         0.1375
     26 H6          1.1216    3.8556    0.8950 H         1 <0>         0.3919
     27 H7          6.9067    1.7471   -0.0510 H         1 <0>         0.1334
     28 H8          4.9461    4.0991   -0.0212 H         1 <0>         0.1373
     29 H9          8.4291    2.6490   -0.0489 H         1 <0>         0.1314
     30 H10        10.5050    3.9643   -0.0716 H         1 <0>         0.1315
     31 H11         8.2286    7.5844   -0.0313 H         1 <0>         0.1320
     32 H12         6.1439    6.2831   -0.0196 H         1 <0>         0.1324
     33 H13        10.9843    6.7815    0.8231 H         1 <0>         0.3928
@<TRIPOS>BOND
     1    1   10 ar
     2    1    2 ar
     3    1   21 1
     4    2    3 ar
     5    2   22 1
     6    3    8 ar
     7    3    4 ar
     8    4    5 ar
     9    4   23 1
    10    5    6 ar
    11    5   24 1
    12    6    7 ar
    13    6   12 1
    14    7    8 ar
    15    8    9 ar
    16    9   10 ar
    17    9   11 1
    18   10   25 1
    19   11   26 1
    20   12   13 2
    21   12   27 1
    22   13   14 1
    23   13   28 1
    24   14   19 ar
    25   14   15 ar
    26   15   16 ar
    27   15   29 1
    28   16   17 ar
    29   16   30 1
    30   17   18 ar
    31   17   20 1
    32   18   19 ar
    33   18   31 1
    34   19   32 1
    35   20   33 1
@<TRIPOS>MOLECULE
ZINC00331218
   20    21     0     0     0
SMALL
USER_CHARGES
4-iodo-6-phenyl-pyrimidine
@<TRIPOS>ATOM
      1 C1          1.0508    6.2590    0.0257 C.ar      1 <0>        -0.0951
      2 C2         -0.1373    5.5506    0.0323 C.ar      1 <0>        -0.1265
      3 C3         -0.1210    4.1706    0.0247 C.ar      1 <0>        -0.0672
      4 C4          1.0958    3.4908    0.0099 C.ar      1 <0>        -0.0700
      5 C5          2.2898    4.2099    0.0082 C.ar      1 <0>        -0.0891
      6 C6          2.2613    5.5896    0.0105 C.ar      1 <0>        -0.1237
      7 C7          1.1198    2.0080    0.0022 C.ar      1 <0>         0.2336
      8 C8          2.3343    1.3176   -0.0132 C.ar      1 <0>        -0.1867
      9 C9          2.3020   -0.0663   -0.0203 C.ar      1 <0>         0.1591
     10 N1          1.1305   -0.6851   -0.0124 N.ar      1 <0>        -0.4986
     11 C10         0.0021   -0.0041    0.0020 C.ar      1 <0>         0.3128
     12 N2         -0.0158    1.3125    0.0093 N.ar      1 <0>        -0.5050
     13 I1          4.0835   -1.1685   -0.0425 I         1 <0>         0.0351
     14 H1          1.0333    7.3388    0.0320 H         1 <0>         0.1286
     15 H2         -1.0795    6.0784    0.0437 H         1 <0>         0.1305
     16 H3         -1.0492    3.6185    0.0298 H         1 <0>         0.1380
     17 H4          3.2354    3.6882    0.0008 H         1 <0>         0.1284
     18 H5          3.1858    6.1478    0.0051 H         1 <0>         0.1312
     19 H6          3.2740    1.8498   -0.0196 H         1 <0>         0.1563
     20 H7         -0.9348   -0.5413    0.0077 H         1 <0>         0.2082
@<TRIPOS>BOND
     1    1    6 ar
     2    1    2 ar
     3    1   14 1
     4    2    3 ar
     5    2   15 1
     6    3    4 ar
     7    3   16 1
     8    4    5 ar
     9    4    7 1
    10    5    6 ar
    11    5   17 1
    12    6   18 1
    13    7   12 ar
    14    7    8 ar
    15    8    9 ar
    16    8   19 1
    17    9   10 ar
    18    9   13 1
    19   10   11 ar
    20   11   12 ar
    21   11   20 1
@<TRIPOS>MOLECULE
ZINC00079237
   42    45     0     0     0
SMALL
USER_CHARGES
7-[(3-fluorophenyl)amino-(2-pyridyl)methyl]quinolin-8-ol
@<TRIPOS>ATOM
      1 C1          0.0112    4.7326   -3.3147 C.ar      1 <0>        -0.0719
      2 C2         -0.9798    4.2150   -4.1351 C.ar      1 <0>        -0.1683
      3 C3         -2.0167    3.4984   -3.5687 C.ar      1 <0>         0.1003
      4 N1         -2.0673    3.3007   -2.2657 N.ar      1 <0>        -0.4639
      5 C4         -1.1456    3.7822   -1.4551 C.ar      1 <0>         0.1098
      6 C5         -0.0787    4.5087   -1.9496 C.ar      1 <0>        -0.1593
      7 C6         -1.2532    3.5323    0.0272 C.3       1 <0>         0.2515
      8 H1         -0.4590    4.0700    0.5449 H         1 <0>         0.1156
      9 C7         -2.5922    4.0152    0.5221 C.ar      1 <0>        -0.0950
     10 C8         -3.6623    3.1263    0.5821 C.ar      1 <0>        -0.0782
     11 C9         -4.8832    3.5296    1.0304 C.ar      1 <0>        -0.1003
     12 C10        -5.0736    4.8634    1.4272 C.ar      1 <0>        -0.0879
     13 C11        -6.3226    5.3188    1.8902 C.ar      1 <0>        -0.0594
     14 C12        -6.4342    6.6289    2.2596 C.ar      1 <0>        -0.1686
     15 C13        -5.3286    7.4724    2.1719 C.ar      1 <0>         0.1288
     16 N2         -4.1672    7.0441    1.7406 N.ar      1 <0>        -0.4605
     17 C14        -3.9913    5.7746    1.3635 C.ar      1 <0>         0.1041
     18 C15        -2.7391    5.3194    0.8996 C.ar      1 <0>         0.1470
     19 O1         -1.6851    6.1735    0.8294 O.3       1 <0>        -0.4767
     20 N3         -1.1237    2.0971    0.2911 N.pl3     1 <0>        -0.7269
     21 C16         0.1411    1.5298    0.4623 C.ar      1 <0>         0.2456
     22 C17         1.2776    2.3245    0.3769 C.ar      1 <0>        -0.2084
     23 C18         2.5276    1.7607    0.5403 C.ar      1 <0>        -0.0415
     24 C19         2.6501    0.4062    0.7894 C.ar      1 <0>        -0.2116
     25 C20         1.5200   -0.3897    0.8758 C.ar      1 <0>         0.1466
     26 C21         0.2653    0.1697    0.7124 C.ar      1 <0>        -0.2309
     27 F1          1.6429   -1.7128    1.1193 F         1 <0>        -0.1387
     28 H2          0.8337    5.2964   -3.7295 H         1 <0>         0.1376
     29 H3         -0.9419    4.3704   -5.2032 H         1 <0>         0.1363
     30 H4         -2.7924    3.0920   -4.2007 H         1 <0>         0.1565
     31 H5          0.6751    4.8973   -1.2809 H         1 <0>         0.1367
     32 H6         -3.5206    2.1011    0.2734 H         1 <0>         0.1308
     33 H7         -5.7030    2.8281    1.0758 H         1 <0>         0.1364
     34 H8         -7.1691    4.6509    1.9513 H         1 <0>         0.1426
     35 H9         -7.3784    7.0108    2.6190 H         1 <0>         0.1409
     36 H10        -5.4312    8.5061    2.4674 H         1 <0>         0.1622
     37 H11        -1.6081    6.6344   -0.0172 H         1 <0>         0.3912
     38 H12        -1.9164    1.5407    0.3469 H         1 <0>         0.4045
     39 H13         1.1836    3.3826    0.1820 H         1 <0>         0.1261
     40 H14         3.4108    2.3787    0.4732 H         1 <0>         0.1325
     41 H15         3.6290   -0.0320    0.9172 H         1 <0>         0.1319
     42 H16        -0.6163   -0.4506    0.7790 H         1 <0>         0.1325
@<TRIPOS>BOND
     1    1    6 ar
     2    1    2 ar
     3    1   28 1
     4    2    3 ar
     5    2   29 1
     6    3    4 ar
     7    3   30 1
     8    4    5 ar
     9    5    6 ar
    10    5    7 1
    11    6   31 1
    12    7    8 1
    13    7    9 1
    14    7   20 1
    15    9   18 ar
    16    9   10 ar
    17   10   11 ar
    18   10   32 1
    19   11   12 ar
    20   11   33 1
    21   12   17 ar
    22   12   13 ar
    23   13   14 ar
    24   13   34 1
    25   14   15 ar
    26   14   35 1
    27   15   16 ar
    28   15   36 1
    29   16   17 ar
    30   17   18 ar
    31   18   19 1
    32   19   37 1
    33   20   21 1
    34   20   38 1
    35   21   26 ar
    36   21   22 ar
    37   22   23 ar
    38   22   39 1
    39   23   24 ar
    40   23   40 1
    41   24   25 ar
    42   24   41 1
    43   25   26 ar
    44   25   27 1
    45   26   42 1
@<TRIPOS>MOLECULE
ZINC00079248
   42    45     0     0     0
SMALL
USER_CHARGES
7-[(3-fluorophenyl)amino-(2-pyridyl)methyl]quinolin-8-ol
@<TRIPOS>ATOM
      1 C1          2.7129    4.1768    3.7593 C.ar      1 <0>        -0.0773
      2 C2          3.8581    4.9437    3.9121 C.ar      1 <0>        -0.1715
      3 C3          4.4867    5.4464    2.7889 C.ar      1 <0>         0.1009
      4 N1          4.0098    5.2039    1.5834 N.ar      1 <0>        -0.4545
      5 C4          2.9236    4.4791    1.4004 C.ar      1 <0>         0.1093
      6 C5          2.2381    3.9483    2.4770 C.ar      1 <0>        -0.1557
      7 C6          2.4203    4.2316    0.0017 C.3       1 <0>         0.2543
      8 H1          3.1502    3.6366   -0.5472 H         1 <0>         0.1114
      9 C7          2.2174    5.5499   -0.6998 C.ar      1 <0>        -0.1066
     10 C8          0.9684    6.1637   -0.6579 C.ar      1 <0>        -0.0944
     11 C9          0.7526    7.3552   -1.2809 C.ar      1 <0>        -0.1028
     12 C10         1.8020    7.9774   -1.9768 C.ar      1 <0>        -0.0882
     13 C11         1.6172    9.2093   -2.6327 C.ar      1 <0>        -0.0612
     14 C12         2.6828    9.7558   -3.2893 C.ar      1 <0>        -0.1675
     15 C13         3.9089    9.0940   -3.2960 C.ar      1 <0>         0.1277
     16 N2          4.0767    7.9470   -2.6840 N.ar      1 <0>        -0.4566
     17 C14         3.0752    7.3589   -2.0237 C.ar      1 <0>         0.1023
     18 C15         3.2631    6.1271   -1.3621 C.ar      1 <0>         0.1762
     19 O1          4.4760    5.5160   -1.3879 O.3       1 <0>        -0.4615
     20 N3          1.1471    3.5093    0.0615 N.pl3     1 <0>        -0.7358
     21 C16         1.1376    2.1133    0.1052 C.ar      1 <0>         0.2409
     22 C17        -0.0692    1.4270    0.1619 C.ar      1 <0>        -0.2016
     23 C18        -0.0765    0.0467    0.2052 C.ar      1 <0>        -0.0425
     24 C19         1.1155   -0.6538    0.1917 C.ar      1 <0>        -0.2087
     25 C20         2.3207    0.0262    0.1352 C.ar      1 <0>         0.1470
     26 C21         2.3341    1.4089    0.0922 C.ar      1 <0>        -0.2321
     27 F1          3.4838   -0.6610    0.1225 F         1 <0>        -0.1379
     28 H2          2.2004    3.7711    4.6190 H         1 <0>         0.1338
     29 H3          4.2539    5.1452    4.8965 H         1 <0>         0.1348
     30 H4          5.3791    6.0446    2.8994 H         1 <0>         0.1563
     31 H5          1.3463    3.3594    2.3209 H         1 <0>         0.1353
     32 H6          0.1591    5.6880   -0.1240 H         1 <0>         0.1268
     33 H7         -0.2214    7.8200   -1.2398 H         1 <0>         0.1353
     34 H8          0.6595    9.7081   -2.6173 H         1 <0>         0.1417
     35 H9          2.5751   10.6997   -3.8030 H         1 <0>         0.1406
     36 H10         4.7432    9.5379   -3.8189 H         1 <0>         0.1622
     37 H11         4.5960    4.9114   -2.1330 H         1 <0>         0.3874
     38 H12         0.3108    4.0005    0.0706 H         1 <0>         0.4055
     39 H13        -1.0012    1.9726    0.1677 H         1 <0>         0.1283
     40 H14        -1.0147   -0.4864    0.2493 H         1 <0>         0.1336
     41 H15         1.1067   -1.7333    0.2248 H         1 <0>         0.1325
     42 H16         3.2736    1.9395    0.0478 H         1 <0>         0.1324
@<TRIPOS>BOND
     1    1    6 ar
     2    1    2 ar
     3    1   28 1
     4    2    3 ar
     5    2   29 1
     6    3    4 ar
     7    3   30 1
     8    4    5 ar
     9    5    6 ar
    10    5    7 1
    11    6   31 1
    12    7    8 1
    13    7    9 1
    14    7   20 1
    15    9   18 ar
    16    9   10 ar
    17   10   11 ar
    18   10   32 1
    19   11   12 ar
    20   11   33 1
    21   12   17 ar
    22   12   13 ar
    23   13   14 ar
    24   13   34 1
    25   14   15 ar
    26   14   35 1
    27   15   16 ar
    28   15   36 1
    29   16   17 ar
    30   17   18 ar
    31   18   19 1
    32   19   37 1
    33   20   21 1
    34   20   38 1
    35   21   26 ar
    36   21   22 ar
    37   22   23 ar
    38   22   39 1
    39   23   24 ar
    40   23   40 1
    41   24   25 ar
    42   24   41 1
    43   25   26 ar
    44   25   27 1
    45   26   42 1
@<TRIPOS>MOLECULE
ZINC04941804
   35    38     0     0     0
SMALL
USER_CHARGES
(3-benzofuran-2-yl-5-oxo-4-oxa-2-azabicyclo[4.4.0]deca-2,7,9,11-tetraen-8-yl) acetate
@<TRIPOS>ATOM
      1 C1         -5.7231   -1.2203   -1.0573 C.3       1 <0>        -0.1444
      2 C2         -4.3587   -0.5805   -1.0420 C.2       1 <0>         0.4564
      3 O1         -3.9777    0.0529   -1.9977 O.2       1 <0>        -0.4903
      4 O2         -3.5666   -0.7145    0.0336 O.3       1 <0>        -0.2888
      5 C3         -2.4011   -0.0147    0.0328 C.ar      1 <0>         0.0772
      6 C4         -2.4284    1.3744    0.1360 C.ar      1 <0>        -0.0711
      7 C5         -1.2715    2.1008    0.1424 C.ar      1 <0>        -0.0775
      8 C6         -0.0403    1.4488    0.0344 C.ar      1 <0>         0.1545
      9 C7         -0.0080    0.0383   -0.0701 C.ar      1 <0>        -0.2119
     10 C8         -1.1962   -0.6872   -0.0702 C.ar      1 <0>        -0.0302
     11 C9          1.3047   -0.6154   -0.1760 C.2       1 <0>         0.5374
     12 O3          1.4030   -1.8242   -0.2684 O.2       1 <0>        -0.4215
     13 O4          2.3983    0.1794   -0.1663 O.3       1 <0>        -0.2944
     14 C10         2.2761    1.5153   -0.0632 C.2       1 <0>         0.4420
     15 N1          1.1240    2.1294    0.0327 N.2       1 <0>        -0.4872
     16 C11         3.4997    2.3272   -0.0580 C.2       1 <0>         0.0512
     17 C12         4.7641    1.8368   -0.1443 C.2       1 <0>        -0.1029
     18 C13         5.6525    2.9981   -0.1031 C.ar      1 <0>        -0.1478
     19 C14         7.0385    3.1658   -0.1519 C.ar      1 <0>        -0.0550
     20 C15         7.5714    4.4222   -0.0838 C.ar      1 <0>        -0.1363
     21 C16         6.7449    5.5311    0.0343 C.ar      1 <0>        -0.0745
     22 C17         5.3750    5.3867    0.0841 C.ar      1 <0>        -0.1100
     23 C18         4.8100    4.1188    0.0162 C.ar      1 <0>         0.0787
     24 O5          3.5385    3.6723    0.0391 O.3       1 <0>        -0.1586
     25 H1         -6.4568   -0.5209   -0.6566 H         1 <0>         0.1112
     26 H2         -5.9908   -1.4806   -2.0814 H         1 <0>         0.1089
     27 H3         -5.7085   -2.1220   -0.4451 H         1 <0>         0.0994
     28 H4         -3.3774    1.8838    0.2160 H         1 <0>         0.1462
     29 H5         -1.3087    3.1772    0.2228 H         1 <0>         0.1572
     30 H6         -1.1777   -1.7642   -0.1494 H         1 <0>         0.1555
     31 H7          5.0542    0.7999   -0.2278 H         1 <0>         0.1764
     32 H8          7.6859    2.3062   -0.2438 H         1 <0>         0.1346
     33 H9          8.6428    4.5532   -0.1218 H         1 <0>         0.1354
     34 H10         7.1801    6.5181    0.0874 H         1 <0>         0.1412
     35 H11         4.7421    6.2570    0.1754 H         1 <0>         0.1390
@<TRIPOS>BOND
     1    1    2 1
     2    1   25 1
     3    1   26 1
     4    1   27 1
     5    2    3 2
     6    2    4 1
     7    4    5 1
     8    5   10 ar
     9    5    6 ar
    10    6    7 ar
    11    6   28 1
    12    7    8 ar
    13    7   29 1
    14    8   15 1
    15    8    9 ar
    16    9   10 ar
    17    9   11 1
    18   10   30 1
    19   11   12 2
    20   11   13 1
    21   13   14 1
    22   14   15 2
    23   14   16 1
    24   16   24 1
    25   16   17 2
    26   17   18 1
    27   17   31 1
    28   18   23 ar
    29   18   19 ar
    30   19   20 ar
    31   19   32 1
    32   20   21 ar
    33   20   33 1
    34   21   22 ar
    35   21   34 1
    36   22   23 ar
    37   22   35 1
    38   23   24 1
@<TRIPOS>MOLECULE
ZINC00806272
   31    33     0     0     0
SMALL
USER_CHARGES

@<TRIPOS>ATOM
      1 C1         -0.0184    1.5028    0.0103 C.3       1 <0>        -0.1153
      2 C2          0.0021   -0.0041    0.0020 C.ar      1 <0>        -0.0621
      3 C3          0.0058   -0.6876   -1.2015 C.ar      1 <0>        -0.1095
      4 C4          0.0249   -2.0686   -1.2189 C.ar      1 <0>        -0.0720
      5 C5          0.0405   -2.7748   -0.0263 C.ar      1 <0>         0.0266
      6 C6          0.0368   -2.0851    1.1859 C.ar      1 <0>         0.0790
      7 C7          0.0228   -0.6991    1.1955 C.ar      1 <0>        -0.1041
      8 N1          0.0551   -3.0495    2.1931 N.am      1 <0>        -0.5417
      9 C8          0.0690   -4.2581    1.5966 C.2       1 <0>         0.6361
     10 O1          0.0867   -5.3270    2.1760 O.2       1 <0>        -0.4838
     11 O2          0.0603   -4.0988    0.2639 O.3       1 <0>        -0.2361
     12 C9          0.0593   -2.7954    3.6359 C.3       1 <0>         0.1736
     13 C10        -1.3599   -2.7274    4.1381 C.ar      1 <0>        -0.1253
     14 C11        -2.0298   -1.5183    4.1556 C.ar      1 <0>        -0.0975
     15 C12        -3.3316   -1.4560    4.6163 C.ar      1 <0>        -0.1229
     16 C13        -3.9638   -2.6028    5.0591 C.ar      1 <0>        -0.1073
     17 C14        -3.2943   -3.8121    5.0407 C.ar      1 <0>        -0.1212
     18 C15        -1.9939   -3.8752    4.5761 C.ar      1 <0>        -0.0930
     19 H1          1.0042    1.8801    0.0026 H         1 <0>         0.0770
     20 H2         -0.5455    1.8639   -0.8728 H         1 <0>         0.0736
     21 H3         -0.5286    1.8543    0.9071 H         1 <0>         0.0700
     22 H4         -0.0068   -0.1385   -2.1315 H         1 <0>         0.1429
     23 H5          0.0273   -2.5974   -2.1605 H         1 <0>         0.1427
     24 H6          0.0244   -0.1641    2.1337 H         1 <0>         0.1333
     25 H7          0.5867   -3.6019    4.1454 H         1 <0>         0.1074
     26 H8          0.5615   -1.8491    3.8367 H         1 <0>         0.1032
     27 H9         -1.5358   -0.6224    3.8097 H         1 <0>         0.1215
     28 H10        -3.8547   -0.5112    4.6306 H         1 <0>         0.1256
     29 H11        -4.9806   -2.5539    5.4196 H         1 <0>         0.1251
     30 H12        -3.7881   -4.7080    5.3870 H         1 <0>         0.1262
     31 H13        -1.4721   -4.8206    4.5583 H         1 <0>         0.1278
@<TRIPOS>BOND
     1    1    2 1
     2    1   19 1
     3    1   20 1
     4    1   21 1
     5    2    7 ar
     6    2    3 ar
     7    3    4 ar
     8    3   22 1
     9    4    5 ar
    10    4   23 1
    11    5   11 1
    12    5    6 ar
    13    6    7 ar
    14    6    8 1
    15    7   24 1
    16    8    9 am
    17    8   12 1
    18    9   10 2
    19    9   11 1
    20   12   13 1
    21   12   25 1
    22   12   26 1
    23   13   18 ar
    24   13   14 ar
    25   14   15 ar
    26   14   27 1
    27   15   16 ar
    28   15   28 1
    29   16   17 ar
    30   16   29 1
    31   17   18 ar
    32   17   30 1
    33   18   31 1
@<TRIPOS>MOLECULE
ZINC01430601
   25    27     0     0     0
SMALL
USER_CHARGES
8-(4-chlorophenyl)-4-fluoro-7-thia-8-azabicyclo[4.3.0]nona-2,4,10-trien-9-one
@<TRIPOS>ATOM
      1 C1          0.3621    4.3418   -0.4923 C.ar      1 <0>        -0.1069
      2 C2          0.5556    5.7090   -0.4810 C.ar      1 <0>        -0.0816
      3 C3          1.7329    6.2385    0.0179 C.ar      1 <0>        -0.0449
      4 C4          2.7174    5.4002    0.5113 C.ar      1 <0>        -0.0811
      5 C5          2.5273    4.0325    0.5074 C.ar      1 <0>        -0.1278
      6 C6          1.3463    3.4981    0.0076 C.ar      1 <0>         0.1805
      7 N1          1.1510    2.1141    0.0024 N.am      1 <0>        -0.5592
      8 C7         -0.0177    1.4529    0.0100 C.2       1 <0>         0.5308
      9 O1         -1.0748    2.0599    0.0184 O.2       1 <0>        -0.4907
     10 C8          0.0021   -0.0041    0.0020 C.ar      1 <0>        -0.1916
     11 C9         -1.0701   -0.9226    0.0069 C.ar      1 <0>         0.0190
     12 C10        -0.8341   -2.2619   -0.0034 C.ar      1 <0>        -0.1657
     13 C11         0.4611   -2.7707   -0.0181 C.ar      1 <0>         0.1677
     14 C12         1.5367   -1.9015   -0.0228 C.ar      1 <0>        -0.1236
     15 C13         1.3085   -0.5412   -0.0134 C.ar      1 <0>        -0.0634
     16 S1          2.3465    0.8951   -0.0156 S.3       1 <0>         0.2711
     17 F1          0.6665   -4.1060   -0.0272 F         1 <0>        -0.1183
     18 Cl1         1.9754    7.9575    0.0244 Cl        1 <0>        -0.0593
     19 H1         -0.5551    3.9289   -0.8855 H         1 <0>         0.1518
     20 H2         -0.2110    6.3655   -0.8654 H         1 <0>         0.1454
     21 H3          3.6354    5.8162    0.8994 H         1 <0>         0.1459
     22 H4          3.2961    3.3788    0.8922 H         1 <0>         0.1409
     23 H5         -2.0868   -0.5584    0.0186 H         1 <0>         0.1503
     24 H6         -1.6701   -2.9456    0.0002 H         1 <0>         0.1536
     25 H7          2.5465   -2.2843   -0.0338 H         1 <0>         0.1571
@<TRIPOS>BOND
     1    1    6 ar
     2    1    2 ar
     3    1   19 1
     4    2    3 ar
     5    2   20 1
     6    3    4 ar
     7    3   18 1
     8    4    5 ar
     9    4   21 1
    10    5    6 ar
    11    5   22 1
    12    6    7 1
    13    7   16 1
    14    7    8 am
    15    8    9 2
    16    8   10 1
    17   10   15 ar
    18   10   11 ar
    19   11   12 ar
    20   11   23 1
    21   12   13 ar
    22   12   24 1
    23   13   14 ar
    24   13   17 1
    25   14   15 ar
    26   14   25 1
    27   15   16 1
