@<TRIPOS>MOLECULE
ZINC03815700
   43    46     0     0     0
SMALL
USER_CHARGES

@<TRIPOS>ATOM
      1 C1         -0.4417    2.5108    0.1274 C.3       1 <0>        -0.4980
      2 S1         -0.2285    0.7138    0.0013 S.o       1 <0>         1.3317
      3 O1          0.3381    0.2184    1.2066 O.2       1 <0>        -0.8500
      4 C2         -1.8753    0.0872    0.0153 C.ar      1 <0>        -0.4539
      5 C3         -2.4807   -0.2316    1.2179 C.ar      1 <0>        -0.0505
      6 C4         -3.7698   -0.7226    1.2359 C.ar      1 <0>        -0.0905
      7 C5         -4.4635   -0.8973    0.0374 C.ar      1 <0>         0.0183
      8 C6         -3.8471   -0.5733   -1.1722 C.ar      1 <0>        -0.1282
      9 C7         -2.5593   -0.0786   -1.1759 C.ar      1 <0>        -0.0372
     10 C8         -5.8450   -1.4235    0.0492 C.2       1 <0>         0.2539
     11 N1         -6.6187   -1.6414   -1.0552 N.pl3     1 <0>        -0.5494
     12 H1         -6.3641   -1.4808   -1.9773 H         1 <0>         0.4258
     13 C9         -7.8254   -2.1307   -0.6157 C.2       1 <0>         0.0559
     14 C10        -7.7421   -2.1946    0.7659 C.2       1 <0>         0.0600
     15 N2         -6.5217   -1.7612    1.1224 N.2       1 <0>        -0.4460
     16 C11        -8.8052   -2.6624    1.6841 C.ar      1 <0>         0.0397
     17 C12        -9.5683   -3.7960    1.3824 C.ar      1 <0>        -0.1547
     18 C13       -10.5481   -4.1969    2.2660 C.ar      1 <0>         0.1020
     19 N3        -10.7699   -3.5273    3.3814 N.ar      1 <0>        -0.4829
     20 C14       -10.0734   -2.4536    3.7038 C.ar      1 <0>         0.1009
     21 C15        -9.0708   -1.9865    2.8804 C.ar      1 <0>        -0.1469
     22 C16        -8.9814   -2.5126   -1.4503 C.ar      1 <0>        -0.0400
     23 C17       -10.2631   -2.0665   -1.1192 C.ar      1 <0>        -0.0563
     24 C18       -11.3392   -2.4265   -1.9026 C.ar      1 <0>        -0.1471
     25 C19       -11.1511   -3.2299   -3.0163 C.ar      1 <0>         0.1129
     26 C20        -9.8817   -3.6756   -3.3498 C.ar      1 <0>        -0.1491
     27 C21        -8.7972   -3.3169   -2.5775 C.ar      1 <0>        -0.0765
     28 F1        -12.2093   -3.5802   -3.7797 F         1 <0>        -0.1335
     29 H2          0.5355    2.9936    0.1264 H         1 <0>         0.1086
     30 H3         -1.0243    2.8681   -0.7218 H         1 <0>         0.1118
     31 H4         -0.9645    2.7506    1.0533 H         1 <0>         0.0820
     32 H5         -1.9427   -0.0960    2.1446 H         1 <0>         0.1340
     33 H6         -4.2409   -0.9717    2.1752 H         1 <0>         0.1409
     34 H7         -4.3783   -0.7065   -2.1030 H         1 <0>         0.1252
     35 H8         -2.0825    0.1760   -2.1109 H         1 <0>         0.1447
     36 H9         -9.3927   -4.3483    0.4711 H         1 <0>         0.1333
     37 H10       -11.1422   -5.0705    2.0420 H         1 <0>         0.1579
     38 H11       -10.2890   -1.9361    4.6268 H         1 <0>         0.1588
     39 H12        -8.5017   -1.1100    3.1527 H         1 <0>         0.1379
     40 H13       -10.4110   -1.4411   -0.2513 H         1 <0>         0.1357
     41 H14       -12.3306   -2.0822   -1.6477 H         1 <0>         0.1434
     42 H15        -9.7412   -4.3013   -4.2187 H         1 <0>         0.1424
     43 H16        -7.8079   -3.6609   -2.8410 H         1 <0>         0.1331
@<TRIPOS>BOND
     1    1    2 1
     2    1   29 1
     3    1   30 1
     4    1   31 1
     5    2    3 2
     6    2    4 1
     7    4    9 ar
     8    4    5 ar
     9    5    6 ar
    10    5   32 1
    11    6    7 ar
    12    6   33 1
    13    7    8 ar
    14    7   10 1
    15    8    9 ar
    16    8   34 1
    17    9   35 1
    18   10   15 2
    19   10   11 1
    20   11   12 1
    21   11   13 1
    22   13   14 2
    23   13   22 1
    24   14   15 1
    25   14   16 1
    26   16   21 ar
    27   16   17 ar
    28   17   18 ar
    29   17   36 1
    30   18   19 ar
    31   18   37 1
    32   19   20 ar
    33   20   21 ar
    34   20   38 1
    35   21   39 1
    36   22   27 ar
    37   22   23 ar
    38   23   24 ar
    39   23   40 1
    40   24   25 ar
    41   24   41 1
    42   25   26 ar
    43   25   28 1
    44   26   27 ar
    45   26   42 1
    46   27   43 1
@<TRIPOS>MOLECULE
ZINC18274812
   43    46     0     0     0
SMALL
USER_CHARGES

@<TRIPOS>ATOM
      1 C1          0.0458    2.4645   -0.3714 C.3       1 <0>        -0.4977
      2 S1          0.1034    0.6635   -0.1624 S.o       1 <0>         1.3328
      3 O1          0.9995    0.3374    0.8912 O.2       1 <0>        -0.8522
      4 C2          0.9248    0.0922   -1.6127 C.ar      1 <0>        -0.4531
      5 C3          0.1894   -0.2245   -2.7411 C.ar      1 <0>        -0.0385
      6 C4          0.8263   -0.6720   -3.8801 C.ar      1 <0>        -0.0921
      7 C5          2.2157   -0.8050   -3.8925 C.ar      1 <0>         0.0171
      8 C6          2.9515   -0.4838   -2.7508 C.ar      1 <0>        -0.1253
      9 C7          2.3027   -0.0324   -1.6200 C.ar      1 <0>        -0.0497
     10 C8          2.9049   -1.2844   -5.1094 C.2       1 <0>         0.2582
     11 N1          4.2515   -1.4590   -5.2384 N.pl3     1 <0>        -0.5486
     12 H1          4.9216   -1.2936   -4.5568 H         1 <0>         0.4252
     13 C9          4.4814   -1.9147   -6.5171 C.2       1 <0>         0.0337
     14 C10         3.2416   -2.0017   -7.1294 C.2       1 <0>         0.0807
     15 N2          2.3171   -1.6154   -6.2370 N.2       1 <0>        -0.4488
     16 C11         2.9826   -2.4473   -8.5186 C.ar      1 <0>        -0.0206
     17 C12         3.6496   -3.5590   -9.0325 C.ar      1 <0>        -0.0694
     18 C13         3.4051   -3.9700  -10.3265 C.ar      1 <0>        -0.1511
     19 C14         2.4988   -3.2799  -11.1154 C.ar      1 <0>         0.1060
     20 C15         1.8337   -2.1747  -10.6093 C.ar      1 <0>        -0.1526
     21 C16         2.0668   -1.7598   -9.3145 C.ar      1 <0>        -0.0599
     22 F1          2.2634   -3.6856  -12.3824 F         1 <0>        -0.1371
     23 C17         5.7881   -2.2443   -7.1163 C.ar      1 <0>         0.0226
     24 C18         6.1399   -1.7662   -8.3862 C.ar      1 <0>        -0.1423
     25 C19         7.3716   -2.0992   -8.9074 C.ar      1 <0>         0.1081
     26 N3          8.2131   -2.8565   -8.2286 N.ar      1 <0>        -0.4784
     27 C20         7.9224   -3.3278   -7.0303 C.ar      1 <0>         0.1071
     28 C21         6.7158   -3.0398   -6.4296 C.ar      1 <0>        -0.1652
     29 H2          1.0609    2.8540   -0.4489 H         1 <0>         0.0810
     30 H3         -0.5069    2.7075   -1.2790 H         1 <0>         0.1130
     31 H4         -0.4514    2.9143    0.4881 H         1 <0>         0.1088
     32 H5         -0.8856   -0.1215   -2.7301 H         1 <0>         0.1470
     33 H6          0.2512   -0.9192   -4.7602 H         1 <0>         0.1462
     34 H7          4.0268   -0.5845   -2.7539 H         1 <0>         0.1202
     35 H8          2.8713    0.2203   -0.7373 H         1 <0>         0.1322
     36 H9          4.3566   -4.0971   -8.4186 H         1 <0>         0.1287
     37 H10         3.9211   -4.8308  -10.7253 H         1 <0>         0.1387
     38 H11         1.1282   -1.6400  -11.2280 H         1 <0>         0.1401
     39 H12         1.5446   -0.9009   -8.9194 H         1 <0>         0.1377
     40 H13         5.4562   -1.1467   -8.9476 H         1 <0>         0.1400
     41 H14         7.6520   -1.7358   -9.8850 H         1 <0>         0.1626
     42 H15         8.6418   -3.9441   -6.5116 H         1 <0>         0.1610
     43 H16         6.4868   -3.4248   -5.4469 H         1 <0>         0.1340
@<TRIPOS>BOND
     1    1    2 1
     2    1   29 1
     3    1   30 1
     4    1   31 1
     5    2    3 2
     6    2    4 1
     7    4    9 ar
     8    4    5 ar
     9    5    6 ar
    10    5   32 1
    11    6    7 ar
    12    6   33 1
    13    7    8 ar
    14    7   10 1
    15    8    9 ar
    16    8   34 1
    17    9   35 1
    18   10   15 2
    19   10   11 1
    20   11   12 1
    21   11   13 1
    22   13   14 2
    23   13   23 1
    24   14   15 1
    25   14   16 1
    26   16   21 ar
    27   16   17 ar
    28   17   18 ar
    29   17   36 1
    30   18   19 ar
    31   18   37 1
    32   19   20 ar
    33   19   22 1
    34   20   21 ar
    35   20   38 1
    36   21   39 1
    37   23   28 ar
    38   23   24 ar
    39   24   25 ar
    40   24   40 1
    41   25   26 ar
    42   25   41 1
    43   26   27 ar
    44   27   28 ar
    45   27   42 1
    46   28   43 1
@<TRIPOS>MOLECULE
ZINC18274812
   43    46     0     0     0
SMALL
USER_CHARGES

@<TRIPOS>ATOM
      1 C1          0.0761    2.5207   -0.3946 C.3       1 <0>        -0.4977
      2 S1          0.1067    0.7194   -0.1829 S.o       1 <0>         1.3328
      3 O1          0.9925    0.3819    0.8757 O.2       1 <0>        -0.8523
      4 C2          0.9273    0.1342   -1.6283 C.ar      1 <0>        -0.4535
      5 C3          0.1933   -0.1734   -2.7600 C.ar      1 <0>        -0.0382
      6 C4          0.8295   -0.6320   -3.8950 C.ar      1 <0>        -0.0929
      7 C5          2.2169   -0.7850   -3.8999 C.ar      1 <0>         0.0183
      8 C6          2.9514   -0.4724   -2.7550 C.ar      1 <0>        -0.1257
      9 C7          2.3033   -0.0102   -1.6282 C.ar      1 <0>        -0.0496
     10 C8          2.9053   -1.2765   -5.1125 C.2       1 <0>         0.2536
     11 N1          4.2517   -1.4710   -5.2346 N.pl3     1 <0>        -0.5504
     12 H1          4.9205   -1.3136   -4.5499 H         1 <0>         0.4255
     13 C9          4.4817   -1.9314   -6.5089 C.2       1 <0>         0.0556
     14 C10         3.2446   -2.0022   -7.1288 C.2       1 <0>         0.0602
     15 N2          2.3192   -1.6008   -6.2417 N.2       1 <0>        -0.4443
     16 C11         2.9879   -2.4463   -8.5176 C.ar      1 <0>         0.0401
     17 C12         3.6482   -3.5593   -9.0502 C.ar      1 <0>        -0.1549
     18 C13         3.3789   -3.9386  -10.3482 C.ar      1 <0>         0.1021
     19 N3          2.5133   -3.2676  -11.0845 N.ar      1 <0>        -0.4831
     20 C14         1.8693   -2.2129  -10.6212 C.ar      1 <0>         0.1008
     21 C15         2.0741   -1.7682   -9.3321 C.ar      1 <0>        -0.1466
     22 C16         5.7882   -2.2812   -7.1001 C.ar      1 <0>        -0.0406
     23 C17         6.1350   -1.8042   -8.3665 C.ar      1 <0>        -0.0561
     24 C18         7.3568   -2.1344   -8.9137 C.ar      1 <0>        -0.1471
     25 C19         8.2399   -2.9383   -8.2101 C.ar      1 <0>         0.1131
     26 C20         7.9012   -3.4146   -6.9533 C.ar      1 <0>        -0.1492
     27 C21         6.6848   -3.0860   -6.3932 C.ar      1 <0>        -0.0767
     28 F1          9.4352   -3.2593   -8.7516 F         1 <0>        -0.1334
     29 H2          1.0971    2.8954   -0.4674 H         1 <0>         0.0810
     30 H3         -0.4683    2.7703   -1.3054 H         1 <0>         0.1130
     31 H4         -0.4189    2.9788    0.4616 H         1 <0>         0.1087
     32 H5         -0.8802   -0.0546   -2.7549 H         1 <0>         0.1468
     33 H6          0.2554   -0.8725   -4.7775 H         1 <0>         0.1457
     34 H7          4.0251   -0.5889   -2.7522 H         1 <0>         0.1204
     35 H8          2.8708    0.2356   -0.7429 H         1 <0>         0.1321
     36 H9          4.3583   -4.1127   -8.4536 H         1 <0>         0.1329
     37 H10         3.8834   -4.7962  -10.7681 H         1 <0>         0.1577
     38 H11         1.1696   -1.6933  -11.2591 H         1 <0>         0.1590
     39 H12         1.5402   -0.9072   -8.9580 H         1 <0>         0.1385
     40 H13         5.4474   -1.1783   -8.9159 H         1 <0>         0.1360
     41 H14         7.6261   -1.7662   -9.8926 H         1 <0>         0.1436
     42 H15         8.5933   -4.0406   -6.4097 H         1 <0>         0.1423
     43 H16         6.4240   -3.4537   -5.4118 H         1 <0>         0.1327
@<TRIPOS>BOND
     1    1    2 1
     2    1   29 1
     3    1   30 1
     4    1   31 1
     5    2    3 2
     6    2    4 1
     7    4    9 ar
     8    4    5 ar
     9    5    6 ar
    10    5   32 1
    11    6    7 ar
    12    6   33 1
    13    7    8 ar
    14    7   10 1
    15    8    9 ar
    16    8   34 1
    17    9   35 1
    18   10   15 2
    19   10   11 1
    20   11   12 1
    21   11   13 1
    22   13   14 2
    23   13   22 1
    24   14   15 1
    25   14   16 1
    26   16   21 ar
    27   16   17 ar
    28   17   18 ar
    29   17   36 1
    30   18   19 ar
    31   18   37 1
    32   19   20 ar
    33   20   21 ar
    34   20   38 1
    35   21   39 1
    36   22   27 ar
    37   22   23 ar
    38   23   24 ar
    39   23   40 1
    40   24   25 ar
    41   24   41 1
    42   25   26 ar
    43   25   28 1
    44   26   27 ar
    45   26   42 1
    46   27   43 1
@<TRIPOS>MOLECULE
ZINC24044436
   76    80     0     0     0
SMALL
USER_CHARGES
1-[5-tert-butyl-2-(p-tolyl)pyrazol-3-yl]-3-[4-(2-morpholinoethoxy)-1-naphthyl]urea
@<TRIPOS>ATOM
      1 C1          3.3307    9.5387   -0.3298 C.3       1 <0>        -0.1193
      2 C2          2.0898    8.6848   -0.2813 C.ar      1 <0>        -0.0892
      3 C3          0.9612    9.0673   -0.9828 C.ar      1 <0>        -0.0934
      4 C4         -0.1775    8.2868   -0.9403 C.ar      1 <0>        -0.1062
      5 C5         -0.1884    7.1174   -0.1919 C.ar      1 <0>         0.1564
      6 C6          0.9444    6.7392    0.5163 C.ar      1 <0>        -0.1500
      7 C7          2.0821    7.5207    0.4649 C.ar      1 <0>        -0.0924
      8 N1         -1.3424    6.3233   -0.1469 N.pl3     1 <0>        -0.3448
      9 C8         -1.3788    4.9645   -0.0790 C.2       1 <0>         0.3309
     10 C9         -2.6878    4.5925   -0.0483 C.2       1 <0>        -0.2629
     11 C10        -3.4651    5.7529   -0.1047 C.2       1 <0>         0.1115
     12 N2         -2.6643    6.7861   -0.1672 N.2       1 <0>        -0.2779
     13 C11        -4.9712    5.8052   -0.0954 C.3       1 <0>         0.0134
     14 C12        -5.4824    5.5257    1.3193 C.3       1 <0>        -0.1388
     15 C13        -5.4360    7.1933   -0.5406 C.3       1 <0>        -0.1390
     16 C14        -5.5242    4.7499   -1.0553 C.3       1 <0>        -0.1399
     17 N3         -0.2771    4.1104   -0.0417 N.am      1 <0>        -0.6731
     18 C15        -0.4603    2.7771    0.0314 C.2       1 <0>         0.7165
     19 O1         -1.5862    2.3190    0.0649 O.2       1 <0>        -0.5445
     20 N4          0.6045    1.9516    0.0675 N.am      1 <0>        -0.6819
     21 C16         0.4162    0.5655    0.0407 C.ar      1 <0>         0.1254
     22 C17        -0.6813    0.0024    0.6542 C.ar      1 <0>        -0.0743
     23 C18        -0.8835   -1.3742    0.6299 C.ar      1 <0>        -0.2061
     24 C19         0.0048   -2.2051    0.0082 C.ar      1 <0>         0.1395
     25 C20         1.1426   -1.6672   -0.6254 C.ar      1 <0>        -0.0565
     26 C21         1.3517   -0.2661   -0.6096 C.ar      1 <0>        -0.0251
     27 C22         2.4862    0.2686   -1.2409 C.ar      1 <0>        -0.1232
     28 C23         3.3687   -0.5639   -1.8588 C.ar      1 <0>        -0.0971
     29 C24         3.1636   -1.9422   -1.8742 C.ar      1 <0>        -0.1313
     30 C25         2.0750   -2.4951   -1.2724 C.ar      1 <0>        -0.0739
     31 O2         -0.2080   -3.5475    0.0012 O.3       1 <0>        -0.2916
     32 C26        -1.3823   -4.0216    0.6634 C.3       1 <0>         0.0605
     33 C27        -1.4510   -5.5459    0.5508 C.3       1 <0>         0.0539
     34 N5         -0.3065   -6.1409    1.2538 N.3       1 <0>        -0.5287
     35 C28        -0.1978   -7.5776    0.9617 C.3       1 <0>         0.0167
     36 C29         1.0390   -8.1436    1.6645 C.3       1 <0>         0.0615
     37 O3          0.9456   -7.8818    3.0674 O.3       1 <0>        -0.3849
     38 C30         0.8389   -6.4921    3.3879 C.3       1 <0>         0.0625
     39 C31        -0.3999   -5.9094    2.7026 C.3       1 <0>         0.0120
     40 H1          3.1476   10.4156   -0.9682 H         1 <0>         0.0687
     41 H2          4.1639    8.9515   -0.7434 H         1 <0>         0.0732
     42 H3          3.5863    9.8722    0.6868 H         1 <0>         0.0734
     43 H4          0.9703    9.9770   -1.5648 H         1 <0>         0.1335
     44 H5         -1.0587    8.5861   -1.4884 H         1 <0>         0.1355
     45 H6          0.9374    5.8324    1.1029 H         1 <0>         0.1262
     46 H7          2.9651    7.2245    1.0118 H         1 <0>         0.1343
     47 H8         -3.0598    3.5802    0.0092 H         1 <0>         0.1784
     48 H9         -6.5817    5.5639    1.3261 H         1 <0>         0.0656
     49 H10        -5.0849    6.2845    2.0094 H         1 <0>         0.0565
     50 H11        -5.1481    4.5278    1.6395 H         1 <0>         0.0614
     51 H12        -6.5353    7.2315   -0.5338 H         1 <0>         0.0604
     52 H13        -5.0684    7.3943   -1.5577 H         1 <0>         0.0568
     53 H14        -5.0385    7.9519    0.1496 H         1 <0>         0.0614
     54 H15        -6.6235    4.7882   -1.0484 H         1 <0>         0.0647
     55 H16        -5.1900    3.7520   -0.7351 H         1 <0>         0.0637
     56 H17        -5.1566    4.9509   -2.0724 H         1 <0>         0.0570
     57 H18         0.7414    4.5248   -0.0719 H         1 <0>         0.4294
     58 H19         1.6215    2.3677    0.1180 H         1 <0>         0.4280
     59 H20        -1.3959    0.6376    1.1566 H         1 <0>         0.1450
     60 H21        -1.7537   -1.7925    1.1139 H         1 <0>         0.1296
     61 H22         2.6580    1.3348   -1.2361 H         1 <0>         0.1222
     62 H23         4.2405   -0.1501   -2.3437 H         1 <0>         0.1243
     63 H24         3.8790   -2.5810   -2.3706 H         1 <0>         0.1250
     64 H25         1.9286   -3.5650   -1.2926 H         1 <0>         0.1353
     65 H26        -1.3465   -3.7335    1.7244 H         1 <0>         0.0659
     66 H27        -2.2726   -3.5787    0.1931 H         1 <0>         0.0716
     67 H28        -2.3868   -5.9052    1.0039 H         1 <0>         0.0605
     68 H29        -1.4216   -5.8370   -0.5096 H         1 <0>         0.0912
     69 H30        -1.0977   -8.0949    1.3258 H         1 <0>         0.0437
     70 H31        -0.1044   -7.7249   -0.1244 H         1 <0>         0.0891
     71 H32         1.0925   -9.2291    1.4949 H         1 <0>         0.1001
     72 H33         1.9424   -7.6643    1.2595 H         1 <0>         0.0618
     73 H34         0.7475   -6.3731    4.4776 H         1 <0>         0.0994
     74 H35         1.7375   -5.9645    3.0355 H         1 <0>         0.0616
     75 H36        -0.4553   -4.8284    2.8983 H         1 <0>         0.0869
     76 H37        -1.3031   -6.3997    3.0948 H         1 <0>         0.0443
@<TRIPOS>BOND
     1    1    2 1
     2    1   40 1
     3    1   41 1
     4    1   42 1
     5    2    7 ar
     6    2    3 ar
     7    3    4 ar
     8    3   43 1
     9    4    5 ar
    10    4   44 1
    11    5    6 ar
    12    5    8 1
    13    6    7 ar
    14    6   45 1
    15    7   46 1
    16    8   12 1
    17    8    9 1
    18    9   10 2
    19    9   17 1
    20   10   11 1
    21   10   47 1
    22   11   12 2
    23   11   13 1
    24   13   14 1
    25   13   15 1
    26   13   16 1
    27   14   48 1
    28   14   49 1
    29   14   50 1
    30   15   51 1
    31   15   52 1
    32   15   53 1
    33   16   54 1
    34   16   55 1
    35   16   56 1
    36   17   18 am
    37   17   57 1
    38   18   19 2
    39   18   20 am
    40   20   21 1
    41   20   58 1
    42   21   26 ar
    43   21   22 ar
    44   22   23 ar
    45   22   59 1
    46   23   24 ar
    47   23   60 1
    48   24   25 ar
    49   24   31 1
    50   25   30 ar
    51   25   26 ar
    52   26   27 ar
    53   27   28 ar
    54   27   61 1
    55   28   29 ar
    56   28   62 1
    57   29   30 ar
    58   29   63 1
    59   30   64 1
    60   31   32 1
    61   32   33 1
    62   32   65 1
    63   32   66 1
    64   33   34 1
    65   33   67 1
    66   33   68 1
    67   34   39 1
    68   34   35 1
    69   35   36 1
    70   35   69 1
    71   35   70 1
    72   36   37 1
    73   36   71 1
    74   36   72 1
    75   37   38 1
    76   38   39 1
    77   38   73 1
    78   38   74 1
    79   39   75 1
    80   39   76 1
@<TRIPOS>MOLECULE
ZINC00171669
   37    39     0     0     0
SMALL
USER_CHARGES
1-(3-chlorophenyl)-6,7-dimethoxy-3,4-dihydroisoquinoline
@<TRIPOS>ATOM
      1 C1          5.9678   -6.3483   -0.9527 C.3       1 <0>         0.0235
      2 O1          6.0655   -4.9832   -0.5416 O.3       1 <0>        -0.3015
      3 C2          4.9023   -4.2932   -0.4123 C.ar      1 <0>         0.1230
      4 C3          3.6921   -4.9216   -0.6768 C.ar      1 <0>        -0.1712
      5 C4          2.5141   -4.2231   -0.5465 C.ar      1 <0>        -0.0555
      6 C5          2.5335   -2.8828   -0.1547 C.ar      1 <0>        -0.1075
      7 C6          3.7458   -2.2513    0.1174 C.ar      1 <0>        -0.1379
      8 C7          4.9280   -2.9577   -0.0152 C.ar      1 <0>         0.0947
      9 O2          6.1161   -2.3483    0.2427 O.3       1 <0>        -0.3032
     10 C8          6.0685   -0.9780    0.6453 C.3       1 <0>         0.0232
     11 C9          1.2480   -2.1627   -0.0210 C.2       1 <0>         0.2523
     12 N1          0.1404   -2.8387    0.0845 N.2       1 <0>        -0.5014
     13 C10         0.1245   -4.2976    0.1076 C.3       1 <0>         0.0413
     14 C11         1.1859   -4.8766   -0.8261 C.3       1 <0>        -0.1075
     15 C12         1.2207   -0.6816   -0.0132 C.ar      1 <0>        -0.0378
     16 C13         2.1695    0.0400   -0.7379 C.ar      1 <0>        -0.0964
     17 C14         2.1398    1.4193   -0.7269 C.ar      1 <0>        -0.1092
     18 C15         1.1716    2.0877    0.0009 C.ar      1 <0>        -0.0965
     19 C16         0.2270    1.3778    0.7223 C.ar      1 <0>        -0.0389
     20 C17         0.2468   -0.0033    0.7188 C.ar      1 <0>        -0.0675
     21 Cl1        -0.9887    2.2247    1.6270 Cl        1 <0>        -0.0631
     22 H1          5.3762   -6.9051   -0.2259 H         1 <0>         0.0570
     23 H2          5.4863   -6.4002   -1.9292 H         1 <0>         0.0573
     24 H3          6.9662   -6.7810   -1.0164 H         1 <0>         0.1042
     25 H4          3.6759   -5.9568   -0.9839 H         1 <0>         0.1422
     26 H5          3.7629   -1.2162    0.4254 H         1 <0>         0.1471
     27 H6          7.0815   -0.6149    0.8189 H         1 <0>         0.1041
     28 H7          5.5994   -0.3848   -0.1396 H         1 <0>         0.0565
     29 H8          5.4884   -0.8892    1.5638 H         1 <0>         0.0563
     30 H9          0.3172   -4.6409    1.1240 H         1 <0>         0.0828
     31 H10        -0.8578   -4.6492   -0.2079 H         1 <0>         0.1007
     32 H11         1.2678   -5.9509   -0.6608 H         1 <0>         0.0903
     33 H12         0.8999   -4.6896   -1.8612 H         1 <0>         0.0853
     34 H13         2.9258   -0.4803   -1.3069 H         1 <0>         0.1348
     35 H14         2.8741    1.9785   -1.2877 H         1 <0>         0.1386
     36 H15         1.1525    3.1675    0.0064 H         1 <0>         0.1373
     37 H16        -0.4905   -0.5566    1.2814 H         1 <0>         0.1426
@<TRIPOS>BOND
     1    1    2 1
     2    1   22 1
     3    1   23 1
     4    1   24 1
     5    2    3 1
     6    3    8 ar
     7    3    4 ar
     8    4    5 ar
     9    4   25 1
    10    5   14 1
    11    5    6 ar
    12    6    7 ar
    13    6   11 1
    14    7    8 ar
    15    7   26 1
    16    8    9 1
    17    9   10 1
    18   10   27 1
    19   10   28 1
    20   10   29 1
    21   11   12 2
    22   11   15 1
    23   12   13 1
    24   13   14 1
    25   13   30 1
    26   13   31 1
    27   14   32 1
    28   14   33 1
    29   15   20 ar
    30   15   16 ar
    31   16   17 ar
    32   16   34 1
    33   17   18 ar
    34   17   35 1
    35   18   19 ar
    36   18   36 1
    37   19   20 ar
    38   19   21 1
    39   20   37 1
@<TRIPOS>MOLECULE
ZINC49033748
   63    67     0     0     0
SMALL
USER_CHARGES

@<TRIPOS>ATOM
      1 C1         -0.0855    1.2497   -0.1643 C.ar      1 <0>        -0.0845
      2 C2          0.4257    0.7932    1.0372 C.ar      1 <0>        -0.1165
      3 C3          1.6483    0.1538    1.0715 C.ar      1 <0>        -0.0746
      4 C4          2.3680   -0.0317   -0.1074 C.ar      1 <0>        -0.0632
      5 C5          1.8481    0.4303   -1.3151 C.ar      1 <0>        -0.0761
      6 C6          0.6245    1.0684   -1.3375 C.ar      1 <0>        -0.1162
      7 C7          3.6828   -0.7178   -0.0769 C.2       1 <0>         0.1815
      8 C8          4.0282   -1.9110    0.7067 C.2       1 <0>        -0.1385
      9 C9          5.3292   -2.1981    0.4364 C.2       1 <0>         0.0285
     10 O1          5.7888   -1.2899   -0.4323 O.3       1 <0>        -0.0588
     11 N1          4.7553   -0.3782   -0.7480 N.2       1 <0>        -0.2574
     12 C10         6.1190   -3.3429    1.0165 C.3       1 <0>         0.0732
     13 N2          5.9786   -4.5224    0.1521 N.4       1 <0>        -0.3819
     14 C11         4.5791   -4.9648    0.1540 C.3       1 <0>        -0.0166
     15 C12         4.4113   -6.1431   -0.8077 C.3       1 <0>        -0.1415
     16 C13         5.3133   -7.2956   -0.3565 C.3       1 <0>        -0.1387
     17 C14         6.7614   -6.8018   -0.2907 C.3       1 <0>        -0.1448
     18 C15         6.8420   -5.5990    0.6519 C.3       1 <0>        -0.0067
     19 C16         3.1310   -2.6581    1.6175 C.ar      1 <0>         0.2594
     20 C17         1.8436   -3.0203    1.2072 C.ar      1 <0>        -0.2685
     21 C18         1.0422   -3.7169    2.0918 C.ar      1 <0>         0.2097
     22 N3          1.5124   -4.0191    3.2926 N.ar      1 <0>        -0.5503
     23 C19         2.7362   -3.6636    3.6555 C.ar      1 <0>         0.5753
     24 N4          3.5391   -3.0005    2.8381 N.ar      1 <0>        -0.5742
     25 N5          3.1886   -3.9989    4.9199 N.pl3     1 <0>        -0.6882
     26 C20         2.3176   -4.7374    5.8376 C.3       1 <0>         0.1599
     27 C21         1.4114   -3.7550    6.5823 C.3       1 <0>        -0.1280
     28 C22         0.5018   -4.5263    7.5407 C.3       1 <0>        -0.1172
     29 C23         1.3581   -5.2950    8.5490 C.3       1 <0>        -0.1254
     30 C24         2.2643   -6.2774    7.8044 C.3       1 <0>        -0.1156
     31 C25         3.1740   -5.5061    6.8460 C.3       1 <0>        -0.1266
     32 H1         -1.0447    1.7456   -0.1872 H         1 <0>         0.1351
     33 H2         -0.1328    0.9377    1.9502 H         1 <0>         0.1339
     34 H3          2.0467   -0.2019    2.0102 H         1 <0>         0.1204
     35 H4          2.4018    0.2896   -2.2316 H         1 <0>         0.1310
     36 H5          0.2206    1.4268   -2.2729 H         1 <0>         0.1370
     37 H6          7.1704   -3.0630    1.0813 H         1 <0>         0.1612
     38 H7          5.7430   -3.5758    2.0127 H         1 <0>         0.1685
     39 H8          4.2979   -5.2749    1.1604 H         1 <0>         0.1253
     40 H9          3.9381   -4.1426   -0.1643 H         1 <0>         0.1255
     41 H10         3.3719   -6.4713   -0.8035 H         1 <0>         0.1133
     42 H11         4.6920   -5.8340   -1.8146 H         1 <0>         0.0903
     43 H12         5.0001   -7.6390    0.6294 H         1 <0>         0.0814
     44 H13         5.2402   -8.1164   -1.0699 H         1 <0>         0.0973
     45 H14         7.4017   -7.6007    0.0831 H         1 <0>         0.1163
     46 H15         7.0908   -6.5063   -1.2868 H         1 <0>         0.0906
     47 H16         7.8718   -5.2451    0.7012 H         1 <0>         0.1368
     48 H17         6.5126   -5.8956    1.6477 H         1 <0>         0.1308
     49 H18         1.4842   -2.7612    0.2223 H         1 <0>         0.1482
     50 H19         0.0430   -4.0116    1.8071 H         1 <0>         0.1770
     51 H20         4.0824   -3.7448    5.1984 H         1 <0>         0.4129
     52 H21         1.7051   -5.4392    5.2715 H         1 <0>         0.0950
     53 H22         2.0239   -3.0532    7.1484 H         1 <0>         0.0626
     54 H23         0.8013   -3.2074    5.8640 H         1 <0>         0.0661
     55 H24        -0.1438   -3.8264    8.0712 H         1 <0>         0.0676
     56 H25        -0.1107   -5.2281    6.9746 H         1 <0>         0.0662
     57 H26         1.9706   -4.5932    9.1151 H         1 <0>         0.0638
     58 H27         0.7101   -5.8445    9.2318 H         1 <0>         0.0683
     59 H28         2.8744   -6.8250    8.5227 H         1 <0>         0.0707
     60 H29         1.6518   -6.9791    7.2383 H         1 <0>         0.0665
     61 H30         3.8196   -6.2060    6.3154 H         1 <0>         0.0666
     62 H31         3.7865   -4.8043    7.4120 H         1 <0>         0.0693
     63 H32         6.2522   -4.2827   -0.7891 H         1 <0>         0.4269
@<TRIPOS>BOND
     1    1    6 ar
     2    1    2 ar
     3    1   32 1
     4    2    3 ar
     5    2   33 1
     6    3    4 ar
     7    3   34 1
     8    4    5 ar
     9    4    7 1
    10    5    6 ar
    11    5   35 1
    12    6   36 1
    13    7   11 2
    14    7    8 1
    15    8    9 2
    16    8   19 1
    17    9   10 1
    18    9   12 1
    19   10   11 1
    20   12   13 1
    21   12   37 1
    22   12   38 1
    23   13   18 1
    24   13   14 1
    25   13   63 1
    26   14   15 1
    27   14   39 1
    28   14   40 1
    29   15   16 1
    30   15   41 1
    31   15   42 1
    32   16   17 1
    33   16   43 1
    34   16   44 1
    35   17   18 1
    36   17   45 1
    37   17   46 1
    38   18   47 1
    39   18   48 1
    40   19   24 ar
    41   19   20 ar
    42   20   21 ar
    43   20   49 1
    44   21   22 ar
    45   21   50 1
    46   22   23 ar
    47   23   24 ar
    48   23   25 1
    49   25   26 1
    50   25   51 1
    51   26   31 1
    52   26   27 1
    53   26   52 1
    54   27   28 1
    55   27   53 1
    56   27   54 1
    57   28   29 1
    58   28   55 1
    59   28   56 1
    60   29   30 1
    61   29   57 1
    62   29   58 1
    63   30   31 1
    64   30   59 1
    65   30   60 1
    66   31   61 1
    67   31   62 1
@<TRIPOS>MOLECULE
ZINC49068170
   50    53     0     0     0
SMALL
USER_CHARGES

@<TRIPOS>ATOM
      1 C1         -0.0169    1.3938    0.0097 C.ar      1 <0>        -0.2943
      2 C2          1.1896    2.0690    0.0018 C.ar      1 <0>         0.1981
      3 N1          2.3189    1.3778   -0.0127 N.ar      1 <0>        -0.5760
      4 C3          2.3077    0.0526   -0.0197 C.ar      1 <0>         0.5760
      5 N2          1.1755   -0.6332   -0.0130 N.ar      1 <0>        -0.5706
      6 C4          0.0021   -0.0041    0.0020 C.ar      1 <0>         0.3099
      7 C5         -1.2644   -0.7738    0.0105 C.2       1 <0>        -0.2097
      8 C6         -2.5269   -0.2521    0.0198 C.2       1 <0>         0.1051
      9 N3         -3.3933   -1.2824    0.0247 N.pl3     1 <0>        -0.4654
     10 H1         -4.3607   -1.2113    0.0313 H         1 <0>         0.4462
     11 N4         -2.6585   -2.4740    0.0183 N.2       1 <0>        -0.2903
     12 C7         -1.3864   -2.1782    0.0041 C.2       1 <0>         0.1317
     13 C8         -0.2481   -3.1657   -0.0120 C.3       1 <0>        -0.0570
     14 H2          0.7002   -2.6283   -0.0181 H         1 <0>         0.1359
     15 C9         -0.3482   -4.0418   -1.2645 C.3       1 <0>        -0.1100
     16 C10         0.7672   -5.0911   -1.2306 C.3       1 <0>        -0.1534
     17 C11         0.6509   -5.9067    0.0598 C.3       1 <0>         0.0577
     18 O1          0.7206   -5.0283    1.1848 O.3       1 <0>        -0.3780
     19 C12        -0.3243   -4.0546    1.2321 C.3       1 <0>         0.0745
     20 N5          3.5106   -0.6319   -0.0349 N.pl3     1 <0>        -0.6952
     21 C13         4.7747    0.1086   -0.0429 C.3       1 <0>         0.1621
     22 C14         5.1375    0.4825   -1.4815 C.3       1 <0>        -0.1249
     23 C15         6.4576    1.2559   -1.4899 C.3       1 <0>        -0.1090
     24 C16         7.5642    0.3823   -0.8955 C.3       1 <0>         0.1025
     25 C17         7.2014    0.0084    0.5430 C.3       1 <0>        -0.1468
     26 C18         5.8812   -0.7650    0.5515 C.3       1 <0>        -0.1259
     27 O2          8.7972    1.1046   -0.9034 O.3       1 <0>        -0.5678
     28 H3         -0.9521    1.9336    0.0260 H         1 <0>         0.1392
     29 H4          1.2108    3.1488    0.0071 H         1 <0>         0.1663
     30 H5         -2.7834    0.7970    0.0233 H         1 <0>         0.1871
     31 H6         -1.3173   -4.5403   -1.2843 H         1 <0>         0.0661
     32 H7         -0.2378   -3.4209   -2.1535 H         1 <0>         0.0660
     33 H8          0.6701   -5.7539   -2.0905 H         1 <0>         0.0746
     34 H9          1.7365   -4.5935   -1.2608 H         1 <0>         0.0732
     35 H10        -0.3018   -6.4362    0.0705 H         1 <0>         0.0503
     36 H11         1.4677   -6.6267    0.1096 H         1 <0>         0.0942
     37 H12        -0.2101   -3.4404    2.1253 H         1 <0>         0.0911
     38 H13        -1.2898   -4.5599    1.2593 H         1 <0>         0.0529
     39 H14         3.5167   -1.6019   -0.0401 H         1 <0>         0.4123
     40 H15         4.6684    1.0154    0.5524 H         1 <0>         0.0941
     41 H16         5.2438   -0.4243   -2.0769 H         1 <0>         0.0636
     42 H17         4.3491    1.1049   -1.9050 H         1 <0>         0.0746
     43 H18         6.7161    1.5223   -2.5148 H         1 <0>         0.0718
     44 H19         6.3513    2.1627   -0.8946 H         1 <0>         0.0734
     45 H20         7.6705   -0.5245   -1.4909 H         1 <0>         0.0553
     46 H21         7.9897   -0.6140    0.9665 H         1 <0>         0.0706
     47 H22         7.0951    0.9152    1.1384 H         1 <0>         0.0751
     48 H23         5.6228   -1.0314    1.5763 H         1 <0>         0.0742
     49 H24         5.9876   -1.6718   -0.0439 H         1 <0>         0.0701
     50 H25         9.5447    0.6106   -0.5399 H         1 <0>         0.3784
@<TRIPOS>BOND
     1    1    6 ar
     2    1    2 ar
     3    1   28 1
     4    2    3 ar
     5    2   29 1
     6    3    4 ar
     7    4    5 ar
     8    4   20 1
     9    5    6 ar
    10    6    7 1
    11    7   12 1
    12    7    8 2
    13    8    9 1
    14    8   30 1
    15    9   10 1
    16    9   11 1
    17   11   12 2
    18   12   13 1
    19   13   14 1
    20   13   19 1
    21   13   15 1
    22   15   16 1
    23   15   31 1
    24   15   32 1
    25   16   17 1
    26   16   33 1
    27   16   34 1
    28   17   18 1
    29   17   35 1
    30   17   36 1
    31   18   19 1
    32   19   37 1
    33   19   38 1
    34   20   21 1
    35   20   39 1
    36   21   26 1
    37   21   22 1
    38   21   40 1
    39   22   23 1
    40   22   41 1
    41   22   42 1
    42   23   24 1
    43   23   43 1
    44   23   44 1
    45   24   25 1
    46   24   27 1
    47   24   45 1
    48   25   26 1
    49   25   46 1
    50   25   47 1
    51   26   48 1
    52   26   49 1
    53   27   50 1
@<TRIPOS>MOLECULE
ZINC49068172
   50    53     0     0     0
SMALL
USER_CHARGES

@<TRIPOS>ATOM
      1 C1         -0.0169    1.3938    0.0097 C.ar      1 <0>        -0.2943
      2 C2          1.1896    2.0690    0.0018 C.ar      1 <0>         0.1981
      3 N1          2.3189    1.3778   -0.0127 N.ar      1 <0>        -0.5760
      4 C3          2.3077    0.0526   -0.0197 C.ar      1 <0>         0.5760
      5 N2          1.1755   -0.6332   -0.0130 N.ar      1 <0>        -0.5706
      6 C4          0.0021   -0.0041    0.0020 C.ar      1 <0>         0.3099
      7 C5         -1.2644   -0.7738    0.0105 C.2       1 <0>        -0.2097
      8 C6         -2.5269   -0.2521    0.0198 C.2       1 <0>         0.1051
      9 N3         -3.3933   -1.2824    0.0247 N.pl3     1 <0>        -0.4654
     10 H1         -4.3607   -1.2113    0.0313 H         1 <0>         0.4462
     11 N4         -2.6585   -2.4740    0.0183 N.2       1 <0>        -0.2903
     12 C7         -1.3864   -2.1782    0.0041 C.2       1 <0>         0.1317
     13 C8         -0.2481   -3.1657   -0.0120 C.3       1 <0>        -0.0570
     14 H2          0.7002   -2.6283   -0.0181 H         1 <0>         0.1359
     15 C9         -0.3244   -4.0551    1.2328 C.3       1 <0>        -0.1101
     16 C10         0.7901   -5.1039    1.1665 C.3       1 <0>        -0.1534
     17 C11         0.6491   -5.9057   -0.1300 C.3       1 <0>         0.0576
     18 O1          0.6975   -5.0154   -1.2468 O.3       1 <0>        -0.3780
     19 C12        -0.3481   -4.0413   -1.2638 C.3       1 <0>         0.0746
     20 N5          3.5106   -0.6319   -0.0349 N.pl3     1 <0>        -0.6952
     21 C13         4.7747    0.1086   -0.0429 C.3       1 <0>         0.1622
     22 C14         5.1375    0.4825   -1.4815 C.3       1 <0>        -0.1253
     23 C15         6.4576    1.2559   -1.4899 C.3       1 <0>        -0.1090
     24 C16         7.5642    0.3823   -0.8955 C.3       1 <0>         0.1024
     25 C17         7.2014    0.0084    0.5430 C.3       1 <0>        -0.1467
     26 C18         5.8812   -0.7650    0.5515 C.3       1 <0>        -0.1258
     27 O2          8.7972    1.1046   -0.9034 O.3       1 <0>        -0.5677
     28 H3         -0.9521    1.9336    0.0260 H         1 <0>         0.1392
     29 H4          1.2108    3.1488    0.0071 H         1 <0>         0.1663
     30 H5         -2.7834    0.7970    0.0233 H         1 <0>         0.1871
     31 H6         -0.1970   -3.4437    2.1262 H         1 <0>         0.0660
     32 H7         -1.2930   -4.5539    1.2658 H         1 <0>         0.0662
     33 H8          1.7598   -4.6065    1.1835 H         1 <0>         0.0732
     34 H9          0.7093   -5.7758    2.0209 H         1 <0>         0.0746
     35 H10         1.4648   -6.6250   -0.2031 H         1 <0>         0.0942
     36 H11        -0.3037   -6.4351   -0.1282 H         1 <0>         0.0504
     37 H12        -1.3139   -4.5463   -1.2779 H         1 <0>         0.0529
     38 H13        -0.2508   -3.4176   -2.1524 H         1 <0>         0.0911
     39 H14         3.5167   -1.6019   -0.0401 H         1 <0>         0.4123
     40 H15         4.6684    1.0154    0.5524 H         1 <0>         0.0940
     41 H16         5.2438   -0.4243   -2.0769 H         1 <0>         0.0643
     42 H17         4.3491    1.1049   -1.9050 H         1 <0>         0.0749
     43 H18         6.7161    1.5223   -2.5148 H         1 <0>         0.0720
     44 H19         6.3513    2.1627   -0.8946 H         1 <0>         0.0732
     45 H20         7.6705   -0.5245   -1.4909 H         1 <0>         0.0556
     46 H21         7.9897   -0.6140    0.9665 H         1 <0>         0.0704
     47 H22         7.0951    0.9152    1.1384 H         1 <0>         0.0750
     48 H23         5.6228   -1.0314    1.5763 H         1 <0>         0.0733
     49 H24         5.9876   -1.6718   -0.0439 H         1 <0>         0.0705
     50 H25         9.5447    0.6106   -0.5399 H         1 <0>         0.3783
@<TRIPOS>BOND
     1    1    6 ar
     2    1    2 ar
     3    1   28 1
     4    2    3 ar
     5    2   29 1
     6    3    4 ar
     7    4    5 ar
     8    4   20 1
     9    5    6 ar
    10    6    7 1
    11    7   12 1
    12    7    8 2
    13    8    9 1
    14    8   30 1
    15    9   10 1
    16    9   11 1
    17   11   12 2
    18   12   13 1
    19   13   14 1
    20   13   19 1
    21   13   15 1
    22   15   16 1
    23   15   31 1
    24   15   32 1
    25   16   17 1
    26   16   33 1
    27   16   34 1
    28   17   18 1
    29   17   35 1
    30   17   36 1
    31   18   19 1
    32   19   37 1
    33   19   38 1
    34   20   21 1
    35   20   39 1
    36   21   26 1
    37   21   22 1
    38   21   40 1
    39   22   23 1
    40   22   41 1
    41   22   42 1
    42   23   24 1
    43   23   43 1
    44   23   44 1
    45   24   25 1
    46   24   27 1
    47   24   45 1
    48   25   26 1
    49   25   46 1
    50   25   47 1
    51   26   48 1
    52   26   49 1
    53   27   50 1
@<TRIPOS>MOLECULE
ZINC30691792
   49    51     0     0     0
SMALL
USER_CHARGES
6-(2,4-difluorophenoxy)-2-[[3-hydroxy-1-(2-hydroxyethyl)propyl]amino]-8-methyl-pyrido[2,3-d]pyrimidin-7-one
@<TRIPOS>ATOM
      1 C1          4.8540   -2.9986    0.3688 C.3       1 <0>         0.0683
      2 N1          3.5707   -2.2985    0.2736 N.am      1 <0>        -0.4995
      3 C2          2.4049   -3.0209    0.2849 C.ar      1 <0>         0.4522
      4 C3          1.1663   -2.3495    0.1933 C.ar      1 <0>        -0.2637
      5 C4          1.1502   -0.8930    0.0880 C.2       1 <0>        -0.0905
      6 C5          2.3412   -0.2332    0.0821 C.2       1 <0>         0.0088
      7 C6          3.5538   -0.9577    0.1711 C.2       1 <0>         0.5622
      8 O1          4.6102   -0.3501    0.1597 O.2       1 <0>        -0.4932
      9 O2          2.3658    1.1229   -0.0150 O.3       1 <0>        -0.2185
     10 C7          1.1794    1.7863    0.0107 C.ar      1 <0>         0.0320
     11 C8          0.5956    2.2109   -1.1735 C.ar      1 <0>        -0.0597
     12 C9         -0.6071    2.8905   -1.1457 C.ar      1 <0>        -0.1491
     13 C10        -1.2361    3.1387    0.0626 C.ar      1 <0>         0.1407
     14 C11        -0.6563    2.7158    1.2465 C.ar      1 <0>        -0.1818
     15 C12         0.5505    2.0402    1.2232 C.ar      1 <0>         0.1250
     16 F1          1.1168    1.6272    2.3782 F         1 <0>        -0.1160
     17 F2         -2.4144    3.7992    0.0867 F         1 <0>        -0.1226
     18 C13        -0.0117   -3.1039    0.2059 C.ar      1 <0>         0.2539
     19 N2          0.0838   -4.4183    0.3034 N.ar      1 <0>        -0.5757
     20 C14         1.2660   -5.0175    0.3878 C.ar      1 <0>         0.6098
     21 N3          2.4068   -4.3447    0.3802 N.ar      1 <0>        -0.5977
     22 N4          1.3073   -6.3949    0.4880 N.pl3     1 <0>        -0.6963
     23 C15         0.0619   -7.1662    0.4994 C.3       1 <0>         0.1696
     24 C16         0.3365   -8.5858   -0.0008 C.3       1 <0>        -0.1274
     25 C17         0.7677   -8.5351   -1.4679 C.3       1 <0>         0.0867
     26 O3          1.0243   -9.8610   -1.9351 O.3       1 <0>        -0.6043
     27 C18        -0.4881   -7.2256    1.9259 C.3       1 <0>        -0.1310
     28 C19        -0.8795   -5.8181    2.3806 C.3       1 <0>         0.0963
     29 O4         -1.3932   -5.8736    3.7130 O.3       1 <0>        -0.6094
     30 H1          4.6761   -4.0814    0.4453 H         1 <0>         0.1086
     31 H2          5.3954   -2.6520    1.2614 H         1 <0>         0.0815
     32 H3          5.4540   -2.7881   -0.5288 H         1 <0>         0.0815
     33 H4          0.2175   -0.3531    0.0162 H         1 <0>         0.1480
     34 H5          1.0832    2.0143   -2.1169 H         1 <0>         0.1573
     35 H6         -1.0591    3.2249   -2.0678 H         1 <0>         0.1555
     36 H7         -1.1461    2.9137    2.1885 H         1 <0>         0.1592
     37 H8         -0.9764   -2.6234    0.1372 H         1 <0>         0.1809
     38 H9          2.2754   -6.9124    0.5592 H         1 <0>         0.4394
     39 H10        -0.6449   -6.6505   -0.1673 H         1 <0>         0.1005
     40 H11         1.1381   -9.0381    0.6016 H         1 <0>         0.0800
     41 H12        -0.5777   -9.1905    0.0920 H         1 <0>         0.0921
     42 H13        -0.0339   -8.0828   -2.0702 H         1 <0>         0.0420
     43 H14         1.6818   -7.9303   -1.5607 H         1 <0>         0.0426
     44 H15         1.3473  -10.0253   -2.9737 H         1 <0>         0.4126
     45 H16        -1.3731   -7.8783    1.9507 H         1 <0>         0.0829
     46 H17         0.2829   -7.6275    2.5997 H         1 <0>         0.0722
     47 H18         0.0056   -5.1654    2.3557 H         1 <0>         0.0338
     48 H19        -1.6505   -5.4162    1.7068 H         1 <0>         0.0533
     49 H20        -1.7283   -4.9524    4.2121 H         1 <0>         0.4072
@<TRIPOS>BOND
     1    1    2 1
     2    1   30 1
     3    1   31 1
     4    1   32 1
     5    2    7 am
     6    2    3 1
     7    3   21 ar
     8    3    4 ar
     9    4    5 1
    10    4   18 ar
    11    5    6 2
    12    5   33 1
    13    6    7 1
    14    6    9 1
    15    7    8 2
    16    9   10 1
    17   10   15 ar
    18   10   11 ar
    19   11   12 ar
    20   11   34 1
    21   12   13 ar
    22   12   35 1
    23   13   14 ar
    24   13   17 1
    25   14   15 ar
    26   14   36 1
    27   15   16 1
    28   18   19 ar
    29   18   37 1
    30   19   20 ar
    31   20   21 ar
    32   20   22 1
    33   22   23 1
    34   22   38 1
    35   23   24 1
    36   23   27 1
    37   23   39 1
    38   24   25 1
    39   24   40 1
    40   24   41 1
    41   25   26 1
    42   25   42 1
    43   25   43 1
    44   26   44 1
    45   27   28 1
    46   27   45 1
    47   27   46 1
    48   28   29 1
    49   28   47 1
    50   28   48 1
    51   29   49 1
@<TRIPOS>MOLECULE
ZINC36377992
   41    43     0     0     0
SMALL
USER_CHARGES

@<TRIPOS>ATOM
      1 C1         -0.4515    0.6754    0.2601 C.ar      1 <0>        -0.0384
      2 C2          0.6760    0.9916   -0.4750 C.ar      1 <0>        -0.1566
      3 C3          1.7918    0.1756   -0.4188 C.ar      1 <0>         0.1477
      4 C4          1.7785   -0.9629    0.3780 C.ar      1 <0>         0.0226
      5 C5          0.6435   -1.2771    1.1157 C.ar      1 <0>         0.1464
      6 C6         -0.4686   -0.4565    1.0540 C.ar      1 <0>        -0.1570
      7 F1          0.6257   -2.3831    1.8915 F         1 <0>        -0.1144
      8 N1          2.9080   -1.7932    0.4373 N.am      1 <0>        -0.5048
      9 C7          3.8916   -1.5617    1.3921 C.ar      1 <0>         0.4090
     10 C8          3.6937   -0.5728    2.3546 C.ar      1 <0>        -0.2052
     11 C9          4.6693   -0.3428    3.3021 C.ar      1 <0>        -0.0088
     12 C10         5.8358   -1.1196    3.2623 C.ar      1 <0>        -0.2080
     13 C11         5.9664   -2.1000    2.2617 C.ar      1 <0>         0.2617
     14 N2          4.9981   -2.2874    1.3759 N.ar      1 <0>        -0.4541
     15 C12         7.1899   -2.9309    2.2011 C.ar      1 <0>        -0.0596
     16 C13         7.2993   -4.0749    2.9922 C.ar      1 <0>        -0.0259
     17 C14         8.4405   -4.8460    2.9321 C.ar      1 <0>        -0.1576
     18 C15         9.4800   -4.4874    2.0872 C.ar      1 <0>         0.1374
     19 C16         9.3790   -3.3530    1.2992 C.ar      1 <0>        -0.1885
     20 C17         8.2371   -2.5757    1.3471 C.ar      1 <0>         0.1638
     21 F2          8.1362   -1.4722    0.5743 F         1 <0>        -0.1281
     22 F3         10.5957   -5.2473    2.0329 F         1 <0>        -0.1310
     23 C18         6.9076   -0.9123    4.2518 C.2       1 <0>         0.5688
     24 O1          7.9558   -1.5203    4.1492 O.2       1 <0>        -0.5180
     25 N3          6.7262   -0.0488    5.2707 N.am      1 <0>        -0.8501
     26 C19         3.0394   -2.8152   -0.4315 C.2       1 <0>         0.7040
     27 O2          4.0180   -3.5346   -0.3802 O.2       1 <0>        -0.5065
     28 N4          2.0858   -3.0396   -1.3572 N.am      1 <0>        -0.8545
     29 F4          2.8928    0.4848   -1.1381 F         1 <0>        -0.1138
     30 H1         -1.3196    1.3165    0.2175 H         1 <0>         0.1561
     31 H2          0.6857    1.8765   -1.0940 H         1 <0>         0.1561
     32 H3         -1.3511   -0.7001    1.6270 H         1 <0>         0.1561
     33 H4          2.7838    0.0089    2.3580 H         1 <0>         0.1421
     34 H5          4.5379    0.4183    4.0570 H         1 <0>         0.1497
     35 H6          6.4911   -4.3559    3.6512 H         1 <0>         0.1382
     36 H7          8.5253   -5.7313    3.5447 H         1 <0>         0.1450
     37 H8         10.1916   -3.0779    0.6432 H         1 <0>         0.1500
     38 H9          5.8902    0.4361    5.3525 H         1 <0>         0.3988
     39 H10         7.4318    0.0877    5.9221 H         1 <0>         0.4086
     40 H11         1.3050   -2.4656   -1.3981 H         1 <0>         0.3955
     41 H12         2.1804   -3.7751   -1.9825 H         1 <0>         0.4233
@<TRIPOS>BOND
     1    1    6 ar
     2    1    2 ar
     3    1   30 1
     4    2    3 ar
     5    2   31 1
     6    3    4 ar
     7    3   29 1
     8    4    5 ar
     9    4    8 1
    10    5    6 ar
    11    5    7 1
    12    6   32 1
    13    8    9 1
    14    8   26 am
    15    9   14 ar
    16    9   10 ar
    17   10   11 ar
    18   10   33 1
    19   11   12 ar
    20   11   34 1
    21   12   13 ar
    22   12   23 1
    23   13   14 ar
    24   13   15 1
    25   15   20 ar
    26   15   16 ar
    27   16   17 ar
    28   16   35 1
    29   17   18 ar
    30   17   36 1
    31   18   19 ar
    32   18   22 1
    33   19   20 ar
    34   19   37 1
    35   20   21 1
    36   23   24 2
    37   23   25 am
    38   25   38 1
    39   25   39 1
    40   26   27 2
    41   26   28 am
    42   28   40 1
    43   28   41 1
@<TRIPOS>MOLECULE
ZINC43175302
   57    60     0     0     0
SMALL
USER_CHARGES

@<TRIPOS>ATOM
      1 C1         -0.6600    0.0055    0.8437 C.3       1 <0>         0.1213
      2 N1          0.0171   -0.4221   -0.3830 N.pl3     1 <0>        -0.6379
      3 C2          1.4674   -0.2613   -0.5133 C.3       1 <0>         0.1201
      4 C3         -0.7140   -0.9783   -1.4198 C.2       1 <0>         0.3947
      5 C4         -0.9179   -2.3309   -1.6502 C.2       1 <0>        -0.2281
      6 C5         -1.7168   -2.4399   -2.8076 C.2       1 <0>         0.0871
      7 N2         -1.9742   -1.2364   -3.2412 N.2       1 <0>        -0.2869
      8 N3         -1.3665   -0.3051   -2.3918 N.pl3     1 <0>        -0.3657
      9 C6         -1.4252    1.1517   -2.5346 C.3       1 <0>         0.1730
     10 C7         -0.3295    1.6102   -3.4621 C.ar      1 <0>        -0.1168
     11 C8          0.8771    2.0439   -2.9454 C.ar      1 <0>        -0.0998
     12 C9          1.8821    2.4644   -3.7962 C.ar      1 <0>        -0.1236
     13 C10         1.6808    2.4508   -5.1637 C.ar      1 <0>        -0.1082
     14 C11         0.4746    2.0162   -5.6805 C.ar      1 <0>        -0.1224
     15 C12        -0.5289    1.5916   -4.8299 C.ar      1 <0>        -0.0888
     16 C13        -0.3954   -3.4487   -0.8357 C.ar      1 <0>         0.3167
     17 C14        -0.7599   -4.7698   -1.1238 C.ar      1 <0>        -0.2914
     18 C15        -0.2462   -5.7806   -0.3356 C.ar      1 <0>         0.1912
     19 N4          0.5701   -5.4742    0.6623 N.ar      1 <0>        -0.5822
     20 C16         0.8991   -4.2154    0.9135 C.ar      1 <0>         0.5693
     21 N5          0.4344   -3.2155    0.1807 N.ar      1 <0>        -0.5604
     22 N6          1.7549   -3.9393    1.9657 N.pl3     1 <0>        -0.6937
     23 C17         2.2846   -5.0321    2.7851 C.3       1 <0>         0.1633
     24 C18         1.2795   -5.3778    3.8856 C.3       1 <0>        -0.1268
     25 C19         1.0436   -4.1486    4.7655 C.3       1 <0>        -0.1102
     26 C20         2.3662   -3.7148    5.4007 C.3       1 <0>         0.1043
     27 C21         3.3714   -3.3690    4.3003 C.3       1 <0>        -0.1522
     28 C22         3.6072   -4.5983    3.4204 C.3       1 <0>        -0.1264
     29 O1          2.1459   -2.5667    6.2225 O.3       1 <0>        -0.5683
     30 H1         -0.4261    1.0515    1.0422 H         1 <0>         0.0476
     31 H2         -1.7372   -0.1094    0.7231 H         1 <0>         0.0577
     32 H3         -0.3205   -0.6074    1.6787 H         1 <0>         0.0529
     33 H4          1.8750    0.1287    0.4193 H         1 <0>         0.0693
     34 H5          1.9218   -1.2275   -0.7325 H         1 <0>         0.0527
     35 H6          1.6845    0.4345   -1.3238 H         1 <0>         0.0405
     36 H7         -2.0567   -3.3610   -3.2576 H         1 <0>         0.1882
     37 H8         -2.3931    1.4377   -2.9463 H         1 <0>         0.1030
     38 H9         -1.2935    1.6181   -1.5582 H         1 <0>         0.1008
     39 H10         1.0343    2.0545   -1.8770 H         1 <0>         0.1244
     40 H11         2.8245    2.8039   -3.3925 H         1 <0>         0.1242
     41 H12         2.4658    2.7800   -5.8284 H         1 <0>         0.1239
     42 H13         0.3172    2.0059   -6.7489 H         1 <0>         0.1250
     43 H14        -1.4700    1.2486   -5.2338 H         1 <0>         0.1257
     44 H15        -1.4274   -4.9928   -1.9429 H         1 <0>         0.1388
     45 H16        -0.5073   -6.8103   -0.5302 H         1 <0>         0.1630
     46 H17         2.0039   -3.0223    2.1605 H         1 <0>         0.4085
     47 H18         2.4526   -5.9078    2.1583 H         1 <0>         0.0942
     48 H19         0.3372   -5.6869    3.4330 H         1 <0>         0.0751
     49 H20         1.6736   -6.1909    4.4953 H         1 <0>         0.0727
     50 H21         0.6495   -3.3356    4.1558 H         1 <0>         0.0686
     51 H22         0.3275   -4.3949    5.5495 H         1 <0>         0.0673
     52 H23         2.7603   -4.5278    6.0104 H         1 <0>         0.0557
     53 H24         2.9772   -2.5560    3.6906 H         1 <0>         0.0682
     54 H25         4.3136   -3.0600    4.7528 H         1 <0>         0.0686
     55 H26         4.0013   -5.4113    4.0301 H         1 <0>         0.0818
     56 H27         4.3233   -4.3520    2.6364 H         1 <0>         0.0730
     57 H28         2.9434   -2.2360    6.6582 H         1 <0>         0.3775
@<TRIPOS>BOND
     1    1    2 1
     2    1   30 1
     3    1   31 1
     4    1   32 1
     5    2    3 1
     6    2    4 1
     7    3   33 1
     8    3   34 1
     9    3   35 1
    10    4    8 1
    11    4    5 2
    12    5    6 1
    13    5   16 1
    14    6    7 2
    15    6   36 1
    16    7    8 1
    17    8    9 1
    18    9   10 1
    19    9   37 1
    20    9   38 1
    21   10   15 ar
    22   10   11 ar
    23   11   12 ar
    24   11   39 1
    25   12   13 ar
    26   12   40 1
    27   13   14 ar
    28   13   41 1
    29   14   15 ar
    30   14   42 1
    31   15   43 1
    32   16   21 ar
    33   16   17 ar
    34   17   18 ar
    35   17   44 1
    36   18   19 ar
    37   18   45 1
    38   19   20 ar
    39   20   21 ar
    40   20   22 1
    41   22   23 1
    42   22   46 1
    43   23   28 1
    44   23   24 1
    45   23   47 1
    46   24   25 1
    47   24   48 1
    48   24   49 1
    49   25   26 1
    50   25   50 1
    51   25   51 1
    52   26   27 1
    53   26   29 1
    54   26   52 1
    55   27   28 1
    56   27   53 1
    57   27   54 1
    58   28   55 1
    59   28   56 1
    60   29   57 1
@<TRIPOS>MOLECULE
ZINC43175302
   58    61     0     0     0
SMALL
USER_CHARGES

@<TRIPOS>ATOM
      1 C1         -0.7841   -0.0119    0.4092 C.3       1 <0>         0.1078
      2 N1          0.3590   -0.3574   -0.4393 N.pl3     1 <0>        -0.6265
      3 C2          1.7236   -0.1946    0.0681 C.3       1 <0>         0.1073
      4 C3          0.1496   -0.8381   -1.7215 C.2       1 <0>         0.4987
      5 C4          0.1048   -2.1707   -2.1040 C.2       1 <0>        -0.1726
      6 C5         -0.1297   -2.1966   -3.4947 C.2       1 <0>         0.2208
      7 N2         -0.2193   -0.9652   -3.9169 N.pl3     1 <0>        -0.3719
      8 N3         -0.0549   -0.0971   -2.8318 N.pl3     1 <0>        -0.3283
      9 C6         -0.0948    1.3662   -2.8907 C.3       1 <0>         0.1459
     10 C7          1.3043    1.9005   -3.0587 C.ar      1 <0>        -0.1491
     11 C8          2.0261    2.3077   -1.9524 C.ar      1 <0>        -0.0879
     12 C9          3.3095    2.7978   -2.1065 C.ar      1 <0>        -0.1151
     13 C10         3.8712    2.8802   -3.3669 C.ar      1 <0>        -0.0875
     14 C11         3.1497    2.4721   -4.4731 C.ar      1 <0>        -0.1151
     15 C12         1.8679    1.9780   -4.3186 C.ar      1 <0>        -0.0972
     16 C13         0.2720   -3.3439   -1.2200 C.ar      1 <0>         0.2829
     17 C14         0.1056   -4.6411   -1.7205 C.ar      1 <0>        -0.2835
     18 C15         0.2724   -5.7057   -0.8569 C.ar      1 <0>         0.2086
     19 N4          0.5826   -5.4712    0.4099 N.ar      1 <0>        -0.5601
     20 C16         0.7344   -4.2336    0.8580 C.ar      1 <0>         0.5797
     21 N5          0.5890   -3.1838    0.0646 N.ar      1 <0>        -0.5554
     22 N6          1.0585   -4.0332    2.1886 N.pl3     1 <0>        -0.6838
     23 C17         1.2293   -5.1818    3.0818 C.3       1 <0>         0.1593
     24 C18        -0.1338   -5.6086    3.6301 C.3       1 <0>        -0.1279
     25 C19        -0.7577   -4.4472    4.4064 C.3       1 <0>        -0.1099
     26 C20         0.1599   -4.0584    5.5673 C.3       1 <0>         0.1023
     27 C21         1.5230   -3.6315    5.0191 C.3       1 <0>        -0.1523
     28 C22         2.1469   -4.7930    4.2428 C.3       1 <0>        -0.1280
     29 O1         -0.4229   -2.9736    6.2924 O.3       1 <0>        -0.5686
     30 H1         -0.9909    1.0549    0.3235 H         1 <0>         0.0530
     31 H2         -1.6586   -0.5784    0.0891 H         1 <0>         0.0668
     32 H3         -0.5534   -0.2551    1.4464 H         1 <0>         0.0888
     33 H4          2.0454   -1.1187    0.5483 H         1 <0>         0.0708
     34 H5          2.3939    0.0372   -0.7596 H         1 <0>         0.0618
     35 H6          1.7470    0.6188    0.7933 H         1 <0>         0.0808
     36 H7         -0.2192   -3.0831   -4.1051 H         1 <0>         0.2406
     37 H8         -0.7072    1.6793   -3.7363 H         1 <0>         0.1243
     38 H9         -0.5239    1.7555   -1.9675 H         1 <0>         0.1366
     39 H10         1.5873    2.2433   -0.9677 H         1 <0>         0.1292
     40 H11         3.8732    3.1166   -1.2422 H         1 <0>         0.1349
     41 H12         4.8736    3.2637   -3.4873 H         1 <0>         0.1346
     42 H13         3.5884    2.5368   -5.4579 H         1 <0>         0.1335
     43 H14         1.3056    1.6557   -5.1825 H         1 <0>         0.1211
     44 H15        -0.1476   -4.8052   -2.7575 H         1 <0>         0.1445
     45 H16         0.1510   -6.7190   -1.2103 H         1 <0>         0.1745
     46 H17         1.1725   -3.1324    2.5297 H         1 <0>         0.4117
     47 H18         1.6738   -6.0092    2.5288 H         1 <0>         0.0982
     48 H19        -0.7876   -5.8856    2.8031 H         1 <0>         0.0748
     49 H20        -0.0067   -6.4632    4.2947 H         1 <0>         0.0787
     50 H21        -0.8848   -3.5926    3.7418 H         1 <0>         0.0654
     51 H22        -1.7289   -4.7513    4.7970 H         1 <0>         0.0706
     52 H23         0.2870   -4.9129    6.2319 H         1 <0>         0.0588
     53 H24         1.3959   -2.7770    4.3545 H         1 <0>         0.0654
     54 H25         2.1767   -3.3545    5.8461 H         1 <0>         0.0722
     55 H26         2.2740   -5.6475    4.9073 H         1 <0>         0.0870
     56 H27         3.1180   -4.4889    3.8522 H         1 <0>         0.0746
     57 H28         0.1061   -2.6740    7.0444 H         1 <0>         0.3806
     58 H29        -0.3779   -0.6950   -4.8350 H         1 <0>         0.4734
@<TRIPOS>BOND
     1    1    2 1
     2    1   30 1
     3    1   31 1
     4    1   32 1
     5    2    3 1
     6    2    4 1
     7    3   33 1
     8    3   34 1
     9    3   35 1
    10    4    8 1
    11    4    5 2
    12    5    6 1
    13    5   16 1
    14    6    7 2
    15    6   36 1
    16    7    8 1
    17    7   58 1
    18    8    9 1
    19    9   10 1
    20    9   37 1
    21    9   38 1
    22   10   15 ar
    23   10   11 ar
    24   11   12 ar
    25   11   39 1
    26   12   13 ar
    27   12   40 1
    28   13   14 ar
    29   13   41 1
    30   14   15 ar
    31   14   42 1
    32   15   43 1
    33   16   21 ar
    34   16   17 ar
    35   17   18 ar
    36   17   44 1
    37   18   19 ar
    38   18   45 1
    39   19   20 ar
    40   20   21 ar
    41   20   22 1
    42   22   23 1
    43   22   46 1
    44   23   28 1
    45   23   24 1
    46   23   47 1
    47   24   25 1
    48   24   48 1
    49   24   49 1
    50   25   26 1
    51   25   50 1
    52   25   51 1
    53   26   27 1
    54   26   29 1
    55   26   52 1
    56   27   28 1
    57   27   53 1
    58   27   54 1
    59   28   55 1
    60   28   56 1
    61   29   57 1
@<TRIPOS>MOLECULE
ZINC58633224
   46    49     0     0     0
SMALL
USER_CHARGES

@<TRIPOS>ATOM
      1 C1          0.0061    1.4638   -0.3326 C.3       1 <0>         0.0692
      2 N1          0.0190    0.0075   -0.1738 N.am      1 <0>        -0.5030
      3 C2         -1.1667   -0.6667   -0.0299 C.ar      1 <0>         0.4666
      4 C3         -1.1578   -2.0702    0.1228 C.ar      1 <0>        -0.2897
      5 C4          0.1185   -2.7800    0.1246 C.2       1 <0>         0.0266
      6 C5          1.2608   -2.0539   -0.0224 C.2       1 <0>        -0.0441
      7 C6          1.1930   -0.6486   -0.1770 C.2       1 <0>         0.5312
      8 O1          2.2258   -0.0160   -0.3120 O.2       1 <0>        -0.5008
      9 O2          2.4679   -2.6800   -0.0252 O.3       1 <0>        -0.2141
     10 C7          3.3138   -2.4399    1.0118 C.ar      1 <0>         0.0835
     11 C8          2.8933   -1.6721    2.0874 C.ar      1 <0>        -0.1285
     12 C9          3.7539   -1.4288    3.1406 C.ar      1 <0>        -0.1228
     13 C10         5.0363   -1.9506    3.1236 C.ar      1 <0>         0.1014
     14 C11         5.4595   -2.7171    2.0511 C.ar      1 <0>        -0.1543
     15 C12         4.5987   -2.9680    0.9978 C.ar      1 <0>         0.1132
     16 F1          5.0091   -3.7209   -0.0463 F         1 <0>        -0.1197
     17 F2          5.8759   -1.7112    4.1546 F         1 <0>        -0.1289
     18 C13        -2.3773   -2.7400    0.2678 C.ar      1 <0>         0.2730
     19 N2         -3.4912   -2.0290    0.2558 N.ar      1 <0>        -0.5773
     20 C14        -3.4630   -0.7093    0.1100 C.ar      1 <0>         0.6155
     21 N3         -2.3328   -0.0330   -0.0304 N.ar      1 <0>        -0.5988
     22 N4         -4.6577   -0.0155    0.1047 N.pl3     1 <0>        -0.6787
     23 C15        -5.9240   -0.7362    0.2579 C.3       1 <0>         0.1569
     24 C16        -6.3937   -1.2433   -1.1090 C.3       1 <0>        -0.1664
     25 C17        -7.7549   -1.9259   -0.9512 C.3       1 <0>         0.0636
     26 O3         -8.6865   -1.0025   -0.3841 O.3       1 <0>        -0.3805
     27 C18        -8.3231   -0.5307    0.9149 C.3       1 <0>         0.0655
     28 C19        -6.9847    0.2080    0.8321 C.3       1 <0>        -0.1666
     29 H1          1.0285    1.8269   -0.4377 H         1 <0>         0.1019
     30 H2         -0.5663    1.7273   -1.2220 H         1 <0>         0.0817
     31 H3         -0.4534    1.9207    0.5438 H         1 <0>         0.0817
     32 H4          0.1553   -3.8532    0.2400 H         1 <0>         0.1638
     33 H5          1.8934   -1.2643    2.1017 H         1 <0>         0.1368
     34 H6          3.4261   -0.8305    3.9779 H         1 <0>         0.1472
     35 H7          6.4602   -3.1232    2.0391 H         1 <0>         0.1595
     36 H8         -2.4078   -3.8130    0.3864 H         1 <0>         0.1883
     37 H9         -4.6582    0.9487   -0.0006 H         1 <0>         0.4173
     38 H10        -5.7836   -1.5805    0.9329 H         1 <0>         0.0996
     39 H11        -6.4852   -0.4031   -1.7974 H         1 <0>         0.0736
     40 H12        -5.6706   -1.9589   -1.5002 H         1 <0>         0.0811
     41 H13        -8.1139   -2.2510   -1.9277 H         1 <0>         0.0988
     42 H14        -7.6542   -2.7901   -0.2946 H         1 <0>         0.0564
     43 H15        -9.0914    0.1493    1.2828 H         1 <0>         0.1015
     44 H16        -8.2298   -1.3766    1.5960 H         1 <0>         0.0563
     45 H17        -6.6842    0.5303    1.8290 H         1 <0>         0.0828
     46 H18        -7.0881    1.0775    0.1829 H         1 <0>         0.0799
@<TRIPOS>BOND
     1    1    2 1
     2    1   29 1
     3    1   30 1
     4    1   31 1
     5    2    7 am
     6    2    3 1
     7    3   21 ar
     8    3    4 ar
     9    4    5 1
    10    4   18 ar
    11    5    6 2
    12    5   32 1
    13    6    7 1
    14    6    9 1
    15    7    8 2
    16    9   10 1
    17   10   15 ar
    18   10   11 ar
    19   11   12 ar
    20   11   33 1
    21   12   13 ar
    22   12   34 1
    23   13   14 ar
    24   13   17 1
    25   14   15 ar
    26   14   35 1
    27   15   16 1
    28   18   19 ar
    29   18   36 1
    30   19   20 ar
    31   20   21 ar
    32   20   22 1
    33   22   23 1
    34   22   37 1
    35   23   28 1
    36   23   24 1
    37   23   38 1
    38   24   25 1
    39   24   39 1
    40   24   40 1
    41   25   26 1
    42   25   41 1
    43   25   42 1
    44   26   27 1
    45   27   28 1
    46   27   43 1
    47   27   44 1
    48   28   45 1
    49   28   46 1
@<TRIPOS>MOLECULE
ZINC02878998
   41    43     0     0     0
SMALL
USER_CHARGES
methyl 2-[2-(1-naphthyl)acetyl]aminobenzoate
@<TRIPOS>ATOM
      1 C1         -6.7305    9.1004   -0.9347 C.3       1 <0>         0.0364
      2 O1         -6.3712    8.3369   -2.1163 O.3       1 <0>        -0.3515
      3 C2         -5.6097    7.2411   -1.9285 C.2       1 <0>         0.5166
      4 O2         -5.2557    6.9320   -0.8080 O.2       1 <0>        -0.5146
      5 C3         -5.2064    6.4175   -3.0822 C.ar      1 <0>        -0.1666
      6 C4         -5.5148    6.8286   -4.3818 C.ar      1 <0>        -0.0419
      7 C5         -5.1345    6.0543   -5.4560 C.ar      1 <0>        -0.1499
      8 C6         -4.4463    4.8683   -5.2552 C.ar      1 <0>        -0.0595
      9 C7         -4.1302    4.4515   -3.9780 C.ar      1 <0>        -0.1378
     10 C8         -4.5098    5.2158   -2.8827 C.ar      1 <0>         0.2169
     11 N1         -4.1958    4.7948   -1.5930 N.am      1 <0>        -0.6659
     12 C9         -3.0346    4.1522   -1.3578 C.2       1 <0>         0.5166
     13 O3         -2.3008    3.8687   -2.2808 O.2       1 <0>        -0.5040
     14 C10        -2.6482    3.7859    0.0520 C.3       1 <0>        -0.1017
     15 C11        -1.3164    3.0809    0.0407 C.ar      1 <0>        -0.0592
     16 C12        -1.2622    1.7210    0.0125 C.ar      1 <0>        -0.1001
     17 C13        -0.0402    1.0517    0.0072 C.ar      1 <0>        -0.1150
     18 C14         1.1351    1.7384    0.0179 C.ar      1 <0>        -0.1018
     19 C15         1.1193    3.1431    0.0405 C.ar      1 <0>        -0.0516
     20 C16        -0.1239    3.8239    0.0519 C.ar      1 <0>        -0.0325
     21 C17        -0.1398    5.2291    0.0738 C.ar      1 <0>        -0.1082
     22 C18         1.0352    5.9156    0.0845 C.ar      1 <0>        -0.1128
     23 C19         2.2577    5.2462    0.0732 C.ar      1 <0>        -0.1173
     24 C20         2.3120    3.8866    0.0516 C.ar      1 <0>        -0.1042
     25 H1         -7.2935    8.4664   -0.2498 H         1 <0>         0.0655
     26 H2         -5.8251    9.4539   -0.4413 H         1 <0>         0.0652
     27 H3         -7.3425    9.9541   -1.2259 H         1 <0>         0.1050
     28 H4         -6.0504    7.7524   -4.5438 H         1 <0>         0.1422
     29 H5         -5.3736    6.3734   -6.4597 H         1 <0>         0.1347
     30 H6         -4.1521    4.2684   -6.1037 H         1 <0>         0.1348
     31 H7         -3.5900    3.5280   -3.8302 H         1 <0>         0.1496
     32 H8         -4.8127    4.9641   -0.8638 H         1 <0>         0.4219
     33 H9         -3.4050    3.1261    0.4763 H         1 <0>         0.1106
     34 H10        -2.5754    4.6906    0.6555 H         1 <0>         0.1112
     35 H11        -2.1803    1.1523   -0.0012 H         1 <0>         0.1223
     36 H12        -0.0252   -0.0281   -0.0102 H         1 <0>         0.1250
     37 H13         2.0748    1.2062    0.0087 H         1 <0>         0.1277
     38 H14        -1.0795    5.7613    0.0820 H         1 <0>         0.1208
     39 H15         1.0202    6.9954    0.1016 H         1 <0>         0.1221
     40 H16         3.1757    5.8151    0.0813 H         1 <0>         0.1235
     41 H17         3.2665    3.3815    0.0427 H         1 <0>         0.1276
@<TRIPOS>BOND
     1    1    2 1
     2    1   25 1
     3    1   26 1
     4    1   27 1
     5    2    3 1
     6    3    4 2
     7    3    5 1
     8    5   10 ar
     9    5    6 ar
    10    6    7 ar
    11    6   28 1
    12    7    8 ar
    13    7   29 1
    14    8    9 ar
    15    8   30 1
    16    9   10 ar
    17    9   31 1
    18   10   11 1
    19   11   12 am
    20   11   32 1
    21   12   13 2
    22   12   14 1
    23   14   15 1
    24   14   33 1
    25   14   34 1
    26   15   20 ar
    27   15   16 ar
    28   16   17 ar
    29   16   35 1
    30   17   18 ar
    31   17   36 1
    32   18   19 ar
    33   18   37 1
    34   19   24 ar
    35   19   20 ar
    36   20   21 ar
    37   21   22 ar
    38   21   38 1
    39   22   23 ar
    40   22   39 1
    41   23   24 ar
    42   23   40 1
    43   24   41 1
@<TRIPOS>MOLECULE
ZINC00475678
   36    37     0     0     0
SMALL
USER_CHARGES

@<TRIPOS>ATOM
      1 C1          0.0469    1.7094   -0.2119 C.3       1 <0>         0.0264
      2 O1          0.0515    0.2817   -0.1510 O.3       1 <0>        -0.3174
      3 C2          0.6457   -0.3778   -1.1799 C.ar      1 <0>         0.1315
      4 C3          1.2178    0.3346   -2.2239 C.ar      1 <0>        -0.2064
      5 C4          1.8217   -0.3382   -3.2684 C.ar      1 <0>        -0.0619
      6 C5          1.8559   -1.7204   -3.2742 C.ar      1 <0>        -0.1125
      7 C6          1.2860   -2.4328   -2.2351 C.ar      1 <0>        -0.0626
      8 C7          0.6864   -1.7645   -1.1852 C.ar      1 <0>        -0.1498
      9 C8          2.5149   -2.4518   -4.4152 C.3       1 <0>        -0.0937
     10 C9          3.9723   -2.6679   -4.0984 C.2       1 <0>         0.5156
     11 O2          4.4307   -2.2675   -3.0494 O.2       1 <0>        -0.4969
     12 N1          4.7662   -3.3062   -4.9808 N.am      1 <0>        -0.6472
     13 C10         6.1357   -3.4123   -4.7372 C.2       1 <0>         0.2417
     14 C11         6.7043   -3.0250   -3.5400 C.2       1 <0>        -0.2317
     15 C12         8.0411   -3.1565   -3.3735 C.2       1 <0>        -0.1879
     16 S1          8.5814   -3.8073   -4.8246 S.3       1 <0>         0.2618
     17 C13         7.0241   -3.9225   -5.6844 C.2       1 <0>        -0.3355
     18 C14         6.7585   -4.4037   -6.9880 C.2       1 <0>         0.5645
     19 O3          5.6191   -4.4053   -7.4156 O.2       1 <0>        -0.5202
     20 O4          7.7688   -4.8610   -7.7574 O.3       1 <0>        -0.3486
     21 C15         7.4282   -5.3318   -9.0629 C.3       1 <0>         0.0362
     22 H1          1.0733    2.0752   -0.2404 H         1 <0>         0.0563
     23 H2         -0.4792    2.0330   -1.1100 H         1 <0>         0.0562
     24 H3         -0.4570    2.1091    0.6682 H         1 <0>         0.1014
     25 H4          1.1907    1.4142   -2.2201 H         1 <0>         0.1292
     26 H5          2.2672    0.2159   -4.0813 H         1 <0>         0.1235
     27 H6          1.3137   -3.5124   -2.2421 H         1 <0>         0.1285
     28 H7          0.2453   -2.3213   -0.3717 H         1 <0>         0.1323
     29 H8          2.0273   -3.4161   -4.5585 H         1 <0>         0.1109
     30 H9          2.4249   -1.8602   -5.3262 H         1 <0>         0.1106
     31 H10         4.3854   -3.6919   -5.7853 H         1 <0>         0.4282
     32 H11         6.0909   -2.6223   -2.7476 H         1 <0>         0.1912
     33 H12         8.6281   -2.9003   -2.5040 H         1 <0>         0.1969
     34 H13         6.7260   -6.1612   -8.9783 H         1 <0>         0.0626
     35 H14         6.9691   -4.5237   -9.6323 H         1 <0>         0.0625
     36 H15         8.3297   -5.6698   -9.5739 H         1 <0>         0.1049
@<TRIPOS>BOND
     1    1    2 1
     2    1   22 1
     3    1   23 1
     4    1   24 1
     5    2    3 1
     6    3    8 ar
     7    3    4 ar
     8    4    5 ar
     9    4   25 1
    10    5    6 ar
    11    5   26 1
    12    6    7 ar
    13    6    9 1
    14    7    8 ar
    15    7   27 1
    16    8   28 1
    17    9   10 1
    18    9   29 1
    19    9   30 1
    20   10   11 2
    21   10   12 am
    22   12   13 1
    23   12   31 1
    24   13   17 2
    25   13   14 1
    26   14   15 2
    27   14   32 1
    28   15   16 1
    29   15   33 1
    30   16   17 1
    31   17   18 1
    32   18   19 2
    33   18   20 1
    34   20   21 1
    35   21   34 1
    36   21   35 1
    37   21   36 1
@<TRIPOS>MOLECULE
ZINC16470547
   35    36     0     0     0
SMALL
USER_CHARGES
methyl 3-[[2-[4-(trifluoromethyl)phenyl]acetyl]amino]thiophene-2-carboxylate
@<TRIPOS>ATOM
      1 C1         -1.6935    9.8290    2.0537 C.3       1 <0>         0.0363
      2 O1         -1.0011    8.9847    2.9756 O.3       1 <0>        -0.3485
      3 C2         -0.3721    7.9053    2.4645 C.2       1 <0>         0.5608
      4 O2         -0.4114    7.6881    1.2677 O.2       1 <0>        -0.5113
      5 C3          0.3328    7.0264    3.3202 C.2       1 <0>        -0.3017
      6 C4          1.0420    5.8688    3.0004 C.2       1 <0>         0.2319
      7 C5          1.6354    5.1957    4.0476 C.2       1 <0>        -0.1913
      8 C6          1.5116    5.6868    5.3059 C.2       1 <0>        -0.1534
      9 S1          0.5468    7.1103    5.0892 S.3       1 <0>         0.2090
     10 N1          1.1413    5.4111    1.6864 N.am      1 <0>        -0.6537
     11 C7          1.1877    4.0877    1.4355 C.2       1 <0>         0.5180
     12 O3          1.2160    3.2969    2.3545 O.2       1 <0>        -0.5024
     13 C8          1.2043    3.5907    0.0129 C.3       1 <0>        -0.1047
     14 C9          1.2572    2.0846    0.0076 C.ar      1 <0>        -0.0397
     15 C10         0.0850    1.3519    0.0059 C.ar      1 <0>        -0.1039
     16 C11         0.1335   -0.0296    0.0006 C.ar      1 <0>        -0.0672
     17 C12         1.3542   -0.6784   -0.0035 C.ar      1 <0>        -0.1801
     18 C13         2.5264    0.0544   -0.0018 C.ar      1 <0>        -0.0676
     19 C14         2.4779    1.4359    0.0035 C.ar      1 <0>        -0.1047
     20 C15         1.4071   -2.1844   -0.0092 C.3       1 <0>         0.5080
     21 F1          1.4217   -2.6455   -1.3300 F         1 <0>        -0.1761
     22 F2          2.5659   -2.6128    0.6471 F         1 <0>        -0.1763
     23 F3          0.2828   -2.6930    0.6498 F         1 <0>        -0.1763
     24 H1         -0.9889   10.2207    1.3201 H         1 <0>         0.0632
     25 H2         -2.4663    9.2536    1.5440 H         1 <0>         0.0628
     26 H3         -2.1533   10.6566    2.5938 H         1 <0>         0.1055
     27 H4          2.1953    4.2899    3.8674 H         1 <0>         0.1619
     28 H5          1.9144    5.2848    6.2238 H         1 <0>         0.1998
     29 H6          1.1771    6.0453    0.9533 H         1 <0>         0.4248
     30 H7          2.0806    3.9868   -0.5002 H         1 <0>         0.1156
     31 H8          0.3017    3.9243   -0.4991 H         1 <0>         0.1168
     32 H9         -0.8687    1.8587    0.0041 H         1 <0>         0.1343
     33 H10        -0.7822   -0.6021   -0.0007 H         1 <0>         0.1379
     34 H11         3.4801   -0.4524   -0.0042 H         1 <0>         0.1379
     35 H12         3.3936    2.0084    0.0052 H         1 <0>         0.1345
@<TRIPOS>BOND
     1    1    2 1
     2    1   24 1
     3    1   25 1
     4    1   26 1
     5    2    3 1
     6    3    4 2
     7    3    5 1
     8    5    9 1
     9    5    6 2
    10    6    7 1
    11    6   10 1
    12    7    8 2
    13    7   27 1
    14    8    9 1
    15    8   28 1
    16   10   11 am
    17   10   29 1
    18   11   12 2
    19   11   13 1
    20   13   14 1
    21   13   30 1
    22   13   31 1
    23   14   19 ar
    24   14   15 ar
    25   15   16 ar
    26   15   32 1
    27   16   17 ar
    28   16   33 1
    29   17   18 ar
    30   17   20 1
    31   18   19 ar
    32   18   34 1
    33   19   35 1
    34   20   21 1
    35   20   22 1
    36   20   23 1
@<TRIPOS>MOLECULE
ZINC15606685
   38    40     0     0     0
SMALL
USER_CHARGES
methyl 3-[[2-(2-naphthyl)acetyl]amino]thiophene-2-carboxylate
@<TRIPOS>ATOM
      1 C1          9.2350   -0.3762   -2.3534 C.3       1 <0>         0.0362
      2 O1          8.0885   -0.4793   -3.2002 O.3       1 <0>        -0.3482
      3 C2          6.8840   -0.2673   -2.6293 C.2       1 <0>         0.5622
      4 O2          6.8107   -0.0019   -1.4437 O.2       1 <0>        -0.5150
      5 C3          5.7066   -0.3534   -3.4089 C.2       1 <0>        -0.3101
      6 C4          4.3795   -0.1725   -3.0201 C.2       1 <0>         0.2392
      7 C5          3.4208   -0.3132   -4.0013 C.2       1 <0>        -0.1991
      8 C6          3.8065   -0.6186   -5.2654 C.2       1 <0>        -0.1498
      9 S1          5.5323   -0.7246   -5.1451 S.3       1 <0>         0.2023
     10 N1          4.0390    0.1413   -1.7042 N.am      1 <0>        -0.6528
     11 C7          2.8825    0.7817   -1.4418 C.2       1 <0>         0.5155
     12 O3          2.1873    1.1763   -2.3539 O.2       1 <0>        -0.4984
     13 C8          2.4531    1.0076   -0.0150 C.3       1 <0>        -0.1010
     14 C9          1.1359    1.7395    0.0034 C.ar      1 <0>        -0.0678
     15 C10         1.1252    3.1331    0.0208 C.ar      1 <0>        -0.1008
     16 C11        -0.0468    3.8247    0.0372 C.ar      1 <0>        -0.1029
     17 C12        -1.2664    3.1262    0.0367 C.ar      1 <0>        -0.0493
     18 C13        -2.4965    3.8056    0.0539 C.ar      1 <0>        -0.1069
     19 C14        -3.6577    3.0959    0.0532 C.ar      1 <0>        -0.1157
     20 C15        -3.6470    1.7023    0.0352 C.ar      1 <0>        -0.1167
     21 C16        -2.4750    1.0108    0.0183 C.ar      1 <0>        -0.1056
     22 C17        -1.2555    1.7093    0.0130 C.ar      1 <0>        -0.0496
     23 C18        -0.0253    1.0298    0.0023 C.ar      1 <0>        -0.0887
     24 H1         10.1357   -0.5690   -2.9363 H         1 <0>         0.1052
     25 H2          9.2844    0.6266   -1.9293 H         1 <0>         0.0627
     26 H3          9.1594   -1.1077   -1.5488 H         1 <0>         0.0630
     27 H4          2.3749   -0.1821   -3.7660 H         1 <0>         0.1660
     28 H5          3.1866   -0.7616   -6.1381 H         1 <0>         0.1995
     29 H6          4.6345   -0.1014   -0.9780 H         1 <0>         0.4261
     30 H7          3.2066    1.6025    0.5013 H         1 <0>         0.1120
     31 H8          2.3419    0.0467    0.4874 H         1 <0>         0.1117
     32 H9          2.0610    3.6723    0.0209 H         1 <0>         0.1220
     33 H10        -0.0397    4.9046    0.0502 H         1 <0>         0.1286
     34 H11        -2.5202    4.8853    0.0672 H         1 <0>         0.1272
     35 H12        -4.6017    3.6204    0.0664 H         1 <0>         0.1235
     36 H13        -4.5828    1.1632    0.0343 H         1 <0>         0.1235
     37 H14        -2.4821   -0.0691    0.0044 H         1 <0>         0.1265
     38 H15        -0.0016   -0.0498   -0.0112 H         1 <0>         0.1255
@<TRIPOS>BOND
     1    1    2 1
     2    1   24 1
     3    1   25 1
     4    1   26 1
     5    2    3 1
     6    3    4 2
     7    3    5 1
     8    5    9 1
     9    5    6 2
    10    6    7 1
    11    6   10 1
    12    7    8 2
    13    7   27 1
    14    8    9 1
    15    8   28 1
    16   10   11 am
    17   10   29 1
    18   11   12 2
    19   11   13 1
    20   13   14 1
    21   13   30 1
    22   13   31 1
    23   14   23 ar
    24   14   15 ar
    25   15   16 ar
    26   15   32 1
    27   16   17 ar
    28   16   33 1
    29   17   22 ar
    30   17   18 ar
    31   18   19 ar
    32   18   34 1
    33   19   20 ar
    34   19   35 1
    35   20   21 ar
    36   20   36 1
    37   21   22 ar
    38   21   37 1
    39   22   23 ar
    40   23   38 1
@<TRIPOS>MOLECULE
ZINC13000352
   38    40     0     0     0
SMALL
USER_CHARGES
methyl 3-[[2-(1-naphthyl)acetyl]amino]thiophene-2-carboxylate
@<TRIPOS>ATOM
      1 C1          3.5489   -1.7514    2.7698 C.3       1 <0>         0.0364
      2 O1          3.5653   -0.5573    1.9851 O.3       1 <0>        -0.3487
      3 C2          2.3995   -0.1798    1.4192 C.2       1 <0>         0.5607
      4 O2          1.3964   -0.8479    1.5886 O.2       1 <0>        -0.5111
      5 C3          2.3436    0.9925    0.6293 C.2       1 <0>        -0.3025
      6 C4          1.2537    1.5527   -0.0367 C.2       1 <0>         0.2340
      7 C5          1.4862    2.7182   -0.7361 C.2       1 <0>        -0.1910
      8 C6          2.7354    3.2468   -0.7463 C.2       1 <0>        -0.1534
      9 S1          3.6492    2.1384    0.2235 S.3       1 <0>         0.2058
     10 N1         -0.0111    0.9658    0.0074 N.am      1 <0>        -0.6553
     11 C7         -1.1141    1.7401   -0.0075 C.2       1 <0>         0.5166
     12 O3         -1.0094    2.9426   -0.1265 O.2       1 <0>        -0.4987
     13 C8         -2.4776    1.1118    0.1237 C.3       1 <0>        -0.1012
     14 C9         -3.5326    2.1869    0.0779 C.ar      1 <0>        -0.0613
     15 C10        -4.0232    2.7137    1.2333 C.ar      1 <0>        -0.0981
     16 C11        -4.9987    3.7083    1.2108 C.ar      1 <0>        -0.1148
     17 C12        -5.4893    4.1824    0.0328 C.ar      1 <0>        -0.1011
     18 C13        -5.0070    3.6631   -1.1804 C.ar      1 <0>        -0.0520
     19 C14        -4.0109    2.6548   -1.1576 C.ar      1 <0>        -0.0320
     20 C15        -3.5315    2.1325   -2.3711 C.ar      1 <0>        -0.1104
     21 C16        -4.0226    2.6059   -3.5487 C.ar      1 <0>        -0.1116
     22 C17        -4.9989    3.6003   -3.5712 C.ar      1 <0>        -0.1184
     23 C18        -5.4895    4.1270   -2.4162 C.ar      1 <0>        -0.1027
     24 H1          3.2401   -2.5911    2.1472 H         1 <0>         0.0629
     25 H2          4.5469   -1.9401    3.1653 H         1 <0>         0.1052
     26 H3          2.8471   -1.6339    3.5955 H         1 <0>         0.0626
     27 H4          0.6831    3.2044   -1.2700 H         1 <0>         0.1616
     28 H5          3.0787    4.1434   -1.2409 H         1 <0>         0.1994
     29 H6         -0.0967    0.0003    0.0446 H         1 <0>         0.4240
     30 H7         -2.6358    0.4123   -0.6971 H         1 <0>         0.1110
     31 H8         -2.5425    0.5792    1.0725 H         1 <0>         0.1136
     32 H9         -3.6509    2.3552    2.1816 H         1 <0>         0.1225
     33 H10        -5.3710    4.1094    2.1419 H         1 <0>         0.1254
     34 H11        -6.2452    4.9538    0.0308 H         1 <0>         0.1281
     35 H12        -2.7745    1.3622   -2.3691 H         1 <0>         0.1203
     36 H13        -3.6500    2.2052   -4.4798 H         1 <0>         0.1226
     37 H14        -5.3715    3.9586   -4.5195 H         1 <0>         0.1237
     38 H15        -6.2454    4.8977   -2.4491 H         1 <0>         0.1278
@<TRIPOS>BOND
     1    1    2 1
     2    1   24 1
     3    1   25 1
     4    1   26 1
     5    2    3 1
     6    3    4 2
     7    3    5 1
     8    5    9 1
     9    5    6 2
    10    6    7 1
    11    6   10 1
    12    7    8 2
    13    7   27 1
    14    8    9 1
    15    8   28 1
    16   10   11 am
    17   10   29 1
    18   11   12 2
    19   11   13 1
    20   13   14 1
    21   13   30 1
    22   13   31 1
    23   14   19 ar
    24   14   15 ar
    25   15   16 ar
    26   15   32 1
    27   16   17 ar
    28   16   33 1
    29   17   18 ar
    30   17   34 1
    31   18   23 ar
    32   18   19 ar
    33   19   20 ar
    34   20   21 ar
    35   20   35 1
    36   21   22 ar
    37   21   36 1
    38   22   23 ar
    39   22   37 1
    40   23   38 1
@<TRIPOS>MOLECULE
ZINC00082427
   29    30     0     0     0
SMALL
USER_CHARGES
methyl 3-[2-(2-thienyl)acetyl]aminothiophene-2-carboxylate
@<TRIPOS>ATOM
      1 C1         -0.2231    6.1371    2.1698 C.3       1 <0>         0.0362
      2 O1         -1.1727    5.2409    1.5893 O.3       1 <0>        -0.3481
      3 C2         -0.7021    4.0610    1.1327 C.2       1 <0>         0.5622
      4 O2          0.4833    3.8016    1.2257 O.2       1 <0>        -0.5146
      5 C3         -1.5869    3.1260    0.5460 C.2       1 <0>        -0.3090
      6 C4         -1.3099    1.8652    0.0177 C.2       1 <0>         0.2386
      7 C5         -2.3785    1.1572   -0.4908 C.2       1 <0>        -0.1990
      8 C6         -3.6163    1.7111   -0.4576 C.2       1 <0>        -0.1499
      9 S1         -3.3475    3.2526    0.2877 S.3       1 <0>         0.2045
     10 N1         -0.0162    1.3436    0.0094 N.am      1 <0>        -0.6514
     11 C7          0.1723    0.0095   -0.0262 C.2       1 <0>         0.5150
     12 O3         -0.7781   -0.7396    0.0552 O.2       1 <0>        -0.4956
     13 C8          1.5639   -0.5514   -0.1672 C.3       1 <0>        -0.0529
     14 C9          1.4997   -2.0569   -0.1809 C.2       1 <0>        -0.1393
     15 C10         1.3571   -2.8957   -1.2361 C.2       1 <0>        -0.1390
     16 C11         1.3272   -4.2590   -1.0095 C.2       1 <0>        -0.1582
     17 C12         1.4305   -4.7163    0.2623 C.2       1 <0>        -0.1686
     18 S2          1.5837   -3.1983    1.1893 S.3       1 <0>         0.0513
     19 H1          0.5361    6.3911    1.4301 H         1 <0>         0.0630
     20 H2         -0.7317    7.0447    2.4948 H         1 <0>         0.1053
     21 H3          0.2506    5.6592    3.0272 H         1 <0>         0.0628
     22 H4         -2.2315    0.1732   -0.9110 H         1 <0>         0.1659
     23 H5         -4.5467    1.2920   -0.8113 H         1 <0>         0.1997
     24 H6          0.7478    1.9410    0.0253 H         1 <0>         0.4266
     25 H7          2.0053   -0.1981   -1.0991 H         1 <0>         0.1242
     26 H8          2.1754   -0.2214    0.6725 H         1 <0>         0.1170
     27 H9          1.2711   -2.5048   -2.2392 H         1 <0>         0.1317
     28 H10         1.2184   -4.9492   -1.8330 H         1 <0>         0.1349
     29 H11         1.4220   -5.7347    0.6216 H         1 <0>         0.1867
@<TRIPOS>BOND
     1    1    2 1
     2    1   19 1
     3    1   20 1
     4    1   21 1
     5    2    3 1
     6    3    4 2
     7    3    5 1
     8    5    9 1
     9    5    6 2
    10    6    7 1
    11    6   10 1
    12    7    8 2
    13    7   22 1
    14    8    9 1
    15    8   23 1
    16   10   11 am
    17   10   24 1
    18   11   12 2
    19   11   13 1
    20   13   14 1
    21   13   25 1
    22   13   26 1
    23   14   18 1
    24   14   15 2
    25   15   16 1
    26   15   27 1
    27   16   17 2
    28   16   28 1
    29   17   18 1
    30   17   29 1
@<TRIPOS>MOLECULE
ZINC06126201
   32    33     0     0     0
SMALL
USER_CHARGES
methyl 3-(2-phenylacetyl)aminothiophene-2-carboxylate
@<TRIPOS>ATOM
      1 C1          2.5220   -3.2221    2.3500 C.3       1 <0>         0.0362
      2 O1          1.7553   -2.2043    1.7033 O.3       1 <0>        -0.3482
      3 C2          2.4341   -1.1495    1.2047 C.2       1 <0>         0.5623
      4 O2          3.6448   -1.0969    1.3167 O.2       1 <0>        -0.5150
      5 C3          1.7381   -0.1051    0.5517 C.2       1 <0>        -0.3105
      6 C4          2.2418    1.0594   -0.0274 C.2       1 <0>         0.2393
      7 C5          1.3243    1.9134   -0.6024 C.2       1 <0>        -0.1992
      8 C6          0.0081    1.5863   -0.5769 C.2       1 <0>        -0.1498
      9 S1         -0.0125    0.0654    0.2540 S.3       1 <0>         0.2024
     10 N1          3.6070    1.3460   -0.0256 N.am      1 <0>        -0.6530
     11 C7          4.0278    2.6226   -0.1245 C.2       1 <0>         0.5158
     12 O3          3.2223    3.5292   -0.1117 O.2       1 <0>        -0.4991
     13 C8          5.4990    2.9234   -0.2509 C.3       1 <0>        -0.0996
     14 C9          5.7007    4.4139   -0.3446 C.ar      1 <0>        -0.0739
     15 C10         5.7092    5.0340   -1.5801 C.ar      1 <0>        -0.1045
     16 C11         5.8889    6.4019   -1.6657 C.ar      1 <0>        -0.1185
     17 C12         6.0711    7.1483   -0.5165 C.ar      1 <0>        -0.1164
     18 C13         6.0682    6.5275    0.7186 C.ar      1 <0>        -0.1182
     19 C14         5.8828    5.1604    0.8045 C.ar      1 <0>        -0.1037
     20 H1          3.2378   -3.6421    1.6432 H         1 <0>         0.0629
     21 H2          3.0571   -2.7915    3.1964 H         1 <0>         0.0627
     22 H3          1.8560   -4.0092    2.7035 H         1 <0>         0.1052
     23 H4          1.6499    2.8319   -1.0680 H         1 <0>         0.1660
     24 H5         -0.8268    2.1391   -0.9816 H         1 <0>         0.1996
     25 H6          4.2536    0.6265    0.0468 H         1 <0>         0.4261
     26 H7          6.0247    2.5399    0.6235 H         1 <0>         0.1108
     27 H8          5.8915    2.4465   -1.1490 H         1 <0>         0.1111
     28 H9          5.5714    4.4502   -2.4782 H         1 <0>         0.1201
     29 H10         5.8908    6.8870   -2.6306 H         1 <0>         0.1232
     30 H11         6.2152    8.2166   -0.5836 H         1 <0>         0.1226
     31 H12         6.2105    7.1107    1.6164 H         1 <0>         0.1233
     32 H13         5.8806    4.6753    1.7695 H         1 <0>         0.1202
@<TRIPOS>BOND
     1    1    2 1
     2    1   20 1
     3    1   21 1
     4    1   22 1
     5    2    3 1
     6    3    4 2
     7    3    5 1
     8    5    9 1
     9    5    6 2
    10    6    7 1
    11    6   10 1
    12    7    8 2
    13    7   23 1
    14    8    9 1
    15    8   24 1
    16   10   11 am
    17   10   25 1
    18   11   12 2
    19   11   13 1
    20   13   14 1
    21   13   26 1
    22   13   27 1
    23   14   19 ar
    24   14   15 ar
    25   15   16 ar
    26   15   28 1
    27   16   17 ar
    28   16   29 1
    29   17   18 ar
    30   17   30 1
    31   18   19 ar
    32   18   31 1
    33   19   32 1
@<TRIPOS>MOLECULE
ZINC00624282
   44    46     0     0     0
SMALL
USER_CHARGES

@<TRIPOS>ATOM
      1 C1         -0.0502    1.4969    0.0074 C.3       1 <0>        -0.1885
      2 C2         -0.0171   -0.0327    0.0002 C.3       1 <0>        -0.0108
      3 N1          0.6973   -0.5126    1.1907 N.4       1 <0>        -0.3802
      4 C3         -0.0536   -0.1358    2.3950 C.3       1 <0>        -0.0291
      5 C4          0.7460   -0.5344    3.6398 C.3       1 <0>         0.1219
      6 N2          1.0679   -1.9669    3.5484 N.pl3     1 <0>        -0.6713
      7 C5          1.6763   -2.4627    2.3041 C.3       1 <0>         0.1162
      8 C6          0.8327   -1.9731    1.1223 C.3       1 <0>        -0.0238
      9 C7          0.8033   -2.8336    4.6154 C.ar      1 <0>         0.1303
     10 C8          1.7671   -3.0441    5.6012 C.ar      1 <0>         0.1602
     11 C9          1.4985   -3.9036    6.6558 C.ar      1 <0>        -0.1087
     12 C10         0.2782   -4.5496    6.7281 C.ar      1 <0>        -0.0735
     13 C11        -0.6779   -4.3416    5.7514 C.ar      1 <0>        -0.1134
     14 C12        -0.4210   -3.4815    4.6985 C.ar      1 <0>        -0.0189
     15 Cl1        -1.6273   -3.2184    3.4781 Cl        1 <0>        -0.0640
     16 N3          3.0032   -2.3896    5.5260 N.am      1 <0>        -0.6584
     17 C13         3.6267   -1.9954    6.6539 C.2       1 <0>         0.6102
     18 O1          3.1567   -2.2794    7.7403 O.2       1 <0>        -0.4827
     19 C14         4.8705   -1.2249    6.5726 C.2       1 <0>        -0.0734
     20 C15         5.6034   -0.7697    7.6318 C.2       1 <0>        -0.0957
     21 C16         6.7059   -0.0872    7.0965 C.2       1 <0>        -0.1611
     22 C17         6.5999   -0.1542    5.7492 C.2       1 <0>         0.0031
     23 O2          5.4955   -0.8457    5.4381 O.3       1 <0>        -0.1541
     24 Br1         7.8144    0.5977    4.5100 Br        1 <0>         0.0759
     25 H1          0.9694    1.8824   -0.0007 H         1 <0>         0.0809
     26 H2         -0.5802    1.8531   -0.8760 H         1 <0>         0.1068
     27 H3         -0.5631    1.8451    0.9039 H         1 <0>         0.0801
     28 H4         -1.0367   -0.4182    0.0083 H         1 <0>         0.1271
     29 H5          0.4958   -0.3808   -0.8963 H         1 <0>         0.1313
     30 H6         -0.2182    0.9417    2.3983 H         1 <0>         0.1395
     31 H7         -1.0144   -0.6505    2.4000 H         1 <0>         0.1303
     32 H8          1.6676    0.0460    3.6844 H         1 <0>         0.0802
     33 H9          0.1495   -0.3492    4.5331 H         1 <0>         0.1164
     34 H10         2.6918   -2.0771    2.2139 H         1 <0>         0.0810
     35 H11         1.6947   -3.5525    2.3144 H         1 <0>         0.1184
     36 H12        -0.1550   -2.4322    1.1659 H         1 <0>         0.1301
     37 H13         1.3212   -2.2495    0.1879 H         1 <0>         0.1387
     38 H14         2.2428   -4.0687    7.4207 H         1 <0>         0.1532
     39 H15         0.0713   -5.2191    7.5500 H         1 <0>         0.1463
     40 H16        -1.6293   -4.8489    5.8125 H         1 <0>         0.1430
     41 H17         3.4105   -2.2201    4.6621 H         1 <0>         0.4149
     42 H18         5.3775   -0.9082    8.6788 H         1 <0>         0.1757
     43 H19         7.4912    0.4006    7.6548 H         1 <0>         0.1750
     44 H20         1.6139   -0.0923    1.2236 H         1 <0>         0.4212
@<TRIPOS>BOND
     1    1    2 1
     2    1   25 1
     3    1   26 1
     4    1   27 1
     5    2    3 1
     6    2   28 1
     7    2   29 1
     8    3    8 1
     9    3    4 1
    10    3   44 1
    11    4    5 1
    12    4   30 1
    13    4   31 1
    14    5    6 1
    15    5   32 1
    16    5   33 1
    17    6    7 1
    18    6    9 1
    19    7    8 1
    20    7   34 1
    21    7   35 1
    22    8   36 1
    23    8   37 1
    24    9   14 ar
    25    9   10 ar
    26   10   11 ar
    27   10   16 1
    28   11   12 ar
    29   11   38 1
    30   12   13 ar
    31   12   39 1
    32   13   14 ar
    33   13   40 1
    34   14   15 1
    35   16   17 am
    36   16   41 1
    37   17   18 2
    38   17   19 1
    39   19   23 1
    40   19   20 2
    41   20   21 1
    42   20   42 1
    43   21   22 2
    44   21   43 1
    45   22   23 1
    46   22   24 1
@<TRIPOS>MOLECULE
ZINC00624282
   43    45     0     0     0
SMALL
USER_CHARGES

@<TRIPOS>ATOM
      1 C1         -0.0484    1.4958    0.0075 C.3       1 <0>        -0.1492
      2 C2         -0.0153   -0.0338    0.0001 C.3       1 <0>         0.0513
      3 N1          0.6989   -0.5139    1.1907 N.3       1 <0>        -0.5339
      4 C3         -0.0372   -0.1790    2.4170 C.3       1 <0>         0.0370
      5 C4          0.8209   -0.5321    3.6365 C.3       1 <0>         0.1538
      6 N2          1.2354   -1.9388    3.5245 N.pl3     1 <0>        -0.6730
      7 C5          1.8576   -2.3831    2.2681 C.3       1 <0>         0.1485
      8 C6          0.9587   -1.9570    1.1024 C.3       1 <0>         0.0400
      9 C7          1.0432   -2.8312    4.5859 C.ar      1 <0>         0.1588
     10 C8          2.0324   -2.9871    5.5566 C.ar      1 <0>         0.1467
     11 C9          1.8356   -3.8723    6.6058 C.ar      1 <0>        -0.1117
     12 C10         0.6615   -4.5980    6.6875 C.ar      1 <0>        -0.0908
     13 C11        -0.3197   -4.4441    5.7258 C.ar      1 <0>        -0.1177
     14 C12        -0.1346   -3.5590    4.6786 C.ar      1 <0>        -0.0267
     15 Cl1        -1.3724   -3.3645    3.4771 Cl        1 <0>        -0.0576
     16 N3          3.2217   -2.2518    5.4718 N.am      1 <0>        -0.6503
     17 C13         3.8336   -1.8281    6.5954 C.2       1 <0>         0.6078
     18 O1          3.3983   -2.1527    7.6849 O.2       1 <0>        -0.4936
     19 C14         5.0227   -0.9766    6.5055 C.2       1 <0>        -0.0616
     20 C15         5.7388   -0.4842    7.5596 C.2       1 <0>        -0.1062
     21 C16         6.7864    0.2745    7.0168 C.2       1 <0>        -0.1648
     22 C17         6.6664    0.2134    5.6704 C.2       1 <0>         0.0029
     23 O2          5.6056   -0.5463    5.3668 O.3       1 <0>        -0.1470
     24 Br1         7.8114    1.0554    4.4231 Br        1 <0>         0.0700
     25 H1          0.9712    1.8813   -0.0004 H         1 <0>         0.0634
     26 H2         -0.5784    1.8520   -0.8759 H         1 <0>         0.0586
     27 H3         -0.5615    1.8438    0.9040 H         1 <0>         0.0540
     28 H4         -1.0349   -0.4193    0.0081 H         1 <0>         0.0304
     29 H5          0.4977   -0.3819   -0.8964 H         1 <0>         0.0738
     30 H6         -0.2616    0.8877    2.4267 H         1 <0>         0.0816
     31 H7         -0.9670   -0.7469    2.4497 H         1 <0>         0.0403
     32 H8          1.7024    0.1085    3.6617 H         1 <0>         0.0581
     33 H9          0.2379   -0.3935    4.5469 H         1 <0>         0.0700
     34 H10         2.8388   -1.9204    2.1618 H         1 <0>         0.0593
     35 H11         1.9600   -3.4682    2.2738 H         1 <0>         0.0723
     36 H12         0.0151   -2.5003    1.1535 H         1 <0>         0.0408
     37 H13         1.4566   -2.1800    0.1588 H         1 <0>         0.0788
     38 H14         2.5997   -3.9953    7.3590 H         1 <0>         0.1474
     39 H15         0.5106   -5.2874    7.5051 H         1 <0>         0.1386
     40 H16        -1.2347   -5.0136    5.7942 H         1 <0>         0.1358
     41 H17         3.6048   -2.0477    4.6044 H         1 <0>         0.4188
     42 H18         5.5371   -0.6472    8.6080 H         1 <0>         0.1733
     43 H19         7.5457    0.8077    7.5696 H         1 <0>         0.1719
@<TRIPOS>BOND
     1    1    2 1
     2    1   25 1
     3    1   26 1
     4    1   27 1
     5    2    3 1
     6    2   28 1
     7    2   29 1
     8    3    8 1
     9    3    4 1
    10    4    5 1
    11    4   30 1
    12    4   31 1
    13    5    6 1
    14    5   32 1
    15    5   33 1
    16    6    7 1
    17    6    9 1
    18    7    8 1
    19    7   34 1
    20    7   35 1
    21    8   36 1
    22    8   37 1
    23    9   14 ar
    24    9   10 ar
    25   10   11 ar
    26   10   16 1
    27   11   12 ar
    28   11   38 1
    29   12   13 ar
    30   12   39 1
    31   13   14 ar
    32   13   40 1
    33   14   15 1
    34   16   17 am
    35   16   41 1
    36   17   18 2
    37   17   19 1
    38   19   23 1
    39   19   20 2
    40   20   21 1
    41   20   42 1
    42   21   22 2
    43   21   43 1
    44   22   23 1
    45   22   24 1
@<TRIPOS>MOLECULE
ZINC03814434
   62    69     0     0     0
SMALL
USER_CHARGES

@<TRIPOS>ATOM
      1 C1         -0.1295    1.5952   -0.2973 C.3       1 <0>        -0.1687
      2 C2         -0.0862    0.0696   -0.1900 C.3       1 <0>         0.3342
      3 C3          0.5692   -0.4501   -1.4637 C.3       1 <0>         0.0405
      4 H1          1.4796    0.1159   -1.6612 H         1 <0>         0.1372
      5 C4          0.9167   -1.9328   -1.2889 C.3       1 <0>        -0.0061
      6 H2          1.3963   -2.3075   -2.1932 H         1 <0>         0.1555
      7 C5          1.8785   -2.0596   -0.1021 C.3       1 <0>        -0.1827
      8 C6          1.2061   -1.5198    1.1541 C.3       1 <0>         0.2999
      9 H3          1.9797   -1.4243    1.9161 H         1 <0>         0.1550
     10 O1          0.6555   -0.2442    0.9666 O.3       1 <0>        -0.3234
     11 N1          0.2189   -2.4746    1.6600 N.pl3     1 <0>        -0.5366
     12 C7          0.4705   -3.5508    2.4739 C.ar      1 <0>         0.1469
     13 C8          1.6649   -4.0152    3.0240 C.ar      1 <0>        -0.1522
     14 C9          1.5948   -5.1456    3.8201 C.ar      1 <0>        -0.0582
     15 C10         0.4006   -5.7997    4.0696 C.ar      1 <0>        -0.1457
     16 C11        -0.7984   -5.3597    3.5358 C.ar      1 <0>        -0.0280
     17 C12        -0.7487   -4.2198    2.7307 C.ar      1 <0>        -0.1131
     18 C13        -1.7893   -3.4830    2.0197 C.ar      1 <0>         0.0276
     19 C14        -1.1442   -2.4197    1.3841 C.ar      1 <0>         0.0376
     20 C15        -1.8806   -1.5095    0.6175 C.ar      1 <0>         0.0894
     21 N2         -1.4718   -0.3951   -0.1095 N.pl3     1 <0>        -0.5183
     22 C16        -2.5611    0.1913   -0.7090 C.ar      1 <0>         0.1618
     23 C17        -2.6521    1.3277   -1.5118 C.ar      1 <0>        -0.1305
     24 C18        -3.9109    1.6745   -1.9733 C.ar      1 <0>        -0.0737
     25 C19        -5.0393    0.9368   -1.6616 C.ar      1 <0>        -0.1358
     26 C20        -4.9745   -0.1955   -0.8662 C.ar      1 <0>        -0.0503
     27 C21        -3.7147   -0.5596   -0.3919 C.ar      1 <0>        -0.1042
     28 C22        -3.2693   -1.6660    0.4845 C.ar      1 <0>        -0.0360
     29 C23        -3.9084   -2.7313    1.1102 C.ar      1 <0>        -0.0288
     30 C24        -3.1873   -3.6421    1.8754 C.ar      1 <0>        -0.1255
     31 C25        -4.1221   -4.6480    2.4030 C.2       1 <0>         0.5632
     32 O2         -3.8062   -5.5851    3.1110 O.2       1 <0>        -0.5106
     33 N3         -5.3744   -4.3851    1.9926 N.am      1 <0>        -0.7162
     34 C26        -5.3495   -3.1771    1.1601 C.3       1 <0>         0.1358
     35 N4         -0.3067   -2.7008   -1.0216 N.4       1 <0>        -0.5252
     36 C27         0.0145   -4.1336   -0.9773 C.3       1 <0>        -0.0497
     37 O3         -0.3340   -0.2979   -2.5607 O.3       1 <0>        -0.3614
     38 C28         0.3101   -0.0933   -3.8198 C.3       1 <0>         0.0162
     39 H4          0.8261    2.0094    0.0240 H         1 <0>         0.0984
     40 H5         -0.3202    1.8814   -1.3317 H         1 <0>         0.1036
     41 H6         -0.9255    1.9818    0.3392 H         1 <0>         0.0921
     42 H7          2.1370   -3.1081    0.0458 H         1 <0>         0.1233
     43 H8          2.7835   -1.4869   -0.3048 H         1 <0>         0.1455
     44 H9          2.6036   -3.5149    2.8368 H         1 <0>         0.1365
     45 H10         2.5026   -5.5304    4.2610 H         1 <0>         0.1359
     46 H11         0.4045   -6.6780    4.6980 H         1 <0>         0.1352
     47 H12        -1.7278   -5.8736    3.7323 H         1 <0>         0.1600
     48 H13        -1.7792    1.9122   -1.7624 H         1 <0>         0.1440
     49 H14        -4.0153    2.5500   -2.5970 H         1 <0>         0.1336
     50 H15        -5.9967    1.2527   -2.0488 H         1 <0>         0.1332
     51 H16        -5.8575   -0.7687   -0.6249 H         1 <0>         0.1415
     52 H17        -6.1628   -4.9065    2.2103 H         1 <0>         0.4348
     53 H18        -5.9671   -2.3994    1.6094 H         1 <0>         0.1115
     54 H19        -5.7060   -3.4063    0.1559 H         1 <0>         0.1103
     55 H20        -0.6958   -2.4158   -0.1353 H         1 <0>         0.4186
     56 H21         0.4349   -4.4415   -1.9347 H         1 <0>         0.1256
     57 H22         0.7403   -4.3189   -0.1854 H         1 <0>         0.1191
     58 H23        -0.8932   -4.7035   -0.7789 H         1 <0>         0.1256
     59 H24         0.9168    0.8112   -3.7748 H         1 <0>         0.0633
     60 H25         0.9482   -0.9479   -4.0446 H         1 <0>         0.0514
     61 H26        -0.4433    0.0130   -4.6003 H         1 <0>         0.1100
     62 H27        -0.9785   -2.5293   -1.7546 H         1 <0>         0.4274
@<TRIPOS>BOND
     1    1    2 1
     2    1   39 1
     3    1   40 1
     4    1   41 1
     5    2   10 1
     6    2   21 1
     7    2    3 1
     8    3    4 1
     9    3    5 1
    10    3   37 1
    11    5    6 1
    12    5    7 1
    13    5   35 1
    14    7    8 1
    15    7   42 1
    16    7   43 1
    17    8    9 1
    18    8   10 1
    19    8   11 1
    20   11   19 1
    21   11   12 1
    22   12   17 ar
    23   12   13 ar
    24   13   14 ar
    25   13   44 1
    26   14   15 ar
    27   14   45 1
    28   15   16 ar
    29   15   46 1
    30   16   17 ar
    31   16   47 1
    32   17   18 1
    33   18   30 ar
    34   18   19 ar
    35   19   20 ar
    36   20   28 ar
    37   20   21 1
    38   21   22 1
    39   22   27 ar
    40   22   23 ar
    41   23   24 ar
    42   23   48 1
    43   24   25 ar
    44   24   49 1
    45   25   26 ar
    46   25   50 1
    47   26   27 ar
    48   26   51 1
    49   27   28 1
    50   28   29 ar
    51   29   34 1
    52   29   30 ar
    53   30   31 1
    54   31   32 2
    55   31   33 am
    56   33   34 1
    57   33   52 1
    58   34   53 1
    59   34   54 1
    60   35   36 1
    61   35   55 1
    62   35   62 1
    63   36   56 1
    64   36   57 1
    65   36   58 1
    66   37   38 1
    67   38   59 1
    68   38   60 1
    69   38   61 1
@<TRIPOS>MOLECULE
ZINC05332367
   33    36     0     0     0
SMALL
USER_CHARGES

@<TRIPOS>ATOM
      1 C1          0.1498    1.5587   -0.3194 C.ar      1 <0>        -0.1172
      2 C2          1.3550    2.2361   -0.4956 C.ar      1 <0>        -0.1216
      3 C3          2.5410    1.5687   -0.4880 C.ar      1 <0>        -0.0945
      4 C4          2.5541    0.1756   -0.2994 C.ar      1 <0>        -0.0407
      5 C5          3.7595   -0.5453   -0.2854 C.ar      1 <0>        -0.0712
      6 C6          3.7319   -1.9087   -0.0977 C.ar      1 <0>         0.1536
      7 C7          2.5172   -2.5812    0.0788 C.ar      1 <0>        -0.0988
      8 C8          1.3373   -1.9064    0.0688 C.ar      1 <0>        -0.1001
      9 C9          1.3284   -0.5133   -0.1199 C.ar      1 <0>        -0.0477
     10 C10         0.1239    0.2106   -0.1344 C.ar      1 <0>        -0.1058
     11 N1          4.9326   -2.6310   -0.0836 N.pl3     1 <0>        -0.4519
     12 C11         5.3680   -3.5421   -1.0217 C.2       1 <0>         0.1402
     13 N2          6.5394   -3.9788   -0.6195 N.2       1 <0>        -0.2560
     14 N3          6.8628   -3.4132    0.4881 N.2       1 <0>        -0.3350
     15 C12         5.9199   -2.5749    0.8605 C.2       1 <0>         0.3874
     16 S1          5.9264   -1.5699    2.3078 S.3       1 <0>        -0.7777
     17 C13         4.6520   -3.9506   -2.2476 C.ar      1 <0>         0.0649
     18 C14         3.6078   -3.1733   -2.7643 C.ar      1 <0>        -0.1701
     19 C15         2.9669   -3.5923   -3.9109 C.ar      1 <0>         0.1028
     20 N4          3.3251   -4.7077   -4.5186 N.ar      1 <0>        -0.4927
     21 C16         4.3031   -5.4694   -4.0658 C.ar      1 <0>         0.0991
     22 C17         5.0022   -5.1230   -2.9290 C.ar      1 <0>        -0.1449
     23 H1         -0.7774    2.1126   -0.3254 H         1 <0>         0.1208
     24 H2          1.3476    3.3063   -0.6406 H         1 <0>         0.1218
     25 H3          3.4673    2.1064   -0.6264 H         1 <0>         0.1277
     26 H4          4.7009   -0.0337   -0.4212 H         1 <0>         0.1330
     27 H5          2.5173   -3.6513    0.2246 H         1 <0>         0.1237
     28 H6          0.4081   -2.4396    0.2060 H         1 <0>         0.1330
     29 H7         -0.8179   -0.3005    0.0011 H         1 <0>         0.1261
     30 H8          3.3089   -2.2597   -2.2718 H         1 <0>         0.1342
     31 H9          2.1605   -2.9998   -4.3172 H         1 <0>         0.1550
     32 H10         4.5622   -6.3743   -4.5954 H         1 <0>         0.1580
     33 H11         5.8047   -5.7486   -2.5670 H         1 <0>         0.1445
@<TRIPOS>BOND
     1    1   10 ar
     2    1    2 ar
     3    1   23 1
     4    2    3 ar
     5    2   24 1
     6    3    4 ar
     7    3   25 1
     8    4    9 ar
     9    4    5 ar
    10    5    6 ar
    11    5   26 1
    12    6    7 ar
    13    6   11 1
    14    7    8 ar
    15    7   27 1
    16    8    9 ar
    17    8   28 1
    18    9   10 ar
    19   10   29 1
    20   11   15 1
    21   11   12 1
    22   12   13 2
    23   12   17 1
    24   13   14 1
    25   14   15 2
    26   15   16 1
    27   17   22 ar
    28   17   18 ar
    29   18   19 ar
    30   18   30 1
    31   19   20 ar
    32   19   31 1
    33   20   21 ar
    34   21   22 ar
    35   21   32 1
    36   22   33 1
@<TRIPOS>MOLECULE
ZINC14687377
   46    48     0     0     0
SMALL
USER_CHARGES

@<TRIPOS>ATOM
      1 C1         -0.0187    1.5258    0.0104 C.3       1 <0>        -0.1523
      2 C2          0.0021   -0.0041    0.0020 C.3       1 <0>         0.0560
      3 O1         -1.3386   -0.4987    0.0122 O.3       1 <0>        -0.3458
      4 C3         -1.4971   -1.8382    0.0065 C.2       1 <0>         0.5347
      5 O2         -0.5226   -2.5659   -0.0067 O.2       1 <0>        -0.4922
      6 C4         -2.8425   -2.4162    0.0162 C.2       1 <0>        -0.2221
      7 C5         -3.5507   -2.7149   -1.2080 C.2       1 <0>        -0.0216
      8 C6         -4.7793   -3.2433   -1.0611 C.2       1 <0>        -0.2565
      9 S1         -4.9775   -3.3365    0.7047 S.3       1 <0>         0.3010
     10 C7         -3.5020   -2.7113    1.2017 C.2       1 <0>         0.0535
     11 N1         -3.0468   -2.5294    2.4982 N.am      1 <0>        -0.6240
     12 C8         -3.8273   -2.8749    3.5412 C.2       1 <0>         0.5082
     13 O3         -4.9280   -3.3451    3.3453 O.2       1 <0>        -0.4826
     14 C9         -3.3324   -2.6772    4.9508 C.3       1 <0>        -0.0878
     15 C10        -4.3869   -3.1395    5.9230 C.ar      1 <0>        -0.1164
     16 C11        -5.3455   -2.2517    6.3752 C.ar      1 <0>        -0.0608
     17 C12        -6.3130   -2.6729    7.2667 C.ar      1 <0>        -0.1499
     18 C13        -6.3225   -3.9882    7.7080 C.ar      1 <0>         0.1338
     19 C14        -5.3599   -4.8772    7.2524 C.ar      1 <0>        -0.2066
     20 C15        -4.3976   -4.4523    6.3568 C.ar      1 <0>        -0.0603
     21 O4         -7.2730   -4.4049    8.5854 O.3       1 <0>        -0.3170
     22 C16        -7.2215   -5.7725    8.9964 C.3       1 <0>         0.0261
     23 C17        -2.9503   -2.4503   -2.5647 C.3       1 <0>        -0.1103
     24 C18        -3.8600   -2.6141   -3.7839 C.3       1 <0>        -0.1658
     25 C19        -2.7663   -3.6461   -3.5013 C.3       1 <0>        -0.1634
     26 H1          1.0039    1.9031    0.0027 H         1 <0>         0.0811
     27 H2         -0.5459    1.8868   -0.8726 H         1 <0>         0.0678
     28 H3         -0.5289    1.8773    0.9072 H         1 <0>         0.0667
     29 H4          0.5123   -0.3556   -0.8948 H         1 <0>         0.0688
     30 H5          0.5293   -0.3651    0.8851 H         1 <0>         0.0676
     31 H6         -5.4774   -3.5394   -1.8301 H         1 <0>         0.1902
     32 H7         -2.1664   -2.1534    2.6548 H         1 <0>         0.4191
     33 H8         -2.4212   -3.2563    5.1005 H         1 <0>         0.1115
     34 H9         -3.1228   -1.6206    5.1174 H         1 <0>         0.1125
     35 H10        -5.3377   -1.2279    6.0314 H         1 <0>         0.1287
     36 H11        -7.0612   -1.9789    7.6202 H         1 <0>         0.1329
     37 H12        -5.3651   -5.9016    7.5944 H         1 <0>         0.1297
     38 H13        -3.6506   -5.1451    5.9985 H         1 <0>         0.1239
     39 H14        -7.3248   -6.4182    8.1243 H         1 <0>         0.0568
     40 H15        -6.2666   -5.9698    9.4836 H         1 <0>         0.0563
     41 H16        -8.0340   -5.9728    9.6950 H         1 <0>         0.1017
     42 H17        -2.1976   -1.6627   -2.6002 H         1 <0>         0.1071
     43 H18        -4.8927   -2.9133   -3.6048 H         1 <0>         0.1003
     44 H19        -3.7059   -1.9342   -4.6218 H         1 <0>         0.1007
     45 H20        -1.8928   -3.6451   -4.1532 H         1 <0>         0.0991
     46 H21        -3.0796   -4.6242   -3.1361 H         1 <0>         0.0994
@<TRIPOS>BOND
     1    1    2 1
     2    1   26 1
     3    1   27 1
     4    1   28 1
     5    2    3 1
     6    2   29 1
     7    2   30 1
     8    3    4 1
     9    4    5 2
    10    4    6 1
    11    6   10 2
    12    6    7 1
    13    7    8 2
    14    7   23 1
    15    8    9 1
    16    8   31 1
    17    9   10 1
    18   10   11 1
    19   11   12 am
    20   11   32 1
    21   12   13 2
    22   12   14 1
    23   14   15 1
    24   14   33 1
    25   14   34 1
    26   15   20 ar
    27   15   16 ar
    28   16   17 ar
    29   16   35 1
    30   17   18 ar
    31   17   36 1
    32   18   19 ar
    33   18   21 1
    34   19   20 ar
    35   19   37 1
    36   20   38 1
    37   21   22 1
    38   22   39 1
    39   22   40 1
    40   22   41 1
    41   23   25 1
    42   23   24 1
    43   23   42 1
    44   24   25 1
    45   24   43 1
    46   24   44 1
    47   25   45 1
    48   25   46 1
@<TRIPOS>MOLECULE
ZINC12325075
   41    43     0     0     0
SMALL
USER_CHARGES
5-bromo-N-[3-chloro-2-(4-methylpiperazin-1-yl)phenyl]furan-2-carboxamide
@<TRIPOS>ATOM
      1 C1          6.4194    5.2538   -0.0014 C.3       1 <0>        -0.0411
      2 C2          5.0179    3.7061   -1.2282 C.3       1 <0>         0.0050
      3 C3          3.6628    2.9948   -1.2201 C.3       1 <0>         0.0024
      4 N1          3.5716    2.1337   -0.0327 N.pl3     1 <0>        -0.4916
      5 C4          3.7152    2.9226    1.1988 C.3       1 <0>         0.0134
      6 C5          5.0704    3.6339    1.1906 C.3       1 <0>         0.0049
      7 C6          2.3729    1.4105   -0.0283 C.ar      1 <0>         0.0490
      8 C7          2.3972    0.0160   -0.0304 C.ar      1 <0>         0.1941
      9 C8          1.2062   -0.6944   -0.0260 C.ar      1 <0>        -0.1073
     10 C9         -0.0011   -0.0206   -0.0195 C.ar      1 <0>        -0.0705
     11 C10        -0.0262    1.3616   -0.0179 C.ar      1 <0>        -0.1080
     12 C11         1.1569    2.0789   -0.0223 C.ar      1 <0>        -0.0453
     13 Cl1         1.1201    3.8145   -0.0208 Cl        1 <0>        -0.0583
     14 N2          3.6212   -0.6650   -0.0374 N.am      1 <0>        -0.6532
     15 C12         3.7465   -1.8327    0.6238 C.2       1 <0>         0.6107
     16 O1          2.7759   -2.3364    1.1587 O.2       1 <0>        -0.4859
     17 C13         5.0509   -2.4960    0.6989 C.2       1 <0>        -0.0717
     18 C14         5.3170   -3.6736    1.3382 C.2       1 <0>        -0.0966
     19 C15         6.6831   -3.9334    1.1540 C.2       1 <0>        -0.1620
     20 C16         7.1882   -2.9112    0.4254 C.2       1 <0>         0.0036
     21 O2          6.2011   -2.0474    0.1535 O.3       1 <0>        -0.1518
     22 Br1         8.9902   -2.7316   -0.1191 Br        1 <0>         0.0752
     23 H1          6.4313    5.9322   -0.8545 H         1 <0>         0.1231
     24 H2          6.5003    5.8287    0.9211 H         1 <0>         0.1231
     25 H3          7.2599    4.5636   -0.0743 H         1 <0>         0.1250
     26 H4          5.8166    2.9662   -1.2814 H         1 <0>         0.1394
     27 H5          5.0764    4.3671   -2.0929 H         1 <0>         0.1372
     28 H6          3.5662    2.3860   -2.1191 H         1 <0>         0.1247
     29 H7          2.8632    3.7352   -1.1946 H         1 <0>         0.0834
     30 H8          2.9165    3.6624    1.2519 H         1 <0>         0.0788
     31 H9          3.6569    2.2612    2.0632 H         1 <0>         0.1241
     32 H10         5.8697    2.8933    1.1649 H         1 <0>         0.1396
     33 H11         5.1674    4.2426    2.0896 H         1 <0>         0.1372
     34 H12         1.2218   -1.7743   -0.0273 H         1 <0>         0.1577
     35 H13        -0.9274   -0.5759   -0.0161 H         1 <0>         0.1490
     36 H14        -0.9720    1.8830   -0.0177 H         1 <0>         0.1444
     37 H15         4.3787   -0.2962   -0.5182 H         1 <0>         0.4217
     38 H16         4.6115   -4.2870    1.8789 H         1 <0>         0.1755
     39 H17         7.2298   -4.7869    1.5269 H         1 <0>         0.1747
     40 N3          5.1400    4.5128    0.0041 N.4       1 <0>        -0.3999
     41 H18         4.3651    5.1853    0.0410 H         1 <0>         0.4260
@<TRIPOS>BOND
     1    1   23 1
     2    1   24 1
     3    1   25 1
     4    1   40 1
     5    2    3 1
     6    2   26 1
     7    2   27 1
     8    2   40 1
     9    3    4 1
    10    3   28 1
    11    3   29 1
    12    4    5 1
    13    4    7 1
    14    5    6 1
    15    5   30 1
    16    5   31 1
    17    6   32 1
    18    6   33 1
    19    6   40 1
    20    7   12 ar
    21    7    8 ar
    22    8    9 ar
    23    8   14 1
    24    9   10 ar
    25    9   34 1
    26   10   11 ar
    27   10   35 1
    28   11   12 ar
    29   11   36 1
    30   12   13 1
    31   14   15 am
    32   14   37 1
    33   15   16 2
    34   15   17 1
    35   17   21 1
    36   17   18 2
    37   18   19 1
    38   18   38 1
    39   19   20 2
    40   19   39 1
    41   20   21 1
    42   20   22 1
    43   40   41 1
@<TRIPOS>MOLECULE
ZINC09422342
   42    44     0     0     0
SMALL
USER_CHARGES
N-[2-(4-acetylpiperazin-1-yl)-3-chloro-phenyl]-5-bromo-furan-2-carboxamide
@<TRIPOS>ATOM
      1 C1          6.0069    5.8966   -1.8585 C.3       1 <0>        -0.1803
      2 C2          5.8285    5.1342   -0.5709 C.2       1 <0>         0.5139
      3 O1          6.1264    5.6500    0.4856 O.2       1 <0>        -0.5445
      4 N1          5.3379    3.8791   -0.5933 N.am      1 <0>        -0.6151
      5 C3          5.0681    3.1967   -1.8680 C.3       1 <0>         0.1088
      6 C4          3.6378    2.6480   -1.8331 C.3       1 <0>         0.0202
      7 N2          3.4649    1.8163   -0.6346 N.pl3     1 <0>        -0.4963
      8 C5          3.6278    2.6085    0.5917 C.3       1 <0>         0.0338
      9 C6          5.0577    3.1556    0.6562 C.3       1 <0>         0.1193
     10 C7          2.2257    1.1651   -0.6503 C.ar      1 <0>         0.0727
     11 C8          2.1674   -0.2281   -0.6279 C.ar      1 <0>         0.1802
     12 C9          0.9366   -0.8671   -0.6437 C.ar      1 <0>        -0.1101
     13 C10        -0.2284   -0.1235   -0.6814 C.ar      1 <0>        -0.0867
     14 C11        -0.1716    1.2577   -0.7041 C.ar      1 <0>        -0.1125
     15 C12         1.0517    1.9039   -0.6887 C.ar      1 <0>        -0.0498
     16 Cl1         1.1179    3.6384   -0.7178 Cl        1 <0>        -0.0508
     17 N3          3.3486   -0.9800   -0.5902 N.am      1 <0>        -0.6464
     18 C13         3.3872   -2.1404    0.0943 C.2       1 <0>         0.6084
     19 O2          2.3748   -2.5762    0.6111 O.2       1 <0>        -0.4948
     20 C14         4.6477   -2.8774    0.2164 C.2       1 <0>        -0.0610
     21 C15         4.8269   -4.0563    0.8830 C.2       1 <0>        -0.1060
     22 C16         6.1797   -4.3992    0.7407 C.2       1 <0>        -0.1648
     23 C17         6.7632   -3.4223    0.0087 C.2       1 <0>         0.0029
     24 O3          5.8363   -2.5074   -0.3050 O.3       1 <0>        -0.1462
     25 Br1         8.5864   -3.3589   -0.4894 Br        1 <0>         0.0698
     26 H1          5.7800    5.2441   -2.7015 H         1 <0>         0.0824
     27 H2          5.3327    6.7530   -1.8701 H         1 <0>         0.0956
     28 H3          7.0371    6.2443   -1.9351 H         1 <0>         0.0962
     29 H4          5.7723    2.3753   -1.9998 H         1 <0>         0.0791
     30 H5          5.1697    3.9020   -2.6928 H         1 <0>         0.0998
     31 H6          3.4577    2.0451   -2.7232 H         1 <0>         0.0896
     32 H7          2.9303    3.4768   -1.8059 H         1 <0>         0.0684
     33 H8          2.9208    3.4381    0.5854 H         1 <0>         0.0628
     34 H9          3.4404    1.9770    1.4602 H         1 <0>         0.0881
     35 H10         5.7609    2.3302    0.7670 H         1 <0>         0.0747
     36 H11         5.1548    3.8355    1.5026 H         1 <0>         0.0984
     37 H12         0.8881   -1.9459   -0.6261 H         1 <0>         0.1519
     38 H13        -1.1858   -0.6231   -0.6936 H         1 <0>         0.1414
     39 H14        -1.0845    1.8337   -0.7384 H         1 <0>         0.1376
     40 H15         4.1388   -0.6656   -1.0566 H         1 <0>         0.4239
     41 H16         4.0724   -4.6171    1.4148 H         1 <0>         0.1734
     42 H17         6.6650   -5.2761    1.1431 H         1 <0>         0.1719
@<TRIPOS>BOND
     1    1    2 1
     2    1   26 1
     3    1   27 1
     4    1   28 1
     5    2    3 2
     6    2    4 am
     7    4    9 1
     8    4    5 1
     9    5    6 1
    10    5   29 1
    11    5   30 1
    12    6    7 1
    13    6   31 1
    14    6   32 1
    15    7    8 1
    16    7   10 1
    17    8    9 1
    18    8   33 1
    19    8   34 1
    20    9   35 1
    21    9   36 1
    22   10   15 ar
    23   10   11 ar
    24   11   12 ar
    25   11   17 1
    26   12   13 ar
    27   12   37 1
    28   13   14 ar
    29   13   38 1
    30   14   15 ar
    31   14   39 1
    32   15   16 1
    33   17   18 am
    34   17   40 1
    35   18   19 2
    36   18   20 1
    37   20   24 1
    38   20   21 2
    39   21   22 1
    40   21   41 1
    41   22   23 2
    42   22   42 1
    43   23   24 1
    44   23   25 1
@<TRIPOS>MOLECULE
ZINC13647791
   43    46     0     0     0
SMALL
USER_CHARGES

@<TRIPOS>ATOM
      1 C1         -0.0166    1.3699    0.0096 C.ar      1 <0>        -0.0800
      2 C2          1.1572    2.1045    0.0023 C.ar      1 <0>        -0.1190
      3 C3          2.3694    1.4373   -0.0129 C.ar      1 <0>        -0.0394
      4 C4          2.3887    0.0627   -0.0205 C.ar      1 <0>        -0.1883
      5 C5          1.2179   -0.7095   -0.0134 C.ar      1 <0>         0.1191
      6 C6          0.0021   -0.0041    0.0020 C.ar      1 <0>        -0.1207
      7 N1          1.3955   -2.0811   -0.0225 N.pl3     1 <0>        -0.6290
      8 C7          2.6545   -2.6113   -0.0374 C.2       1 <0>         0.2414
      9 C8          3.0385   -3.9533   -0.0487 C.2       1 <0>        -0.1370
     10 C9          2.0433   -4.9829   -0.0452 C.1       1 <0>         0.2720
     11 N2          1.2537   -5.7996   -0.0424 N.1       1 <0>        -0.4249
     12 C10         4.4680   -4.3104   -0.0642 C.ar      1 <0>         0.3088
     13 C11         4.8666   -5.6555   -0.0815 C.ar      1 <0>        -0.2844
     14 C12         6.2058   -5.9409   -0.0954 C.ar      1 <0>         0.2007
     15 N3          7.0848   -4.9482   -0.0923 N.ar      1 <0>        -0.5794
     16 C13         6.6886   -3.6836   -0.0759 C.ar      1 <0>         0.5826
     17 N4          5.4049   -3.3593   -0.0676 N.ar      1 <0>        -0.5825
     18 N5          7.6395   -2.6778   -0.0728 N.pl3     1 <0>        -0.7005
     19 C14         9.0646   -3.0170   -0.0875 C.3       1 <0>         0.1450
     20 C15         9.8948   -1.7318   -0.0805 C.3       1 <0>        -0.0888
     21 C16        11.3608   -2.0808   -0.0957 C.ar      1 <0>        -0.1340
     22 C17        12.0518   -2.2615    1.0929 C.ar      1 <0>        -0.0689
     23 C18        13.3992   -2.5815    1.0307 C.ar      1 <0>        -0.1701
     24 C19        14.0048   -2.7089   -0.2053 C.ar      1 <0>         0.0971
     25 N6         13.3163   -2.5294   -1.3154 N.ar      1 <0>        -0.4833
     26 C20        12.0320   -2.2302   -1.2943 C.ar      1 <0>         0.1060
     27 S1          3.6842   -1.1528   -0.0394 S.3       1 <0>         0.1837
     28 H1         -0.9648    1.8866    0.0260 H         1 <0>         0.1374
     29 H2          1.1270    3.1841    0.0081 H         1 <0>         0.1413
     30 H3          3.2952    1.9934   -0.0191 H         1 <0>         0.1400
     31 H4         -0.9301   -0.5494    0.0080 H         1 <0>         0.1308
     32 H5          0.6237   -2.6686   -0.0180 H         1 <0>         0.4164
     33 H6          4.1333   -6.4484   -0.0833 H         1 <0>         0.1381
     34 H7          6.5434   -6.9667   -0.1085 H         1 <0>         0.1667
     35 H8          7.3622   -1.7483   -0.0608 H         1 <0>         0.4130
     36 H9          9.3060   -3.6103    0.7944 H         1 <0>         0.0692
     37 H10         9.2920   -3.5916   -0.9854 H         1 <0>         0.0705
     38 H11         9.6534   -1.1385   -0.9624 H         1 <0>         0.0847
     39 H12         9.6674   -1.1572    0.8174 H         1 <0>         0.0829
     40 H13        11.5523   -2.1551    2.0445 H         1 <0>         0.1348
     41 H14        13.9686   -2.7291    1.9364 H         1 <0>         0.1364
     42 H15        15.0542   -2.9580   -0.2624 H         1 <0>         0.1564
     43 H16        11.4998   -2.0959   -2.2244 H         1 <0>         0.1551
@<TRIPOS>BOND
     1    1    6 ar
     2    1    2 ar
     3    1   28 1
     4    2    3 ar
     5    2   29 1
     6    3    4 ar
     7    3   30 1
     8    4   27 1
     9    4    5 ar
    10    5    6 ar
    11    5    7 1
    12    6   31 1
    13    7    8 1
    14    7   32 1
    15    8    9 2
    16    8   27 1
    17    9   10 1
    18    9   12 1
    19   10   11 3
    20   12   17 ar
    21   12   13 ar
    22   13   14 ar
    23   13   33 1
    24   14   15 ar
    25   14   34 1
    26   15   16 ar
    27   16   17 ar
    28   16   18 1
    29   18   19 1
    30   18   35 1
    31   19   20 1
    32   19   36 1
    33   19   37 1
    34   20   21 1
    35   20   38 1
    36   20   39 1
    37   21   26 ar
    38   21   22 ar
    39   22   23 ar
    40   22   40 1
    41   23   24 ar
    42   23   41 1
    43   24   25 ar
    44   24   42 1
    45   25   26 ar
    46   26   43 1
@<TRIPOS>MOLECULE
ZINC03938688
   39    41     0     0     0
SMALL
USER_CHARGES

@<TRIPOS>ATOM
      1 C1         -0.0095    1.3826    0.0704 C.ar      1 <0>        -0.0343
      2 C2          0.5587    1.0580   -1.1482 C.ar      1 <0>        -0.1609
      3 C3          1.7655    0.3862   -1.1955 C.ar      1 <0>         0.1753
      4 C4          2.4129    0.0342   -0.0053 C.ar      1 <0>        -0.1954
      5 C5          1.8304    0.3669    1.2233 C.ar      1 <0>         0.1741
      6 C6          0.6231    1.0388    1.2514 C.ar      1 <0>        -0.1610
      7 F1          2.4463    0.0317    2.3781 F         1 <0>        -0.1212
      8 C7          3.6999   -0.6827   -0.0456 C.2       1 <0>         0.6210
      9 O1          4.7383   -0.0615   -0.1600 O.2       1 <0>        -0.4669
     10 N1          3.7255   -2.0272    0.0446 N.am      1 <0>        -0.3962
     11 C8          4.8314   -2.8210    0.1249 C.2       1 <0>         0.5948
     12 N2          4.4249   -4.0694    0.1979 N.2       1 <0>        -0.5873
     13 C9          3.0869   -4.1118    0.1675 C.2       1 <0>         0.5191
     14 N3          2.6183   -2.8904    0.0808 N.2       1 <0>        -0.3480
     15 N4          2.3148   -5.2702    0.2247 N.pl3     1 <0>        -0.6226
     16 C10         2.9267   -6.5079    0.4407 C.ar      1 <0>         0.2365
     17 C11         4.1432   -6.5760    1.1080 C.ar      1 <0>        -0.1584
     18 C12         4.7450   -7.8008    1.3202 C.ar      1 <0>         0.0098
     19 C13         4.1379   -8.9586    0.8692 C.ar      1 <0>        -0.7033
     20 C14         2.9269   -8.8944    0.2046 C.ar      1 <0>         0.0112
     21 C15         2.3170   -7.6734   -0.0063 C.ar      1 <0>        -0.1777
     22 S1          4.9094  -10.5191    1.1415 S.o2      1 <0>         2.7034
     23 O2          4.4084  -11.3993    0.1448 O.2       1 <0>        -0.9656
     24 O3          6.2977  -10.2630    1.3036 O.2       1 <0>        -0.9650
     25 N5          4.3605  -11.0895    2.5960 N.pl3     1 <0>        -1.2510
     26 N6          6.1422   -2.3912    0.1281 N.pl3     1 <0>        -0.7911
     27 F2          2.3185    0.0697   -2.3868 F         1 <0>        -0.1201
     28 H1         -0.9506    1.9116    0.0998 H         1 <0>         0.1546
     29 H2          0.0576    1.3300   -2.0654 H         1 <0>         0.1549
     30 H3          0.1721    1.2963    2.1984 H         1 <0>         0.1546
     31 H4          1.3525   -5.2176    0.1147 H         1 <0>         0.4325
     32 H5          4.6180   -5.6722    1.4601 H         1 <0>         0.1556
     33 H6          5.6909   -7.8544    1.8385 H         1 <0>         0.1456
     34 H7          2.4556   -9.8005   -0.1466 H         1 <0>         0.1475
     35 H8          1.3691   -7.6243   -0.5215 H         1 <0>         0.1387
     36 H9          3.7284  -10.5673    3.1145 H         1 <0>         0.4165
     37 H10         4.6709  -11.9458    2.9296 H         1 <0>         0.4206
     38 H11         6.3422   -1.4439    0.0694 H         1 <0>         0.4292
     39 H12         6.8640   -3.0364    0.1890 H         1 <0>         0.4303
@<TRIPOS>BOND
     1    1    6 ar
     2    1    2 ar
     3    1   28 1
     4    2    3 ar
     5    2   29 1
     6    3    4 ar
     7    3   27 1
     8    4    5 ar
     9    4    8 1
    10    5    6 ar
    11    5    7 1
    12    6   30 1
    13    8    9 2
    14    8   10 am
    15   10   14 1
    16   10   11 1
    17   11   12 2
    18   11   26 1
    19   12   13 1
    20   13   14 2
    21   13   15 1
    22   15   16 1
    23   15   31 1
    24   16   21 ar
    25   16   17 ar
    26   17   18 ar
    27   17   32 1
    28   18   19 ar
    29   18   33 1
    30   19   20 ar
    31   19   22 1
    32   20   21 ar
    33   20   34 1
    34   21   35 1
    35   22   23 2
    36   22   24 2
    37   22   25 1
    38   25   36 1
    39   25   37 1
    40   26   38 1
    41   26   39 1
@<TRIPOS>MOLECULE
ZINC13985866
   49    52     0     0     0
SMALL
USER_CHARGES
[(5S)-2-(4-fluorophenyl)-3-(2-propylaminopyrimidin-4-yl)-6,7-dihydro-5H-pyrrolo[1,5-a]imidazol-5-yl]methanol
@<TRIPOS>ATOM
      1 C1         -5.1100    4.6181    5.7006 C.3       1 <0>        -0.1485
      2 C2         -3.9284    4.1781    4.8339 C.3       1 <0>        -0.1385
      3 C3         -4.1981    2.7791    4.2762 C.3       1 <0>         0.1368
      4 N1         -3.0667    2.3578    3.4463 N.pl3     1 <0>        -0.6955
      5 C4         -3.0836    1.1180    2.8309 C.ar      1 <0>         0.5744
      6 N2         -4.1322    0.3257    3.0042 N.ar      1 <0>        -0.5686
      7 C5         -4.1880   -0.8684    2.4336 C.ar      1 <0>         0.2026
      8 C6         -3.1349   -1.2920    1.6458 C.ar      1 <0>        -0.2967
      9 C7         -2.0391   -0.4343    1.4797 C.ar      1 <0>         0.2976
     10 N3         -2.0504    0.7526    2.0897 N.ar      1 <0>        -0.5501
     11 C8         -0.8902   -0.8390    0.6498 C.2       1 <0>         0.0213
     12 C9          0.0021   -0.0041    0.0020 C.2       1 <0>         0.1200
     13 N4          0.8935   -0.7840   -0.6310 N.2       1 <0>        -0.4674
     14 C10         0.6064   -2.0448   -0.4191 C.2       1 <0>         0.2248
     15 N5         -0.4891   -2.1284    0.3602 N.pl3     1 <0>        -0.4577
     16 C11        -0.8525   -3.5292    0.6205 C.3       1 <0>         0.1309
     17 H1         -1.6896   -3.8266   -0.0111 H         1 <0>         0.1108
     18 C12         0.4034   -4.3540    0.2660 C.3       1 <0>        -0.1169
     19 C13         1.1026   -3.4367   -0.7621 C.3       1 <0>        -0.0465
     20 C14        -1.2104   -3.7177    2.0960 C.3       1 <0>         0.0592
     21 O1         -1.6172   -5.0694    2.3186 O.3       1 <0>        -0.5628
     22 C15        -0.0180    1.4773    0.0102 C.ar      1 <0>        -0.0114
     23 C16        -1.2339    2.1604    0.0196 C.ar      1 <0>        -0.0350
     24 C17        -1.2474    3.5397    0.0316 C.ar      1 <0>        -0.1598
     25 C18        -0.0556    4.2466    0.0244 C.ar      1 <0>         0.1045
     26 C19         1.1550    3.5724    0.0097 C.ar      1 <0>        -0.1590
     27 C20         1.1789    2.1932    0.0026 C.ar      1 <0>        -0.0572
     28 F1         -0.0739    5.5974    0.0314 F         1 <0>        -0.1405
     29 H2         -4.9178    5.6148    6.0979 H         1 <0>         0.0614
     30 H3         -6.0169    4.6365    5.0963 H         1 <0>         0.0585
     31 H4         -5.2369    3.9166    6.5251 H         1 <0>         0.0581
     32 H5         -3.0215    4.1598    5.4382 H         1 <0>         0.0690
     33 H6         -3.8015    4.8796    4.0093 H         1 <0>         0.0699
     34 H7         -5.1050    2.7974    3.6719 H         1 <0>         0.0684
     35 H8         -4.3250    2.0775    5.1007 H         1 <0>         0.0674
     36 H9         -2.3058    2.9476    3.3281 H         1 <0>         0.4149
     37 H10        -5.0479   -1.5046    2.5829 H         1 <0>         0.1700
     38 H11        -3.1558   -2.2609    1.1691 H         1 <0>         0.1393
     39 H12         0.1293   -5.3077   -0.1850 H         1 <0>         0.1104
     40 H13         1.0313   -4.5056    1.1441 H         1 <0>         0.0915
     41 H14         0.8086   -3.7071   -1.7763 H         1 <0>         0.1048
     42 H15         2.1853   -3.4940   -0.6500 H         1 <0>         0.1061
     43 H16        -0.3398   -3.4941    2.7126 H         1 <0>         0.0558
     44 H17        -2.0258   -3.0446    2.3609 H         1 <0>         0.0656
     45 H18        -1.8595   -5.2615    3.2348 H         1 <0>         0.3914
     46 H19        -2.1633    1.6103    0.0213 H         1 <0>         0.1206
     47 H20        -2.1884    4.0696    0.0423 H         1 <0>         0.1323
     48 H21         2.0813    4.1277    0.0035 H         1 <0>         0.1370
     49 H22         2.1228    1.6686   -0.0085 H         1 <0>         0.1365
@<TRIPOS>BOND
     1    1    2 1
     2    1   29 1
     3    1   30 1
     4    1   31 1
     5    2    3 1
     6    2   32 1
     7    2   33 1
     8    3    4 1
     9    3   34 1
    10    3   35 1
    11    4    5 1
    12    4   36 1
    13    5   10 ar
    14    5    6 ar
    15    6    7 ar
    16    7    8 ar
    17    7   37 1
    18    8    9 ar
    19    8   38 1
    20    9   10 ar
    21    9   11 1
    22   11   15 1
    23   11   12 2
    24   12   13 1
    25   12   22 1
    26   13   14 2
    27   14   19 1
    28   14   15 1
    29   15   16 1
    30   16   17 1
    31   16   18 1
    32   16   20 1
    33   18   19 1
    34   18   39 1
    35   18   40 1
    36   19   41 1
    37   19   42 1
    38   20   21 1
    39   20   43 1
    40   20   44 1
    41   21   45 1
    42   22   27 ar
    43   22   23 ar
    44   23   24 ar
    45   23   46 1
    46   24   25 ar
    47   24   47 1
    48   25   26 ar
    49   25   28 1
    50   26   27 ar
    51   26   48 1
    52   27   49 1
@<TRIPOS>MOLECULE
ZINC13985866
   50    53     0     0     0
SMALL
USER_CHARGES
[(5S)-2-(4-fluorophenyl)-3-(2-propylaminopyrimidin-4-yl)-6,7-dihydro-5H-pyrrolo[1,5-a]imidazol-5-yl]methanol
@<TRIPOS>ATOM
      1 C1         -5.1100    4.6181    5.7006 C.3       1 <0>        -0.1508
      2 C2         -3.9284    4.1781    4.8339 C.3       1 <0>        -0.1381
      3 C3         -4.1981    2.7791    4.2762 C.3       1 <0>         0.1306
      4 N1         -3.0667    2.3578    3.4463 N.pl3     1 <0>        -0.6858
      5 C4         -3.0836    1.1180    2.8309 C.ar      1 <0>         0.5812
      6 N2         -4.1322    0.3257    3.0042 N.ar      1 <0>        -0.5462
      7 C5         -4.1880   -0.8684    2.4336 C.ar      1 <0>         0.2176
      8 C6         -3.1349   -1.2920    1.6458 C.ar      1 <0>        -0.2809
      9 C7         -2.0391   -0.4343    1.4797 C.ar      1 <0>         0.2599
     10 N3         -2.0504    0.7526    2.0897 N.ar      1 <0>        -0.5470
     11 C8         -0.8902   -0.8390    0.6498 C.2       1 <0>         0.1092
     12 C9          0.0021   -0.0041    0.0020 C.2       1 <0>         0.1523
     13 C10         0.6064   -2.0448   -0.4191 C.cat     1 <0>         0.3031
     14 N4         -0.4891   -2.1284    0.3602 N.pl3     1 <0>        -0.4057
     15 C11        -0.8525   -3.5292    0.6205 C.3       1 <0>         0.1173
     16 H1         -1.6896   -3.8266   -0.0111 H         1 <0>         0.1421
     17 C12         0.4034   -4.3540    0.2660 C.3       1 <0>        -0.1164
     18 C13         1.1026   -3.4367   -0.7621 C.3       1 <0>        -0.0650
     19 C14        -1.2104   -3.7177    2.0960 C.3       1 <0>         0.0572
     20 O1         -1.6172   -5.0694    2.3186 O.3       1 <0>        -0.5563
     21 C15        -0.0180    1.4773    0.0102 C.ar      1 <0>        -0.0748
     22 C16        -1.2339    2.1604    0.0196 C.ar      1 <0>        -0.0096
     23 C17        -1.2474    3.5397    0.0316 C.ar      1 <0>        -0.1550
     24 C18        -0.0556    4.2466    0.0244 C.ar      1 <0>         0.1431
     25 C19         1.1550    3.5724    0.0097 C.ar      1 <0>        -0.1527
     26 C20         1.1789    2.1932    0.0026 C.ar      1 <0>        -0.0591
     27 F1         -0.0739    5.5974    0.0314 F         1 <0>        -0.1233
     28 H2         -4.9178    5.6148    6.0979 H         1 <0>         0.0649
     29 H3         -6.0169    4.6365    5.0963 H         1 <0>         0.0603
     30 H4         -5.2369    3.9166    6.5251 H         1 <0>         0.0600
     31 H5         -3.0215    4.1598    5.4382 H         1 <0>         0.0703
     32 H6         -3.8015    4.8796    4.0093 H         1 <0>         0.0706
     33 H7         -5.1050    2.7974    3.6719 H         1 <0>         0.0746
     34 H8         -4.3250    2.0775    5.1007 H         1 <0>         0.0737
     35 H9         -2.3058    2.9476    3.3281 H         1 <0>         0.4170
     36 H10        -5.0479   -1.5046    2.5829 H         1 <0>         0.1821
     37 H11        -3.1558   -2.2609    1.1691 H         1 <0>         0.1465
     38 H12         0.1293   -5.3077   -0.1850 H         1 <0>         0.1360
     39 H13         1.0313   -4.5056    1.1441 H         1 <0>         0.1096
     40 H14         0.8086   -3.7071   -1.7763 H         1 <0>         0.1390
     41 H15         2.1853   -3.4940   -0.6500 H         1 <0>         0.1347
     42 H16        -0.3398   -3.4941    2.7126 H         1 <0>         0.0641
     43 H17        -2.0258   -3.0446    2.3609 H         1 <0>         0.0720
     44 H18        -1.8595   -5.2615    3.2348 H         1 <0>         0.4040
     45 H19        -2.1633    1.6103    0.0213 H         1 <0>         0.1312
     46 H20        -2.1884    4.0696    0.0423 H         1 <0>         0.1472
     47 H21         2.0813    4.1277    0.0035 H         1 <0>         0.1507
     48 H22         2.1228    1.6686   -0.0085 H         1 <0>         0.1358
     49 N5          0.8946   -0.7835   -0.6318 N.pl3     1 <0>        -0.4706
     50 H23         1.6819   -0.4434   -1.1963 H         1 <0>         0.4792
@<TRIPOS>BOND
     1    1    2 1
     2    1   28 1
     3    1   29 1
     4    1   30 1
     5    2    3 1
     6    2   31 1
     7    2   32 1
     8    3    4 1
     9    3   33 1
    10    3   34 1
    11    4    5 1
    12    4   35 1
    13    5   10 ar
    14    5    6 ar
    15    6    7 ar
    16    7    8 ar
    17    7   36 1
    18    8    9 ar
    19    8   37 1
    20    9   10 ar
    21    9   11 1
    22   11   14 1
    23   11   12 2
    24   12   21 1
    25   12   49 1
    26   13   18 1
    27   13   14 1
    28   13   49 2
    29   14   15 1
    30   15   16 1
    31   15   17 1
    32   15   19 1
    33   17   18 1
    34   17   38 1
    35   17   39 1
    36   18   40 1
    37   18   41 1
    38   19   20 1
    39   19   42 1
    40   19   43 1
    41   20   44 1
    42   21   26 ar
    43   21   22 ar
    44   22   23 ar
    45   22   45 1
    46   23   24 ar
    47   23   46 1
    48   24   25 ar
    49   24   27 1
    50   25   26 ar
    51   25   47 1
    52   26   48 1
    53   49   50 1
@<TRIPOS>MOLECULE
ZINC28528239
   51    54     0     0     0
SMALL
USER_CHARGES
N-[3-[4-(4-fluorophenyl)-5-(4-pyridyl)imidazol-1-yl]propyl]benzamide
@<TRIPOS>ATOM
      1 C1          0.0868    3.2661   -9.8361 C.ar      1 <0>        -0.0923
      2 C2         -0.6992    2.1330   -9.9477 C.ar      1 <0>        -0.1259
      3 C3         -1.4621    1.7110   -8.8786 C.ar      1 <0>        -0.0603
      4 C4         -1.4401    2.4301   -7.6825 C.ar      1 <0>        -0.1370
      5 C5         -0.6494    3.5756   -7.5785 C.ar      1 <0>        -0.0872
      6 C6          0.1132    3.9836   -8.6534 C.ar      1 <0>        -0.1270
      7 C7         -2.2556    1.9840   -6.5328 C.2       1 <0>         0.5613
      8 O1         -2.9471    0.9889   -6.6279 O.2       1 <0>        -0.5369
      9 N1         -2.2322    2.6806   -5.3793 N.am      1 <0>        -0.7384
     10 C8         -3.0402    2.2385   -4.2401 C.3       1 <0>         0.1259
     11 C9         -2.8332    3.1968   -3.0655 C.3       1 <0>        -0.1475
     12 C10        -3.6770    2.7351   -1.8757 C.3       1 <0>         0.1015
     13 N2         -3.5714    3.7156   -0.7923 N.pl3     1 <0>        -0.4443
     14 C11        -4.4407    4.7146   -0.5305 C.2       1 <0>         0.2037
     15 N3         -4.0270    5.3935    0.5033 N.2       1 <0>        -0.4758
     16 C12        -2.8775    4.8637    0.9597 C.2       1 <0>         0.0727
     17 C13        -2.5684    3.7868    0.1481 C.2       1 <0>         0.0153
     18 C14        -1.3965    2.8976    0.2632 C.ar      1 <0>         0.0312
     19 C15        -1.5526    1.5078    0.3520 C.ar      1 <0>        -0.1670
     20 C16        -0.4302    0.7154    0.4628 C.ar      1 <0>         0.1071
     21 N4          0.7774    1.2482    0.4759 N.ar      1 <0>        -0.4793
     22 C17         0.9699    2.5512    0.3896 C.ar      1 <0>         0.1073
     23 C18        -0.0957    3.4187    0.2811 C.ar      1 <0>        -0.1465
     24 C19        -2.0887    5.3444    2.1180 C.ar      1 <0>        -0.0168
     25 C20        -1.4192    4.4336    2.9349 C.ar      1 <0>        -0.0735
     26 C21        -0.6824    4.8865    4.0096 C.ar      1 <0>        -0.1513
     27 C22        -0.6151    6.2430    4.2841 C.ar      1 <0>         0.1027
     28 C23        -1.2825    7.1515    3.4782 C.ar      1 <0>        -0.1529
     29 C24        -2.0179    6.7088    2.3983 C.ar      1 <0>        -0.0616
     30 F1          0.1031    6.6813    5.3411 F         1 <0>        -0.1381
     31 H1          0.6822    3.5923  -10.6761 H         1 <0>         0.1291
     32 H2         -0.7153    1.5774  -10.8737 H         1 <0>         0.1317
     33 H3         -2.0753    0.8263   -8.9669 H         1 <0>         0.1363
     34 H4         -0.6315    4.1390   -6.6573 H         1 <0>         0.1240
     35 H5          0.7288    4.8672   -8.5728 H         1 <0>         0.1302
     36 H6         -1.6064    3.5811   -5.2932 H         1 <0>         0.4205
     37 H7         -4.1027    2.2316   -4.5249 H         1 <0>         0.0737
     38 H8         -2.7333    1.2244   -3.9444 H         1 <0>         0.0721
     39 H9         -1.7707    3.2037   -2.7808 H         1 <0>         0.0789
     40 H10        -3.1401    4.2109   -3.3611 H         1 <0>         0.0827
     41 H11        -4.7284    2.6430   -2.1856 H         1 <0>         0.1080
     42 H12        -3.3116    1.7591   -1.5238 H         1 <0>         0.0983
     43 H13        -5.3387    4.9224   -1.0933 H         1 <0>         0.2121
     44 H14        -2.5374    1.0646    0.3378 H         1 <0>         0.1336
     45 H15        -0.5401   -0.3565    0.5355 H         1 <0>         0.1596
     46 H16         1.9762    2.9429    0.4040 H         1 <0>         0.1605
     47 H17         0.0693    4.4838    0.2113 H         1 <0>         0.1377
     48 H18        -1.4744    3.3758    2.7242 H         1 <0>         0.1277
     49 H19        -0.1606    4.1823    4.6406 H         1 <0>         0.1373
     50 H20        -1.2270    8.2078    3.6961 H         1 <0>         0.1390
     51 H21        -2.5382    7.4175    1.7712 H         1 <0>         0.1381
@<TRIPOS>BOND
     1    1    6 ar
     2    1    2 ar
     3    1   31 1
     4    2    3 ar
     5    2   32 1
     6    3    4 ar
     7    3   33 1
     8    4    5 ar
     9    4    7 1
    10    5    6 ar
    11    5   34 1
    12    6   35 1
    13    7    8 2
    14    7    9 am
    15    9   10 1
    16    9   36 1
    17   10   11 1
    18   10   37 1
    19   10   38 1
    20   11   12 1
    21   11   39 1
    22   11   40 1
    23   12   13 1
    24   12   41 1
    25   12   42 1
    26   13   17 1
    27   13   14 1
    28   14   15 2
    29   14   43 1
    30   15   16 1
    31   16   17 2
    32   16   24 1
    33   17   18 1
    34   18   23 ar
    35   18   19 ar
    36   19   20 ar
    37   19   44 1
    38   20   21 ar
    39   20   45 1
    40   21   22 ar
    41   22   23 ar
    42   22   46 1
    43   23   47 1
    44   24   29 ar
    45   24   25 ar
    46   25   26 ar
    47   25   48 1
    48   26   27 ar
    49   26   49 1
    50   27   28 ar
    51   27   30 1
    52   28   29 ar
    53   28   50 1
    54   29   51 1
@<TRIPOS>MOLECULE
ZINC14959960
   46    47     0     0     0
SMALL
USER_CHARGES

@<TRIPOS>ATOM
      1 C1          2.8824   -6.4072    4.7168 C.3       1 <0>        -0.1552
      2 C2          2.1528   -5.8740    3.4821 C.3       1 <0>         0.0698
      3 O1          2.1422   -4.4455    3.5150 O.3       1 <0>        -0.2974
      4 C3          1.5303   -3.8111    2.4862 C.ar      1 <0>         0.4422
      5 C4          1.4912   -2.4091    2.4579 C.ar      1 <0>        -0.2167
      6 C5          0.8492   -1.7688    1.3776 C.ar      1 <0>         0.3538
      7 C6          0.2819   -2.5616    0.3859 C.ar      1 <0>        -0.3271
      8 C7          0.3649   -3.9424    0.4899 C.ar      1 <0>         0.4673
      9 N1          0.9799   -4.5179    1.5150 N.ar      1 <0>        -0.5640
     10 N2         -0.2018   -4.7376   -0.5010 N.am      1 <0>        -0.6596
     11 C8         -0.0402   -6.0752   -0.4661 C.2       1 <0>         0.5088
     12 O2          0.5194   -6.5939    0.4765 O.2       1 <0>        -0.4507
     13 C9         -0.5549   -6.9261   -1.5983 C.3       1 <0>        -0.0901
     14 C10        -0.2496   -8.3748   -1.3169 C.ar      1 <0>        -0.0653
     15 C11         0.8944   -8.9525   -1.8328 C.ar      1 <0>        -0.0983
     16 C12         1.1756  -10.2855   -1.5735 C.ar      1 <0>         0.0937
     17 C13         0.3082  -11.0388   -0.7960 C.ar      1 <0>        -0.1638
     18 C14        -0.8354  -10.4613   -0.2803 C.ar      1 <0>        -0.1672
     19 C15        -1.1140   -9.1265   -0.5354 C.ar      1 <0>         0.1111
     20 O3         -2.2372   -8.5563   -0.0229 O.3       1 <0>        -0.3149
     21 C16        -3.0823   -9.3894    0.7732 C.3       1 <0>         0.0284
     22 O4          2.3014  -10.8542   -2.0817 O.3       1 <0>        -0.3174
     23 C17         2.5280  -12.2313   -1.7744 C.3       1 <0>         0.0276
     24 N3          0.7849   -0.3856    1.3065 N.pl3     1 <0>        -0.8432
     25 C18         2.0920   -1.6418    3.5072 C.1       1 <0>         0.2733
     26 N4          2.5686   -1.0332    4.3395 N.1       1 <0>        -0.4293
     27 H1          2.3690   -6.0683    5.6167 H         1 <0>         0.0639
     28 H2          2.8905   -7.4969    4.6917 H         1 <0>         0.0806
     29 H3          3.9073   -6.0362    4.7217 H         1 <0>         0.0643
     30 H4          2.6662   -6.2129    2.5823 H         1 <0>         0.0746
     31 H5          1.1279   -6.2450    3.4773 H         1 <0>         0.0734
     32 H6         -0.2184   -2.1070   -0.4564 H         1 <0>         0.1464
     33 H7         -0.7132   -4.3294   -1.2170 H         1 <0>         0.4216
     34 H8         -1.6327   -6.7935   -1.6917 H         1 <0>         0.1130
     35 H9         -0.0701   -6.6265   -2.5275 H         1 <0>         0.1091
     36 H10         1.5696   -8.3661   -2.4384 H         1 <0>         0.1371
     37 H11         0.5270  -12.0770   -0.5944 H         1 <0>         0.1309
     38 H12        -1.5111  -11.0479    0.3244 H         1 <0>         0.1316
     39 H13        -3.4285  -10.2326    0.1754 H         1 <0>         0.0547
     40 H14        -2.5230   -9.7587    1.6327 H         1 <0>         0.0549
     41 H15        -3.9401   -8.8124    1.1185 H         1 <0>         0.0997
     42 H16         3.4575  -12.5592   -2.2399 H         1 <0>         0.1005
     43 H17         2.5992  -12.3555   -0.6939 H         1 <0>         0.0547
     44 H18         1.7002  -12.8295   -2.1552 H         1 <0>         0.0545
     45 H19         1.1847    0.1551    2.0056 H         1 <0>         0.4070
     46 H20         0.3401    0.0415    0.5577 H         1 <0>         0.4117
@<TRIPOS>BOND
     1    1    2 1
     2    1   27 1
     3    1   28 1
     4    1   29 1
     5    2    3 1
     6    2   30 1
     7    2   31 1
     8    3    4 1
     9    4    9 ar
    10    4    5 ar
    11    5    6 ar
    12    5   25 1
    13    6    7 ar
    14    6   24 1
    15    7    8 ar
    16    7   32 1
    17    8    9 ar
    18    8   10 1
    19   10   11 am
    20   10   33 1
    21   11   12 2
    22   11   13 1
    23   13   14 1
    24   13   34 1
    25   13   35 1
    26   14   19 ar
    27   14   15 ar
    28   15   16 ar
    29   15   36 1
    30   16   17 ar
    31   16   22 1
    32   17   18 ar
    33   17   37 1
    34   18   19 ar
    35   18   38 1
    36   19   20 1
    37   20   21 1
    38   21   39 1
    39   21   40 1
    40   21   41 1
    41   22   23 1
    42   23   42 1
    43   23   43 1
    44   23   44 1
    45   24   45 1
    46   24   46 1
    47   25   26 3
@<TRIPOS>MOLECULE
ZINC34802946
   67    71     0     0     0
SMALL
USER_CHARGES

@<TRIPOS>ATOM
      1 C1         -0.0483    1.5024    0.0098 C.3       1 <0>        -0.1268
      2 C2         -0.0195   -0.0043    0.0016 C.ar      1 <0>        -0.0386
      3 C3         -0.0178   -0.6868   -1.1996 C.ar      1 <0>        -0.1235
      4 C4          0.0085   -2.0667   -1.2158 C.ar      1 <0>        -0.0785
      5 C5          0.0330   -2.7811   -0.0158 C.ar      1 <0>        -0.1428
      6 C6          0.0314   -2.0969    1.1984 C.ar      1 <0>        -0.0380
      7 C7          0.0111   -0.7058    1.2063 C.ar      1 <0>        -0.0517
      8 C8          0.0158    0.0300    2.4946 C.ar      1 <0>        -0.0766
      9 C9          0.9293    1.0770    2.6951 C.ar      1 <0>        -0.0509
     10 C10         0.9551    1.7681    3.8654 C.ar      1 <0>        -0.1204
     11 C11         0.0589    1.4368    4.8939 C.ar      1 <0>         0.2183
     12 C12        -0.8687    0.3799    4.7012 C.ar      1 <0>        -0.2144
     13 C13        -0.8839   -0.3174    3.4865 C.ar      1 <0>        -0.0354
     14 C14        -1.7564    0.0690    5.7490 C.ar      1 <0>         0.2451
     15 N1         -1.6869    0.7718    6.8601 N.ar      1 <0>        -0.5576
     16 C15        -0.8035    1.7573    7.0067 C.ar      1 <0>         0.5740
     17 N2          0.0519    2.0930    6.0606 N.ar      1 <0>        -0.5737
     18 N3         -0.7822    2.4573    8.1995 N.pl3     1 <0>        -0.6964
     19 C16        -1.7195    2.1088    9.2701 C.3       1 <0>         0.1398
     20 C17        -1.4872    3.0285   10.4706 C.3       1 <0>         0.0428
     21 N4         -2.4271    2.6791   11.5442 N.3       1 <0>        -0.5321
     22 C18        -3.8120    2.9741   11.1487 C.3       1 <0>         0.0117
     23 C19        -4.7604    2.5406   12.2697 C.3       1 <0>         0.0630
     24 O1         -4.3910    3.2025   13.4824 O.3       1 <0>        -0.3850
     25 C20        -3.0483    2.9369   13.8974 C.3       1 <0>         0.0630
     26 C21        -2.0826    3.3743   12.7929 C.3       1 <0>         0.0183
     27 C22         0.0602   -4.2590   -0.0337 C.2       1 <0>         0.5622
     28 O2          0.0816   -4.8792    1.0117 O.2       1 <0>        -0.5109
     29 N5          0.0613   -4.9189   -1.2088 N.am      1 <0>        -0.6699
     30 C23         0.1847   -6.3117   -1.2285 C.ar      1 <0>         0.1443
     31 C24         0.8894   -6.9337   -2.2514 C.ar      1 <0>        -0.1118
     32 C25         1.0099   -8.3092   -2.2677 C.ar      1 <0>        -0.0994
     33 C26         0.4298   -9.0675   -1.2671 C.ar      1 <0>        -0.0865
     34 C27        -0.2722   -8.4516   -0.2475 C.ar      1 <0>        -0.1641
     35 C28        -0.3920   -7.0758   -0.2225 C.ar      1 <0>        -0.0722
     36 C29        -0.9025   -9.2820    0.8407 C.3       1 <0>         0.5092
     37 F1         -0.6426  -10.6360    0.6040 F         1 <0>        -0.1761
     38 F2         -0.3653   -8.9135    2.0788 F         1 <0>        -0.1725
     39 F3         -2.2849   -9.0671    0.8497 F         1 <0>        -0.1757
     40 H1          0.9721    1.8854   -0.0029 H         1 <0>         0.0793
     41 H2         -0.5817    1.8604   -0.8708 H         1 <0>         0.0726
     42 H3         -0.5562    1.8513    0.9089 H         1 <0>         0.0756
     43 H4         -0.0375   -0.1384   -2.1297 H         1 <0>         0.1346
     44 H5          0.0097   -2.5949   -2.1579 H         1 <0>         0.1271
     45 H6          0.0504   -2.6442    2.1292 H         1 <0>         0.1408
     46 H7          1.6219    1.3369    1.9082 H         1 <0>         0.1341
     47 H8          1.6644    2.5707    4.0039 H         1 <0>         0.1396
     48 H9         -1.5883   -1.1204    3.3272 H         1 <0>         0.1367
     49 H10        -2.4780   -0.7275    5.6434 H         1 <0>         0.1790
     50 H11        -0.1467    3.1789    8.3270 H         1 <0>         0.4144
     51 H12        -2.7417    2.2301    8.9119 H         1 <0>         0.0688
     52 H13        -1.5600    1.0730    9.5698 H         1 <0>         0.0789
     53 H14        -0.4650    2.9072   10.8288 H         1 <0>         0.0845
     54 H15        -1.6467    4.0643   10.1709 H         1 <0>         0.0436
     55 H16        -3.9204    4.0444   10.9738 H         1 <0>         0.0453
     56 H17        -4.0538    2.4291   10.2363 H         1 <0>         0.0911
     57 H18        -5.7831    2.8094   12.0054 H         1 <0>         0.1000
     58 H19        -4.6911    1.4617   12.4082 H         1 <0>         0.0622
     59 H20        -2.8329    3.4922   14.8102 H         1 <0>         0.1003
     60 H21        -2.9293    1.8694   14.0832 H         1 <0>         0.0619
     61 H22        -1.0621    3.1215   13.0806 H         1 <0>         0.0888
     62 H23        -2.1634    4.4511   12.6442 H         1 <0>         0.0455
     63 H24        -0.0236   -4.4277   -2.0409 H         1 <0>         0.4141
     64 H25         1.3423   -6.3421   -3.0333 H         1 <0>         0.1370
     65 H26         1.5573   -8.7933   -3.0629 H         1 <0>         0.1416
     66 H27         0.5252  -10.1432   -1.2823 H         1 <0>         0.1414
     67 H28        -0.9370   -6.5950    0.5764 H         1 <0>         0.1510
@<TRIPOS>BOND
     1    1    2 1
     2    1   40 1
     3    1   41 1
     4    1   42 1
     5    2    7 ar
     6    2    3 ar
     7    3    4 ar
     8    3   43 1
     9    4    5 ar
    10    4   44 1
    11    5    6 ar
    12    5   27 1
    13    6    7 ar
    14    6   45 1
    15    7    8 1
    16    8   13 ar
    17    8    9 ar
    18    9   10 ar
    19    9   46 1
    20   10   11 ar
    21   10   47 1
    22   11   17 ar
    23   11   12 ar
    24   12   13 ar
    25   12   14 ar
    26   13   48 1
    27   14   15 ar
    28   14   49 1
    29   15   16 ar
    30   16   17 ar
    31   16   18 1
    32   18   19 1
    33   18   50 1
    34   19   20 1
    35   19   51 1
    36   19   52 1
    37   20   21 1
    38   20   53 1
    39   20   54 1
    40   21   26 1
    41   21   22 1
    42   22   23 1
    43   22   55 1
    44   22   56 1
    45   23   24 1
    46   23   57 1
    47   23   58 1
    48   24   25 1
    49   25   26 1
    50   25   59 1
    51   25   60 1
    52   26   61 1
    53   26   62 1
    54   27   28 2
    55   27   29 am
    56   29   30 1
    57   29   63 1
    58   30   35 ar
    59   30   31 ar
    60   31   32 ar
    61   31   64 1
    62   32   33 ar
    63   32   65 1
    64   33   34 ar
    65   33   66 1
    66   34   35 ar
    67   34   36 1
    68   35   67 1
    69   36   37 1
    70   36   38 1
    71   36   39 1
@<TRIPOS>MOLECULE
ZINC34802946
   68    72     0     0     0
SMALL
USER_CHARGES

@<TRIPOS>ATOM
      1 C1         -0.0483    1.5024    0.0098 C.3       1 <0>        -0.1276
      2 C2         -0.0195   -0.0043    0.0016 C.ar      1 <0>        -0.0366
      3 C3         -0.0178   -0.6868   -1.1996 C.ar      1 <0>        -0.1221
      4 C4          0.0085   -2.0667   -1.2158 C.ar      1 <0>        -0.0731
      5 C5          0.0330   -2.7811   -0.0158 C.ar      1 <0>        -0.1410
      6 C6          0.0314   -2.0969    1.1984 C.ar      1 <0>        -0.0362
      7 C7          0.0111   -0.7058    1.2063 C.ar      1 <0>        -0.0635
      8 C8          0.0158    0.0300    2.4946 C.ar      1 <0>        -0.0553
      9 C9          0.9293    1.0770    2.6951 C.ar      1 <0>        -0.0467
     10 C10         0.9551    1.7681    3.8654 C.ar      1 <0>        -0.1170
     11 C11         0.0589    1.4368    4.8939 C.ar      1 <0>         0.2111
     12 C12        -0.8687    0.3799    4.7012 C.ar      1 <0>        -0.2001
     13 C13        -0.8839   -0.3174    3.4865 C.ar      1 <0>        -0.0453
     14 C14        -1.7564    0.0690    5.7490 C.ar      1 <0>         0.2479
     15 N1         -1.6869    0.7718    6.8601 N.ar      1 <0>        -0.5684
     16 C15        -0.8035    1.7573    7.0067 C.ar      1 <0>         0.5623
     17 N2          0.0519    2.0930    6.0606 N.ar      1 <0>        -0.5576
     18 N3         -0.7822    2.4573    8.1995 N.pl3     1 <0>        -0.7040
     19 C16        -1.7195    2.1088    9.2701 C.3       1 <0>         0.1188
     20 C17        -1.4872    3.0285   10.4706 C.3       1 <0>        -0.0230
     21 N4         -2.4271    2.6791   11.5442 N.4       1 <0>        -0.3805
     22 C18        -3.8007    2.9572   11.1027 C.3       1 <0>        -0.0511
     23 C19        -4.7779    2.5921   12.2228 C.3       1 <0>         0.0367
     24 O1         -4.4442    3.3332   13.3998 O.3       1 <0>        -0.3561
     25 C20        -3.1064    3.1140   13.8559 C.3       1 <0>         0.0359
     26 C21        -2.1261    3.4800   12.7388 C.3       1 <0>        -0.0426
     27 C22         0.0602   -4.2590   -0.0337 C.2       1 <0>         0.5618
     28 O2          0.0816   -4.8792    1.0117 O.2       1 <0>        -0.5123
     29 N5          0.0613   -4.9189   -1.2088 N.am      1 <0>        -0.6683
     30 C23         0.1847   -6.3117   -1.2285 C.ar      1 <0>         0.1414
     31 C24         0.8894   -6.9337   -2.2514 C.ar      1 <0>        -0.1102
     32 C25         1.0099   -8.3092   -2.2677 C.ar      1 <0>        -0.0984
     33 C26         0.4298   -9.0675   -1.2671 C.ar      1 <0>        -0.0844
     34 C27        -0.2722   -8.4516   -0.2475 C.ar      1 <0>        -0.1647
     35 C28        -0.3920   -7.0758   -0.2225 C.ar      1 <0>        -0.0721
     36 C29        -0.9025   -9.2820    0.8407 C.3       1 <0>         0.5095
     37 F1         -0.6426  -10.6360    0.6040 F         1 <0>        -0.1749
     38 F2         -0.3653   -8.9135    2.0788 F         1 <0>        -0.1737
     39 F3         -2.2849   -9.0671    0.8497 F         1 <0>        -0.1759
     40 H1          0.9721    1.8854   -0.0029 H         1 <0>         0.0806
     41 H2         -0.5817    1.8604   -0.8708 H         1 <0>         0.0754
     42 H3         -0.5562    1.8513    0.9089 H         1 <0>         0.0730
     43 H4         -0.0375   -0.1384   -2.1297 H         1 <0>         0.1371
     44 H5          0.0097   -2.5949   -2.1579 H         1 <0>         0.1298
     45 H6          0.0504   -2.6442    2.1292 H         1 <0>         0.1405
     46 H7          1.6219    1.3369    1.9082 H         1 <0>         0.1398
     47 H8          1.6644    2.5707    4.0039 H         1 <0>         0.1435
     48 H9         -1.5883   -1.1204    3.3272 H         1 <0>         0.1410
     49 H10        -2.4780   -0.7275    5.6434 H         1 <0>         0.1829
     50 H11        -0.1467    3.1789    8.3270 H         1 <0>         0.4205
     51 H12        -2.7417    2.2301    8.9119 H         1 <0>         0.0871
     52 H13        -1.5600    1.0730    9.5698 H         1 <0>         0.0876
     53 H14        -0.4650    2.9072   10.8288 H         1 <0>         0.1408
     54 H15        -1.6467    4.0643   10.1709 H         1 <0>         0.1388
     55 H16        -3.8989    4.0165   10.8654 H         1 <0>         0.1412
     56 H17        -4.0250    2.3635   10.2165 H         1 <0>         0.1457
     57 H18        -5.7940    2.8378   11.9139 H         1 <0>         0.1434
     58 H19        -4.7086    1.5248   12.4329 H         1 <0>         0.0831
     59 H20        -2.9127    3.7373   14.7289 H         1 <0>         0.1435
     60 H21        -2.9799    2.0645   14.1218 H         1 <0>         0.0826
     61 H22        -1.1073    3.2744   13.0672 H         1 <0>         0.1445
     62 H23        -2.2249    4.5391   12.5009 H         1 <0>         0.1407
     63 H24        -0.0236   -4.4277   -2.0409 H         1 <0>         0.4145
     64 H25         1.3423   -6.3421   -3.0333 H         1 <0>         0.1377
     65 H26         1.5573   -8.7933   -3.0629 H         1 <0>         0.1430
     66 H27         0.5252  -10.1432   -1.2823 H         1 <0>         0.1425
     67 H28        -0.9370   -6.5950    0.5764 H         1 <0>         0.1500
     68 H29        -2.3364    1.6987   11.7648 H         1 <0>         0.4260
@<TRIPOS>BOND
     1    1    2 1
     2    1   40 1
     3    1   41 1
     4    1   42 1
     5    2    7 ar
     6    2    3 ar
     7    3    4 ar
     8    3   43 1
     9    4    5 ar
    10    4   44 1
    11    5    6 ar
    12    5   27 1
    13    6    7 ar
    14    6   45 1
    15    7    8 1
    16    8   13 ar
    17    8    9 ar
    18    9   10 ar
    19    9   46 1
    20   10   11 ar
    21   10   47 1
    22   11   17 ar
    23   11   12 ar
    24   12   13 ar
    25   12   14 ar
    26   13   48 1
    27   14   15 ar
    28   14   49 1
    29   15   16 ar
    30   16   17 ar
    31   16   18 1
    32   18   19 1
    33   18   50 1
    34   19   20 1
    35   19   51 1
    36   19   52 1
    37   20   21 1
    38   20   53 1
    39   20   54 1
    40   21   26 1
    41   21   22 1
    42   21   68 1
    43   22   23 1
    44   22   55 1
    45   22   56 1
    46   23   24 1
    47   23   57 1
    48   23   58 1
    49   24   25 1
    50   25   26 1
    51   25   59 1
    52   25   60 1
    53   26   61 1
    54   26   62 1
    55   27   28 2
    56   27   29 am
    57   29   30 1
    58   29   63 1
    59   30   35 ar
    60   30   31 ar
    61   31   32 ar
    62   31   64 1
    63   32   33 ar
    64   32   65 1
    65   33   34 ar
    66   33   66 1
    67   34   35 ar
    68   34   36 1
    69   35   67 1
    70   36   37 1
    71   36   38 1
    72   36   39 1
@<TRIPOS>MOLECULE
ZINC00135906
   34    36     0     0     0
SMALL
USER_CHARGES
N-(3-cyano-4,5,6,7-tetrahydrobenzothiophen-2-yl)benzamide
@<TRIPOS>ATOM
      1 C1         -3.3312   11.1796   -4.0455 C.ar      1 <0>        -0.0832
      2 C2         -3.3111   10.1758   -4.9976 C.ar      1 <0>        -0.1252
      3 C3         -2.9697    8.8880   -4.6396 C.ar      1 <0>        -0.0504
      4 C4         -2.6443    8.5987   -3.3132 C.ar      1 <0>        -0.1408
      5 C5         -2.6722    9.6150   -2.3566 C.ar      1 <0>        -0.0843
      6 C6         -3.0098   10.8996   -2.7292 C.ar      1 <0>        -0.1242
      7 C7         -2.2780    7.2213   -2.9223 C.2       1 <0>         0.5591
      8 O1         -2.2595    6.3373   -3.7566 O.2       1 <0>        -0.4905
      9 N1         -1.9644    6.9452   -1.6409 N.am      1 <0>        -0.6177
     10 C8         -1.6207    5.6527   -1.2741 C.2       1 <0>         0.0907
     11 C9         -1.2706    5.1773   -0.0188 C.2       1 <0>        -0.1304
     12 C10        -0.9512    3.7654    0.0999 C.2       1 <0>        -0.0601
     13 C11        -1.0317    3.0588   -1.0494 C.2       1 <0>        -0.2067
     14 S1         -1.5237    4.2401   -2.2727 S.3       1 <0>         0.2578
     15 C12        -0.7609    1.5973   -1.2317 C.3       1 <0>        -0.0364
     16 C13        -0.0127    1.0858    0.0080 C.3       1 <0>        -0.1156
     17 C14        -0.7351    1.5825    1.2637 C.3       1 <0>        -0.1197
     18 C15        -0.5507    3.0936    1.4075 C.3       1 <0>        -0.0621
     19 C16        -1.2263    6.0466    1.1183 C.1       1 <0>         0.2678
     20 N2         -1.1911    6.7361    2.0204 N.1       1 <0>        -0.4242
     21 H1         -3.5986   12.1862   -4.3313 H         1 <0>         0.1326
     22 H2         -3.5630   10.4010   -6.0234 H         1 <0>         0.1358
     23 H3         -2.9544    8.1054   -5.3837 H         1 <0>         0.1414
     24 H4         -2.4255    9.3970   -1.3280 H         1 <0>         0.1241
     25 H5         -3.0278   11.6877   -1.9909 H         1 <0>         0.1338
     26 H6         -1.9792    7.6506   -0.9753 H         1 <0>         0.4204
     27 H7         -0.1472    1.4454   -2.1196 H         1 <0>         0.0837
     28 H8         -1.7028    1.0594   -1.3400 H         1 <0>         0.0853
     29 H9          0.0021   -0.0041    0.0020 H         1 <0>         0.0753
     30 H10         1.0092    1.4651    0.0003 H         1 <0>         0.0693
     31 H11        -1.7982    1.3558    1.1833 H         1 <0>         0.0682
     32 H12        -0.3244    1.0808    2.1399 H         1 <0>         0.0717
     33 H13         0.4945    3.3126    1.6258 H         1 <0>         0.0800
     34 H14        -1.1788    3.4657    2.2169 H         1 <0>         0.0745
@<TRIPOS>BOND
     1    1    6 ar
     2    1    2 ar
     3    1   21 1
     4    2    3 ar
     5    2   22 1
     6    3    4 ar
     7    3   23 1
     8    4    5 ar
     9    4    7 1
    10    5    6 ar
    11    5   24 1
    12    6   25 1
    13    7    8 2
    14    7    9 am
    15    9   10 1
    16    9   26 1
    17   10   14 1
    18   10   11 2
    19   11   12 1
    20   11   19 1
    21   12   18 1
    22   12   13 2
    23   13   14 1
    24   13   15 1
    25   15   16 1
    26   15   27 1
    27   15   28 1
    28   16   17 1
    29   16   29 1
    30   16   30 1
    31   17   18 1
    32   17   31 1
    33   17   32 1
    34   18   33 1
    35   18   34 1
    36   19   20 3
@<TRIPOS>MOLECULE
ZINC14951176
   39    42     0     0     0
SMALL
USER_CHARGES

@<TRIPOS>ATOM
      1 C1          0.2405    1.0255    0.8302 C.ar      1 <0>        -0.0645
      2 C2          1.4224    1.7334    0.7710 C.ar      1 <0>        -0.1488
      3 C3          2.3671    1.4303   -0.1967 C.ar      1 <0>         0.1270
      4 C4          2.1300    0.4154   -1.1103 C.ar      1 <0>        -0.1484
      5 C5          0.9516   -0.2992   -1.0607 C.ar      1 <0>        -0.0503
      6 C6         -0.0037    0.0016   -0.0874 C.ar      1 <0>        -0.0633
      7 C7         -1.2678   -0.7602   -0.0291 C.2       1 <0>         0.1046
      8 C8         -1.3961   -2.1162   -0.0863 C.2       1 <0>         0.0796
      9 N1         -2.7456   -2.4073    0.0017 N.pl3     1 <0>        -0.5519
     10 C9         -3.4195   -1.2472    0.1100 C.2       1 <0>         0.4661
     11 C10        -4.8730   -1.1131    0.2269 C.2       1 <0>        -0.2712
     12 C11        -5.4545    0.1603    0.3285 C.2       1 <0>        -0.0131
     13 C12        -6.8063    0.2847    0.4372 C.2       1 <0>        -0.2432
     14 C13        -7.6177   -0.8599    0.4477 C.2       1 <0>         0.3274
     15 O1         -8.9418   -0.7377    0.5542 O.2       1 <0>        -0.6199
     16 C14        -7.0368   -2.1329    0.3456 C.2       1 <0>        -0.2432
     17 C15        -5.6854   -2.2577    0.2315 C.2       1 <0>        -0.0132
     18 N2         -2.5363   -0.2302    0.0993 N.pl3     1 <0>        -0.5537
     19 C16        -0.2980   -3.0933   -0.2185 C.ar      1 <0>         0.0029
     20 C17         0.8460   -3.0046    0.5859 C.ar      1 <0>        -0.1375
     21 C18         1.8471   -3.9391    0.4288 C.ar      1 <0>         0.1110
     22 N3          1.7384   -4.9058   -0.4634 N.ar      1 <0>        -0.4697
     23 C19         0.6787   -5.0262   -1.2411 C.ar      1 <0>         0.1111
     24 C20        -0.3725   -4.1394   -1.1479 C.ar      1 <0>        -0.1541
     25 F1          3.5233    2.1271   -0.2501 F         1 <0>        -0.1285
     26 H1         -0.4930    1.2596    1.5875 H         1 <0>         0.1388
     27 H2          1.6122    2.5258    1.4800 H         1 <0>         0.1474
     28 H3          2.8693    0.1839   -1.8628 H         1 <0>         0.1469
     29 H4          0.7677   -1.0896   -1.7733 H         1 <0>         0.1375
     30 H5         -3.1383   -3.2941   -0.0126 H         1 <0>         0.4530
     31 H6         -4.8300    1.0414    0.3209 H         1 <0>         0.1049
     32 H7         -7.2538    1.2645    0.5158 H         1 <0>         0.1221
     33 H8         -7.6616   -3.0138    0.3533 H         1 <0>         0.1221
     34 H9         -5.2386   -3.2374    0.1489 H         1 <0>         0.1046
     35 H10        -2.7542    0.7126    0.1673 H         1 <0>         0.4532
     36 H11         0.9421   -2.2159    1.3174 H         1 <0>         0.1420
     37 H12         2.7328   -3.8793    1.0439 H         1 <0>         0.1658
     38 H13         0.6328   -5.8333   -1.9573 H         1 <0>         0.1659
     39 H14        -1.2383   -4.2467   -1.7845 H         1 <0>         0.1405
@<TRIPOS>BOND
     1    1    6 ar
     2    1    2 ar
     3    1   26 1
     4    2    3 ar
     5    2   27 1
     6    3    4 ar
     7    3   25 1
     8    4    5 ar
     9    4   28 1
    10    5    6 ar
    11    5   29 1
    12    6    7 1
    13    7   18 1
    14    7    8 2
    15    8    9 1
    16    8   19 1
    17    9   10 1
    18    9   30 1
    19   10   11 2
    20   10   18 1
    21   11   17 1
    22   11   12 1
    23   12   13 2
    24   12   31 1
    25   13   14 1
    26   13   32 1
    27   14   15 2
    28   14   16 1
    29   16   17 2
    30   16   33 1
    31   17   34 1
    32   18   35 1
    33   19   24 ar
    34   19   20 ar
    35   20   21 ar
    36   20   36 1
    37   21   22 ar
    38   21   37 1
    39   22   23 ar
    40   23   24 ar
    41   23   38 1
    42   24   39 1
@<TRIPOS>MOLECULE
ZINC14951176
   40    43     0     0     0
SMALL
USER_CHARGES

@<TRIPOS>ATOM
      1 C1          0.2405    1.0255    0.8302 C.ar      1 <0>        -0.0528
      2 C2          1.4224    1.7334    0.7710 C.ar      1 <0>        -0.1439
      3 C3          2.3671    1.4303   -0.1967 C.ar      1 <0>         0.1411
      4 C4          2.1300    0.4154   -1.1103 C.ar      1 <0>        -0.1508
      5 C5          0.9516   -0.2992   -1.0607 C.ar      1 <0>        -0.0597
      6 C6         -0.0037    0.0016   -0.0874 C.ar      1 <0>        -0.0905
      7 C7         -1.2678   -0.7602   -0.0291 C.2       1 <0>         0.1717
      8 C8         -1.3961   -2.1162   -0.0863 C.2       1 <0>         0.0049
      9 N1         -2.7456   -2.4073    0.0017 N.pl3     1 <0>        -0.5619
     10 C9         -3.4195   -1.2472    0.1100 C.2       1 <0>         0.4672
     11 C10        -4.8730   -1.1131    0.2269 C.2       1 <0>        -0.2599
     12 C11        -5.6849   -2.2580    0.2378 C.2       1 <0>        -0.0193
     13 C12        -7.0367   -2.1330    0.3465 C.2       1 <0>        -0.2271
     14 C13        -7.6177   -0.8599    0.4475 C.2       1 <0>         0.3291
     15 O1         -8.9418   -0.7377    0.5539 O.2       1 <0>        -0.5899
     16 C14        -6.8064    0.2847    0.4370 C.2       1 <0>        -0.2265
     17 C15        -5.4541    0.1600    0.3338 C.2       1 <0>        -0.0193
     18 N2         -2.5363   -0.2302    0.0993 N.pl3     1 <0>        -0.5609
     19 C16        -0.2980   -3.0933   -0.2185 C.ar      1 <0>         0.1131
     20 C17         0.8460   -3.0046    0.5859 C.ar      1 <0>        -0.1113
     21 C18         1.8471   -3.9391    0.4288 C.ar      1 <0>         0.1475
     22 N3          1.7384   -4.9058   -0.4634 N.ar      1 <0>        -0.4453
     23 C19         0.6789   -5.0260   -1.2413 C.ar      1 <0>         0.1502
     24 C20        -0.3725   -4.1394   -1.1479 C.ar      1 <0>        -0.1247
     25 F1          3.5233    2.1271   -0.2501 F         1 <0>        -0.1206
     26 H1         -0.4930    1.2596    1.5875 H         1 <0>         0.1448
     27 H2          1.6122    2.5258    1.4800 H         1 <0>         0.1545
     28 H3          2.8693    0.1839   -1.8628 H         1 <0>         0.1503
     29 H4          0.7677   -1.0896   -1.7733 H         1 <0>         0.1343
     30 H5         -3.1383   -3.2941   -0.0126 H         1 <0>         0.4541
     31 H6         -5.2377   -3.2379    0.1597 H         1 <0>         0.1066
     32 H7         -7.6615   -3.0138    0.3545 H         1 <0>         0.1278
     33 H8         -7.2539    1.2645    0.5152 H         1 <0>         0.1286
     34 H9         -4.8293    1.0409    0.3299 H         1 <0>         0.1087
     35 H10        -2.7542    0.7126    0.1673 H         1 <0>         0.4588
     36 H11         0.9421   -2.2159    1.3174 H         1 <0>         0.1893
     37 H12         2.7328   -3.8793    1.0439 H         1 <0>         0.2181
     38 H13         0.6331   -5.8328   -1.9578 H         1 <0>         0.2182
     39 H14        -1.2383   -4.2467   -1.7845 H         1 <0>         0.1884
     40 H15         2.4602   -5.5480   -0.5503 H         1 <0>         0.4572
@<TRIPOS>BOND
     1    1    6 ar
     2    1    2 ar
     3    1   26 1
     4    2    3 ar
     5    2   27 1
     6    3    4 ar
     7    3   25 1
     8    4    5 ar
     9    4   28 1
    10    5    6 ar
    11    5   29 1
    12    6    7 1
    13    7   18 1
    14    7    8 2
    15    8    9 1
    16    8   19 1
    17    9   10 1
    18    9   30 1
    19   10   11 2
    20   10   18 1
    21   11   17 1
    22   11   12 1
    23   12   13 2
    24   12   31 1
    25   13   14 1
    26   13   32 1
    27   14   15 2
    28   14   16 1
    29   16   17 2
    30   16   33 1
    31   17   34 1
    32   18   35 1
    33   19   24 ar
    34   19   20 ar
    35   20   21 ar
    36   20   36 1
    37   21   22 ar
    38   21   37 1
    39   22   23 ar
    40   22   40 1
    41   23   24 ar
    42   23   38 1
    43   24   39 1
@<TRIPOS>MOLECULE
ZINC14951176
   39    42     0     0     0
SMALL
USER_CHARGES

@<TRIPOS>ATOM
      1 C1         -0.0169    1.3921    0.0097 C.ar      1 <0>        -0.0566
      2 C2          1.1683    2.0955    0.0022 C.ar      1 <0>        -0.1420
      3 C3          2.3804    1.4175   -0.0135 C.ar      1 <0>         0.1205
      4 C4          2.4035    0.0288   -0.0217 C.ar      1 <0>        -0.1413
      5 C5          1.2227   -0.6820   -0.0137 C.ar      1 <0>        -0.0915
      6 C6          0.0021   -0.0041    0.0020 C.ar      1 <0>        -0.0305
      7 C7         -1.2663   -0.7622    0.0101 C.2       1 <0>         0.2668
      8 N1         -2.4688   -0.2344    0.0239 N.2       1 <0>        -0.4516
      9 H1         -0.6429   -2.7598   -0.0166 H         1 <0>         0.4248
     10 C8         -3.3891   -1.2133    0.0276 C.2       1 <0>         0.0607
     11 C9         -2.7170   -2.4244    0.0153 C.2       1 <0>         0.0509
     12 N2         -1.3752   -2.1239   -0.0017 N.pl3     1 <0>        -0.5528
     13 C10        -3.3214   -3.7709    0.0147 C.ar      1 <0>        -0.0389
     14 C11        -4.3834   -4.0632    0.8738 C.ar      1 <0>        -0.0572
     15 C12        -4.9440   -5.3230    0.8688 C.ar      1 <0>        -0.1473
     16 C13        -4.4555   -6.2985    0.0139 C.ar      1 <0>         0.1118
     17 C14        -3.4017   -6.0145   -0.8405 C.ar      1 <0>        -0.1493
     18 C15        -2.8374   -4.7564   -0.8492 C.ar      1 <0>        -0.0780
     19 F1         -5.0084   -7.5311    0.0136 F         1 <0>        -0.1337
     20 C16        -4.8582   -1.0303    0.0430 C.ar      1 <0>         0.0400
     21 C17        -5.7004   -1.9173   -0.6371 C.ar      1 <0>        -0.1586
     22 C18        -7.0629   -1.7095   -0.5964 C.ar      1 <0>         0.1014
     23 N3         -7.5737   -0.6921    0.0713 N.ar      1 <0>        -0.4840
     24 C19        -6.8154    0.1672    0.7258 C.ar      1 <0>         0.1006
     25 C20        -5.4433    0.0310    0.7427 C.ar      1 <0>        -0.1465
     26 O1          3.5463    2.1144   -0.0214 O.3       1 <0>        -0.4977
     27 H2         -0.9589    1.9200    0.0260 H         1 <0>         0.1437
     28 H3          1.1545    3.1754    0.0081 H         1 <0>         0.1381
     29 H4          3.3480   -0.4948   -0.0346 H         1 <0>         0.1359
     30 H5          1.2415   -1.7618   -0.0204 H         1 <0>         0.1230
     31 H6         -4.7644   -3.3041    1.5409 H         1 <0>         0.1365
     32 H7         -5.7651   -5.5501    1.5325 H         1 <0>         0.1435
     33 H8         -3.0248   -6.7788   -1.5040 H         1 <0>         0.1419
     34 H9         -2.0195   -4.5348   -1.5187 H         1 <0>         0.1326
     35 H10        -5.2894   -2.7518   -1.1857 H         1 <0>         0.1340
     36 H11        -7.7211   -2.3883   -1.1184 H         1 <0>         0.1574
     37 H12        -7.2760    0.9856    1.2591 H         1 <0>         0.1586
     38 H13        -4.8292    0.7351    1.2845 H         1 <0>         0.1395
     39 H14         3.8927    2.3115    0.8597 H         1 <0>         0.3954
@<TRIPOS>BOND
     1    1    6 ar
     2    1    2 ar
     3    1   27 1
     4    2    3 ar
     5    2   28 1
     6    3    4 ar
     7    3   26 1
     8    4    5 ar
     9    4   29 1
    10    5    6 ar
    11    5   30 1
    12    6    7 1
    13    7    8 2
    14    7   12 1
    15    8   10 1
    16    9   12 1
    17   10   20 1
    18   10   11 2
    19   11   13 1
    20   11   12 1
    21   13   18 ar
    22   13   14 ar
    23   14   15 ar
    24   14   31 1
    25   15   16 ar
    26   15   32 1
    27   16   17 ar
    28   16   19 1
    29   17   18 ar
    30   17   33 1
    31   18   34 1
    32   20   25 ar
    33   20   21 ar
    34   21   22 ar
    35   21   35 1
    36   22   23 ar
    37   22   36 1
    38   23   24 ar
    39   24   25 ar
    40   24   37 1
    41   25   38 1
    42   26   39 1
@<TRIPOS>MOLECULE
ZINC14951176
   40    43     0     0     0
SMALL
USER_CHARGES

@<TRIPOS>ATOM
      1 C1         -0.0079    1.3560    0.4128 C.ar      1 <0>        -0.0502
      2 C2          1.1789    2.0446    0.5411 C.ar      1 <0>        -0.1379
      3 C3          2.3872    1.3600    0.5181 C.ar      1 <0>         0.1743
      4 C4          2.4048   -0.0205    0.3656 C.ar      1 <0>        -0.1372
      5 C5          1.2223   -0.7164    0.2363 C.ar      1 <0>        -0.0529
      6 C6          0.0054   -0.0319    0.2597 C.ar      1 <0>        -0.1114
      7 C7         -1.2648   -0.7743    0.1224 C.cat     1 <0>         0.3974
      8 N1         -2.5103   -0.2175    0.1240 N.pl3     1 <0>        -0.5055
      9 H1         -2.7195    0.7253    0.2141 H         1 <0>         0.4639
     10 C8         -3.4150   -1.2456   -0.0267 C.2       1 <0>         0.1188
     11 C9         -2.6710   -2.4104   -0.1160 C.2       1 <0>         0.1124
     12 N2         -1.3744   -2.0755   -0.0265 N.pl3     1 <0>        -0.4709
     13 C10        -3.2098   -3.7802   -0.2862 C.ar      1 <0>        -0.0876
     14 C11        -4.1834   -4.0340   -1.2519 C.ar      1 <0>        -0.0424
     15 C12        -4.6816   -5.3110   -1.4069 C.ar      1 <0>        -0.1470
     16 C13        -4.2164   -6.3406   -0.6047 C.ar      1 <0>         0.1433
     17 C14        -3.2491   -6.0935    0.3562 C.ar      1 <0>        -0.1478
     18 C15        -2.7406   -4.8209    0.5148 C.ar      1 <0>        -0.0599
     19 F1         -4.7080   -7.5895   -0.7596 F         1 <0>        -0.1208
     20 C16        -4.8840   -1.1288   -0.0821 C.ar      1 <0>        -0.0205
     21 C17        -5.7034   -1.9735    0.6798 C.ar      1 <0>        -0.1289
     22 C18        -7.0715   -1.8287    0.5974 C.ar      1 <0>         0.1171
     23 N3         -7.6107   -0.9116   -0.1841 N.ar      1 <0>        -0.4578
     24 C19        -6.8767   -0.0959   -0.9180 C.ar      1 <0>         0.1165
     25 C20        -5.5005   -0.1662   -0.8936 C.ar      1 <0>        -0.1481
     26 O1          3.5548    2.0423    0.6448 O.3       1 <0>        -0.4899
     27 H2         -0.9472    1.8885    0.4352 H         1 <0>         0.1371
     28 H3          1.1694    3.1181    0.6592 H         1 <0>         0.1540
     29 H4          3.3464   -0.5492    0.3479 H         1 <0>         0.1543
     30 H5          1.2369   -1.7897    0.1170 H         1 <0>         0.1372
     31 H6         -4.5471   -3.2320   -1.8771 H         1 <0>         0.1402
     32 H7         -5.4356   -5.5085   -2.1544 H         1 <0>         0.1527
     33 H8         -2.8897   -6.8992    0.9791 H         1 <0>         0.1527
     34 H9         -1.9838   -4.6301    1.2612 H         1 <0>         0.1391
     35 H10        -5.2693   -2.7263    1.3211 H         1 <0>         0.1460
     36 H11        -7.7114   -2.4748    1.1801 H         1 <0>         0.1719
     37 H12        -7.3614    0.6395   -1.5430 H         1 <0>         0.1713
     38 H13        -4.9063    0.5074   -1.4932 H         1 <0>         0.1422
     39 H14         3.8545    2.1428    1.5587 H         1 <0>         0.4115
     40 H15        -0.6320   -2.6987   -0.0633 H         1 <0>         0.4629
@<TRIPOS>BOND
     1    1    6 ar
     2    1    2 ar
     3    1   27 1
     4    2    3 ar
     5    2   28 1
     6    3    4 ar
     7    3   26 1
     8    4    5 ar
     9    4   29 1
    10    5    6 ar
    11    5   30 1
    12    6    7 1
    13    7   12 2
    14    7    8 1
    15    8    9 1
    16    8   10 1
    17   10   11 2
    18   10   20 1
    19   11   12 1
    20   11   13 1
    21   12   40 1
    22   13   18 ar
    23   13   14 ar
    24   14   15 ar
    25   14   31 1
    26   15   16 ar
    27   15   32 1
    28   16   17 ar
    29   16   19 1
    30   17   18 ar
    31   17   33 1
    32   18   34 1
    33   20   25 ar
    34   20   21 ar
    35   21   22 ar
    36   21   35 1
    37   22   23 ar
    38   22   36 1
    39   23   24 ar
    40   24   25 ar
    41   24   37 1
    42   25   38 1
    43   26   39 1
@<TRIPOS>MOLECULE
ZINC14951176
   40    43     0     0     0
SMALL
USER_CHARGES

@<TRIPOS>ATOM
      1 C1         -0.0268    1.3873   -0.2487 C.ar      1 <0>        -0.0533
      2 C2          1.1507    2.0881   -0.3954 C.ar      1 <0>        -0.1372
      3 C3          2.3508    1.4075   -0.5560 C.ar      1 <0>         0.1741
      4 C4          2.3694    0.0187   -0.5693 C.ar      1 <0>        -0.1379
      5 C5          1.1963   -0.6894   -0.4227 C.ar      1 <0>        -0.0501
      6 C6         -0.0123   -0.0089   -0.2611 C.ar      1 <0>        -0.1113
      7 C7         -1.2726   -0.7643   -0.1040 C.cat     1 <0>         0.3964
      8 N1         -1.3739   -2.1224    0.0021 N.pl3     1 <0>        -0.5087
      9 H1         -0.6406   -2.7573   -0.0113 H         1 <0>         0.4641
     10 C8         -2.7098   -2.4213    0.1324 C.2       1 <0>         0.1445
     11 C9         -3.3862   -1.2129    0.1003 C.2       1 <0>         0.0865
     12 N2         -2.4734   -0.2367   -0.0386 N.pl3     1 <0>        -0.4668
     13 C10        -4.8514   -1.0295    0.2063 C.ar      1 <0>        -0.0181
     14 C11        -5.5878   -1.6830    1.2008 C.ar      1 <0>        -0.1314
     15 C12        -6.9507   -1.4834    1.2636 C.ar      1 <0>         0.1177
     16 N3         -7.5598   -0.6900    0.4025 N.ar      1 <0>        -0.4587
     17 C13        -6.9031   -0.0552   -0.5501 C.ar      1 <0>         0.1173
     18 C14        -5.5375   -0.1932   -0.6817 C.ar      1 <0>        -0.1516
     19 C15        -3.3053   -3.7640    0.2776 C.ar      1 <0>        -0.0905
     20 C16        -4.4063   -4.1307   -0.5000 C.ar      1 <0>        -0.0398
     21 C17        -4.9583   -5.3865   -0.3599 C.ar      1 <0>        -0.1481
     22 C18        -4.4232   -6.2840    0.5507 C.ar      1 <0>         0.1454
     23 C19        -3.3311   -5.9257    1.3253 C.ar      1 <0>        -0.1491
     24 C20        -2.7664   -4.6752    1.1893 C.ar      1 <0>        -0.0562
     25 F1         -4.9685   -7.5129    0.6840 F         1 <0>        -0.1204
     26 O1          3.5092    2.1019   -0.7007 O.3       1 <0>        -0.4899
     27 H2         -0.9590    1.9172   -0.1198 H         1 <0>         0.1369
     28 H3          1.1404    3.1680   -0.3860 H         1 <0>         0.1542
     29 H4          3.3045   -0.5068   -0.6950 H         1 <0>         0.1540
     30 H5          1.2115   -1.7693   -0.4335 H         1 <0>         0.1375
     31 H6         -5.0961   -2.3342    1.9084 H         1 <0>         0.1454
     32 H7         -7.5277   -1.9833    2.0275 H         1 <0>         0.1715
     33 H8         -7.4422    0.5842   -1.2336 H         1 <0>         0.1711
     34 H9         -5.0059    0.3326   -1.4610 H         1 <0>         0.1417
     35 H10        -4.8245   -3.4319   -1.2094 H         1 <0>         0.1408
     36 H11        -5.8095   -5.6711   -0.9606 H         1 <0>         0.1531
     37 H12        -2.9189   -6.6290    2.0337 H         1 <0>         0.1530
     38 H13        -1.9125   -4.3987    1.7900 H         1 <0>         0.1398
     39 H14         3.9581    2.2964    0.1334 H         1 <0>         0.4114
     40 H15        -2.6712    0.7118   -0.0857 H         1 <0>         0.4627
@<TRIPOS>BOND
     1    1    6 ar
     2    1    2 ar
     3    1   27 1
     4    2    3 ar
     5    2   28 1
     6    3    4 ar
     7    3   26 1
     8    4    5 ar
     9    4   29 1
    10    5    6 ar
    11    5   30 1
    12    6    7 1
    13    7   12 2
    14    7    8 1
    15    8    9 1
    16    8   10 1
    17   10   11 2
    18   10   19 1
    19   11   12 1
    20   11   13 1
    21   12   40 1
    22   13   18 ar
    23   13   14 ar
    24   14   15 ar
    25   14   31 1
    26   15   16 ar
    27   15   32 1
    28   16   17 ar
    29   17   18 ar
    30   17   33 1
    31   18   34 1
    32   19   24 ar
    33   19   20 ar
    34   20   21 ar
    35   20   35 1
    36   21   22 ar
    37   21   36 1
    38   22   23 ar
    39   22   25 1
    40   23   24 ar
    41   23   37 1
    42   24   38 1
    43   26   39 1
@<TRIPOS>MOLECULE
ZINC27439698
   59    62     0     0     0
SMALL
USER_CHARGES

@<TRIPOS>ATOM
      1 C1         -0.2063    1.0844    0.8125 C.2       1 <0>        -0.0780
      2 C2         -0.0916   -0.1284    0.2785 C.2       1 <0>        -0.2217
      3 C3          1.1892   -0.8472    0.3546 C.2       1 <0>         0.5464
      4 O1          2.1435   -0.3327    0.9059 O.2       1 <0>        -0.5301
      5 N1          1.3054   -2.0761   -0.1864 N.am      1 <0>        -0.6549
      6 C4          2.5517   -2.7129   -0.2160 C.ar      1 <0>         0.1200
      7 C5          3.7048   -1.9595   -0.1827 C.ar      1 <0>        -0.0579
      8 C6          4.9490   -2.5997   -0.2120 C.ar      1 <0>        -0.1974
      9 C7          5.0154   -4.0138   -0.2753 C.ar      1 <0>         0.2129
     10 C8          3.8313   -4.7603   -0.3083 C.ar      1 <0>        -0.1947
     11 C9          2.6164   -4.1137   -0.2734 C.ar      1 <0>         0.1622
     12 O2          1.4681   -4.8389   -0.3002 O.3       1 <0>        -0.3093
     13 C10         1.5999   -6.2606   -0.3586 C.3       1 <0>         0.0588
     14 C11         0.2106   -6.9010   -0.3813 C.3       1 <0>        -0.1156
     15 C12         0.3517   -8.4232   -0.4438 C.3       1 <0>         0.0578
     16 N2         -0.9822   -9.0382   -0.4657 N.3       1 <0>        -0.5360
     17 C13        -1.6880   -8.8108    0.8038 C.3       1 <0>         0.0125
     18 C14        -3.0921   -9.4148    0.7161 C.3       1 <0>         0.0626
     19 O3         -2.9885  -10.8047    0.3955 O.3       1 <0>        -0.3850
     20 C15        -2.3071  -11.0626   -0.8351 C.3       1 <0>         0.0628
     21 C16        -0.8951  -10.4753   -0.7631 C.3       1 <0>         0.0171
     22 N3          6.2221   -4.6015   -0.3018 N.ar      1 <0>        -0.5452
     23 C17         7.3156   -3.8777   -0.2694 C.ar      1 <0>         0.3493
     24 N4          7.3023   -2.5556   -0.2097 N.ar      1 <0>        -0.5859
     25 C18         6.1642   -1.8746   -0.1796 C.ar      1 <0>         0.4714
     26 N5          6.1650   -0.4957   -0.1182 N.pl3     1 <0>        -0.6328
     27 C19         7.3694    0.2084   -0.2227 C.ar      1 <0>         0.1581
     28 C20         7.5013    1.4536    0.3785 C.ar      1 <0>        -0.1169
     29 C21         8.6911    2.1472    0.2750 C.ar      1 <0>        -0.1176
     30 C22         9.7524    1.6027   -0.4280 C.ar      1 <0>         0.0901
     31 C23         9.6235    0.3609   -1.0292 C.ar      1 <0>        -0.0524
     32 C24         8.4363   -0.3392   -0.9225 C.ar      1 <0>        -0.0856
     33 Cl1        10.9555   -0.3188   -1.9109 Cl        1 <0>        -0.0424
     34 F1         10.9152    2.2833   -0.5284 F         1 <0>        -0.1264
     35 H1          0.6411    1.5413    1.3020 H         1 <0>         0.1166
     36 H2         -1.1456    1.6141    0.7527 H         1 <0>         0.1209
     37 H3         -0.9390   -0.5853   -0.2110 H         1 <0>         0.1323
     38 H4          0.5255   -2.5194   -0.5554 H         1 <0>         0.4201
     39 H5          3.6489   -0.8820   -0.1348 H         1 <0>         0.1596
     40 H6          3.8708   -5.8385   -0.3565 H         1 <0>         0.1517
     41 H7          2.1429   -6.5383   -1.2620 H         1 <0>         0.0720
     42 H8          2.1473   -6.6110    0.5165 H         1 <0>         0.0691
     43 H9         -0.3323   -6.6233    0.5221 H         1 <0>         0.0760
     44 H10        -0.3367   -6.5506   -1.2564 H         1 <0>         0.0860
     45 H11         0.8947   -8.7010   -1.3473 H         1 <0>         0.0821
     46 H12         0.8990   -8.7736    0.4312 H         1 <0>         0.0409
     47 H13        -1.1377   -9.2854    1.6162 H         1 <0>         0.0448
     48 H14        -1.7636   -7.7398    0.9914 H         1 <0>         0.0895
     49 H15        -3.5986   -9.2990    1.6743 H         1 <0>         0.0993
     50 H16        -3.6604   -8.9035   -0.0609 H         1 <0>         0.0609
     51 H17        -2.2459  -12.1385   -0.9988 H         1 <0>         0.1001
     52 H18        -2.8525  -10.5991   -1.6572 H         1 <0>         0.0612
     53 H19        -0.3918  -10.6192   -1.7193 H         1 <0>         0.0886
     54 H20        -0.3321  -10.9764    0.0243 H         1 <0>         0.0452
     55 H21         8.2696   -4.3834   -0.2921 H         1 <0>         0.1993
     56 H22         5.3306   -0.0149   -0.0027 H         1 <0>         0.4275
     57 H23         6.6738    1.8794    0.9265 H         1 <0>         0.1431
     58 H24         8.7936    3.1154    0.7424 H         1 <0>         0.1506
     59 H25         8.3373   -1.3092   -1.3869 H         1 <0>         0.1663
@<TRIPOS>BOND
     1    1    2 2
     2    1   35 1
     3    1   36 1
     4    2    3 1
     5    2   37 1
     6    3    4 2
     7    3    5 am
     8    5    6 1
     9    5   38 1
    10    6   11 ar
    11    6    7 ar
    12    7    8 ar
    13    7   39 1
    14    8   25 ar
    15    8    9 ar
    16    9   10 ar
    17    9   22 ar
    18   10   11 ar
    19   10   40 1
    20   11   12 1
    21   12   13 1
    22   13   14 1
    23   13   41 1
    24   13   42 1
    25   14   15 1
    26   14   43 1
    27   14   44 1
    28   15   16 1
    29   15   45 1
    30   15   46 1
    31   16   21 1
    32   16   17 1
    33   17   18 1
    34   17   47 1
    35   17   48 1
    36   18   19 1
    37   18   49 1
    38   18   50 1
    39   19   20 1
    40   20   21 1
    41   20   51 1
    42   20   52 1
    43   21   53 1
    44   21   54 1
    45   22   23 ar
    46   23   24 ar
    47   23   55 1
    48   24   25 ar
    49   25   26 1
    50   26   27 1
    51   26   56 1
    52   27   32 ar
    53   27   28 ar
    54   28   29 ar
    55   28   57 1
    56   29   30 ar
    57   29   58 1
    58   30   31 ar
    59   30   34 1
    60   31   32 ar
    61   31   33 1
    62   32   59 1
@<TRIPOS>MOLECULE
ZINC14960000
   43    44     0     0     0
SMALL
USER_CHARGES

@<TRIPOS>ATOM
      1 C1         -0.0187    1.5258    0.0104 C.3       1 <0>        -0.1552
      2 C2          0.0021   -0.0041    0.0020 C.3       1 <0>         0.0652
      3 O1          0.6932   -0.4774    1.1597 O.3       1 <0>        -0.2910
      4 C3          0.8018   -1.8222    1.3054 C.ar      1 <0>         0.3800
      5 C4          1.4590   -2.3416    2.4157 C.ar      1 <0>        -0.1786
      6 C5          1.5655   -3.7224    2.5576 C.ar      1 <0>         0.2924
      7 C6          1.0042   -4.5362    1.5726 C.ar      1 <0>        -0.2069
      8 C7          0.3629   -3.9442    0.4918 C.ar      1 <0>         0.1594
      9 N1          0.2777   -2.6207    0.3945 N.ar      1 <0>        -0.5477
     10 C8         -0.2370   -4.7963   -0.5606 C.2       1 <0>         0.5761
     11 O2         -0.1668   -6.0066   -0.4758 O.2       1 <0>        -0.5207
     12 N2         -0.8608   -4.2295   -1.6123 N.am      1 <0>        -0.7068
     13 C9         -1.4543   -5.0724   -2.6532 C.3       1 <0>         0.1517
     14 C10        -2.0848   -4.1995   -3.7075 C.ar      1 <0>        -0.0560
     15 C11        -3.4061   -3.8121   -3.5845 C.ar      1 <0>        -0.1188
     16 C12        -3.9845   -3.0114   -4.5516 C.ar      1 <0>        -0.0244
     17 C13        -3.2415   -2.5977   -5.6414 C.ar      1 <0>        -0.6522
     18 C14        -1.9200   -2.9843   -5.7639 C.ar      1 <0>        -0.0244
     19 C15        -1.3403   -3.7815   -4.7947 C.ar      1 <0>        -0.1188
     20 S1         -3.9791   -1.5780   -6.8747 S.o2      1 <0>         2.4986
     21 O3         -3.2380   -1.8456   -8.0572 O.2       1 <0>        -0.9353
     22 O4         -5.3673   -1.8740   -6.8072 O.2       1 <0>        -0.9353
     23 C16        -3.6748    0.1213   -6.3177 C.3       1 <0>        -0.6498
     24 N3          2.2170   -4.2783    3.6563 N.pl3     1 <0>        -0.8449
     25 Cl1         2.1389   -1.2807    3.6098 Cl        1 <0>        -0.0379
     26 H1          1.0039    1.9031    0.0027 H         1 <0>         0.0668
     27 H2         -0.5459    1.8868   -0.8726 H         1 <0>         0.0806
     28 H3         -0.5289    1.8773    0.9072 H         1 <0>         0.0668
     29 H4         -1.0205   -0.3814    0.0098 H         1 <0>         0.0685
     30 H5          0.5123   -0.3556   -0.8948 H         1 <0>         0.0685
     31 H6          1.0678   -5.6116    1.6494 H         1 <0>         0.1582
     32 H7         -0.9169   -3.2635   -1.6800 H         1 <0>         0.4133
     33 H8         -0.6786   -5.6885   -3.1080 H         1 <0>         0.0871
     34 H9         -2.2155   -5.7148   -2.2105 H         1 <0>         0.0872
     35 H10        -3.9866   -4.1354   -2.7331 H         1 <0>         0.1367
     36 H11        -5.0170   -2.7094   -4.4559 H         1 <0>         0.1456
     37 H12        -1.3396   -2.6613   -6.6155 H         1 <0>         0.1456
     38 H13        -0.3068   -4.0804   -4.8885 H         1 <0>         0.1367
     39 H14        -2.6009    0.2922   -6.2426 H         1 <0>         0.1319
     40 H15        -4.1048    0.8210   -7.0343 H         1 <0>         0.1344
     41 H16        -4.1358    0.2718   -5.3415 H         1 <0>         0.1319
     42 H17         2.6033   -3.7017    4.3339 H         1 <0>         0.4093
     43 H18         2.2845   -5.2420    3.7436 H         1 <0>         0.4123
@<TRIPOS>BOND
     1    1    2 1
     2    1   26 1
     3    1   27 1
     4    1   28 1
     5    2    3 1
     6    2   29 1
     7    2   30 1
     8    3    4 1
     9    4    9 ar
    10    4    5 ar
    11    5    6 ar
    12    5   25 1
    13    6    7 ar
    14    6   24 1
    15    7    8 ar
    16    7   31 1
    17    8    9 ar
    18    8   10 1
    19   10   11 2
    20   10   12 am
    21   12   13 1
    22   12   32 1
    23   13   14 1
    24   13   33 1
    25   13   34 1
    26   14   19 ar
    27   14   15 ar
    28   15   16 ar
    29   15   35 1
    30   16   17 ar
    31   16   36 1
    32   17   18 ar
    33   17   20 1
    34   18   19 ar
    35   18   37 1
    36   19   38 1
    37   20   21 2
    38   20   22 2
    39   20   23 1
    40   23   39 1
    41   23   40 1
    42   23   41 1
    43   24   42 1
    44   24   43 1
@<TRIPOS>MOLECULE
ZINC14959984
   43    44     0     0     0
SMALL
USER_CHARGES

@<TRIPOS>ATOM
      1 C1         -0.0187    1.5258    0.0104 C.3       1 <0>        -0.1579
      2 C2          0.0021   -0.0041    0.0020 C.3       1 <0>         0.0624
      3 O1         -1.3386   -0.4987    0.0122 O.3       1 <0>        -0.2942
      4 C3         -1.4978   -1.8442    0.0065 C.ar      1 <0>         0.4169
      5 C4         -2.7916   -2.3917    0.0100 C.ar      1 <0>        -0.1678
      6 C5         -2.9371   -3.7908    0.0035 C.ar      1 <0>         0.3307
      7 C6         -1.7827   -4.5744   -0.0062 C.ar      1 <0>        -0.2164
      8 C7         -0.5411   -3.9531   -0.0092 C.ar      1 <0>         0.1827
      9 N1         -0.4370   -2.6274   -0.0079 N.ar      1 <0>        -0.5624
     10 C8          0.6885   -4.7811   -0.0190 C.2       1 <0>         0.5763
     11 O2          0.6047   -5.9933   -0.0244 O.2       1 <0>        -0.5051
     12 N2          1.8994   -4.1893   -0.0219 N.am      1 <0>        -0.7127
     13 C9          3.1145   -5.0075   -0.0316 C.3       1 <0>         0.1044
     14 C10         4.3248   -4.1096   -0.0331 C.ar      1 <0>        -0.0123
     15 C11         4.9948   -3.8544   -1.2152 C.ar      1 <0>        -0.1174
     16 C12         6.1048   -3.0309   -1.2165 C.ar      1 <0>        -0.0593
     17 C13         6.5448   -2.4618   -0.0358 C.ar      1 <0>        -0.1290
     18 C14         5.8744   -2.7161    1.1458 C.ar      1 <0>        -0.0166
     19 C15         4.7615   -3.5365    1.1464 C.ar      1 <0>        -0.6619
     20 S1          3.9032   -3.8558    2.6517 S.o2      1 <0>         2.6959
     21 O3          3.7291   -5.2640    2.7291 O.2       1 <0>        -0.9530
     22 O4          4.5691   -3.1138    3.6642 O.2       1 <0>        -0.9606
     23 N3          2.3903   -3.1994    2.5014 N.pl3     1 <0>        -1.2450
     24 N4         -4.1940   -4.3755    0.0072 N.pl3     1 <0>        -0.8360
     25 C16        -3.9426   -1.5399    0.0206 C.1       1 <0>         0.2633
     26 N5         -4.8558   -0.8642    0.0289 N.1       1 <0>        -0.4083
     27 H1          1.0039    1.9031    0.0027 H         1 <0>         0.0836
     28 H2         -0.5459    1.8868   -0.8726 H         1 <0>         0.0668
     29 H3         -0.5289    1.8773    0.9072 H         1 <0>         0.0673
     30 H4          0.5123   -0.3556   -0.8948 H         1 <0>         0.0733
     31 H5          0.5293   -0.3651    0.8851 H         1 <0>         0.0728
     32 H6         -1.8542   -5.6520   -0.0111 H         1 <0>         0.1623
     33 H7          1.9663   -3.2216   -0.0176 H         1 <0>         0.4074
     34 H8          3.1331   -5.6410    0.8552 H         1 <0>         0.1256
     35 H9          3.1247   -5.6324   -0.9247 H         1 <0>         0.1003
     36 H10         4.6511   -4.2990   -2.1375 H         1 <0>         0.1386
     37 H11         6.6286   -2.8321   -2.1398 H         1 <0>         0.1370
     38 H12         7.4125   -1.8189   -0.0367 H         1 <0>         0.1387
     39 H13         6.2183   -2.2719    2.0682 H         1 <0>         0.1495
     40 H14         2.1381   -2.7448    1.6826 H         1 <0>         0.4109
     41 H15         1.7564   -3.2696    3.2323 H         1 <0>         0.4232
     42 H16        -4.9880   -3.8184    0.0143 H         1 <0>         0.4094
     43 H17        -4.2795   -5.3417    0.0026 H         1 <0>         0.4166
@<TRIPOS>BOND
     1    1    2 1
     2    1   27 1
     3    1   28 1
     4    1   29 1
     5    2    3 1
     6    2   30 1
     7    2   31 1
     8    3    4 1
     9    4    9 ar
    10    4    5 ar
    11    5    6 ar
    12    5   25 1
    13    6    7 ar
    14    6   24 1
    15    7    8 ar
    16    7   32 1
    17    8    9 ar
    18    8   10 1
    19   10   11 2
    20   10   12 am
    21   12   13 1
    22   12   33 1
    23   13   14 1
    24   13   34 1
    25   13   35 1
    26   14   19 ar
    27   14   15 ar
    28   15   16 ar
    29   15   36 1
    30   16   17 ar
    31   16   37 1
    32   17   18 ar
    33   17   38 1
    34   18   19 ar
    35   18   39 1
    36   19   20 1
    37   20   21 2
    38   20   22 2
    39   20   23 1
    40   23   40 1
    41   23   41 1
    42   24   42 1
    43   24   43 1
    44   25   26 3
@<TRIPOS>MOLECULE
ZINC13985862
   66    70     0     0     0
SMALL
USER_CHARGES
4-[(5S)-2-(4-fluorophenyl)-5-[(4-methoxyphenyl)methoxymethyl]-6,7-dihydro-5H-pyrrolo[5,1-b]imidazol-3-yl]-N-propyl-pyrimidin-2-amine
@<TRIPOS>ATOM
      1 C1         -4.9534   -0.1858    0.0503 C.3       1 <0>        -0.1485
      2 C2         -3.6295   -0.9527    0.0330 C.3       1 <0>        -0.1385
      3 C3         -2.4652    0.0399    0.0268 C.3       1 <0>         0.1370
      4 N1         -1.1976   -0.6944    0.0102 N.pl3     1 <0>        -0.6956
      5 C4          0.0021   -0.0041    0.0020 C.ar      1 <0>         0.5744
      6 N2         -0.0159    1.3214    0.0093 N.ar      1 <0>        -0.5684
      7 C5          1.1094    2.0201    0.0023 C.ar      1 <0>         0.2022
      8 C6          2.3197    1.3537   -0.0128 C.ar      1 <0>        -0.2959
      9 C7          2.3095   -0.0476   -0.0202 C.ar      1 <0>         0.2978
     10 N3          1.1367   -0.6844   -0.0125 N.ar      1 <0>        -0.5499
     11 C8          3.5734   -0.8058   -0.0369 C.2       1 <0>         0.0217
     12 C9          3.7764   -2.0930    0.4266 C.2       1 <0>         0.1199
     13 N4          5.0677   -2.3958    0.2158 N.2       1 <0>        -0.4675
     14 C10         5.6755   -1.3764   -0.3394 C.2       1 <0>         0.2253
     15 N5          4.7950   -0.3719   -0.5129 N.pl3     1 <0>        -0.4573
     16 C11         5.4363    0.7984   -1.1303 C.3       1 <0>         0.1340
     17 H1          5.6437    1.5568   -0.3755 H         1 <0>         0.1121
     18 C12         6.7555    0.2740   -1.7369 C.3       1 <0>        -0.1176
     19 C13         7.0415   -0.9587   -0.8504 C.3       1 <0>        -0.0462
     20 C14         4.5406    1.3745   -2.2289 C.3       1 <0>         0.0447
     21 O1          5.1236    2.5760   -2.7374 O.3       1 <0>        -0.3728
     22 C15         4.3618    3.1981   -3.7742 C.3       1 <0>         0.1114
     23 C16         5.0657    4.4491   -4.2331 C.ar      1 <0>        -0.1327
     24 C17         4.7871    5.6598   -3.6264 C.ar      1 <0>        -0.0553
     25 C18         5.4351    6.8071   -4.0415 C.ar      1 <0>        -0.2114
     26 C19         6.3575    6.7456   -5.0760 C.ar      1 <0>         0.1369
     27 C20         6.6312    5.5304   -5.6869 C.ar      1 <0>        -0.1546
     28 C21         5.9849    4.3850   -5.2640 C.ar      1 <0>        -0.0561
     29 O2          6.9916    7.8738   -5.4904 O.3       1 <0>        -0.3164
     30 C22         6.6604    9.0892   -4.8158 C.3       1 <0>         0.0257
     31 C23         2.7566   -2.9762    1.0389 C.ar      1 <0>        -0.0112
     32 C24         1.7572   -2.4352    1.8474 C.ar      1 <0>        -0.0349
     33 C25         0.8063   -3.2610    2.4102 C.ar      1 <0>        -0.1599
     34 C26         0.8500   -4.6273    2.1832 C.ar      1 <0>         0.1043
     35 C27         1.8447   -5.1702    1.3858 C.ar      1 <0>        -0.1592
     36 C28         2.7964   -4.3520    0.8134 C.ar      1 <0>        -0.0572
     37 F1         -0.0799   -5.4326    2.7416 F         1 <0>        -0.1406
     38 H2         -5.0013    0.4362    0.9441 H         1 <0>         0.0584
     39 H3         -5.0190    0.4457   -0.8357 H         1 <0>         0.0580
     40 H4         -5.7829   -0.8929    0.0547 H         1 <0>         0.0613
     41 H5         -3.5816   -1.5746   -0.8608 H         1 <0>         0.0690
     42 H6         -3.5639   -1.5842    0.9190 H         1 <0>         0.0699
     43 H7         -2.5132    0.6619    0.9206 H         1 <0>         0.0683
     44 H8         -2.5308    0.6714   -0.8592 H         1 <0>         0.0673
     45 H9         -1.1991   -1.6644    0.0050 H         1 <0>         0.4149
     46 H10         1.0812    3.0997    0.0087 H         1 <0>         0.1691
     47 H11         3.2515    1.8998   -0.0184 H         1 <0>         0.1392
     48 H12         7.5496    1.0148   -1.6431 H         1 <0>         0.1112
     49 H13         6.6179   -0.0177   -2.7781 H         1 <0>         0.0919
     50 H14         7.6929   -0.6879   -0.0195 H         1 <0>         0.1047
     51 H15         7.4883   -1.7581   -1.4415 H         1 <0>         0.1058
     52 H16         4.4426    0.6484   -3.0359 H         1 <0>         0.0600
     53 H17         3.5559    1.5947   -1.8166 H         1 <0>         0.0684
     54 H18         4.2601    2.5098   -4.6132 H         1 <0>         0.0599
     55 H19         3.3734    3.4560   -3.3940 H         1 <0>         0.0590
     56 H20         4.0652    5.7080   -2.8246 H         1 <0>         0.1260
     57 H21         5.2201    7.7519   -3.5646 H         1 <0>         0.1307
     58 H22         7.3486    5.4800   -6.4926 H         1 <0>         0.1338
     59 H23         6.1976    3.4388   -5.7393 H         1 <0>         0.1308
     60 H24         5.5958    9.2916   -4.9334 H         1 <0>         0.0568
     61 H25         6.8970    8.9928   -3.7562 H         1 <0>         0.0571
     62 H26         7.2357    9.9105   -5.2433 H         1 <0>         0.1024
     63 H27         1.7249   -1.3710    2.0284 H         1 <0>         0.1208
     64 H28         0.0291   -2.8424    3.0325 H         1 <0>         0.1321
     65 H29         1.8746   -6.2357    1.2117 H         1 <0>         0.1369
     66 H30         3.5709   -4.7760    0.1915 H         1 <0>         0.1365
@<TRIPOS>BOND
     1    1    2 1
     2    1   38 1
     3    1   39 1
     4    1   40 1
     5    2    3 1
     6    2   41 1
     7    2   42 1
     8    3    4 1
     9    3   43 1
    10    3   44 1
    11    4    5 1
    12    4   45 1
    13    5   10 ar
    14    5    6 ar
    15    6    7 ar
    16    7    8 ar
    17    7   46 1
    18    8    9 ar
    19    8   47 1
    20    9   10 ar
    21    9   11 1
    22   11   15 1
    23   11   12 2
    24   12   13 1
    25   12   31 1
    26   13   14 2
    27   14   19 1
    28   14   15 1
    29   15   16 1
    30   16   17 1
    31   16   18 1
    32   16   20 1
    33   18   19 1
    34   18   48 1
    35   18   49 1
    36   19   50 1
    37   19   51 1
    38   20   21 1
    39   20   52 1
    40   20   53 1
    41   21   22 1
    42   22   23 1
    43   22   54 1
    44   22   55 1
    45   23   28 ar
    46   23   24 ar
    47   24   25 ar
    48   24   56 1
    49   25   26 ar
    50   25   57 1
    51   26   27 ar
    52   26   29 1
    53   27   28 ar
    54   27   58 1
    55   28   59 1
    56   29   30 1
    57   30   60 1
    58   30   61 1
    59   30   62 1
    60   31   36 ar
    61   31   32 ar
    62   32   33 ar
    63   32   63 1
    64   33   34 ar
    65   33   64 1
    66   34   35 ar
    67   34   37 1
    68   35   36 ar
    69   35   65 1
    70   36   66 1
@<TRIPOS>MOLECULE
ZINC13985862
   67    71     0     0     0
SMALL
USER_CHARGES
4-[(5S)-2-(4-fluorophenyl)-5-[(4-methoxyphenyl)methoxymethyl]-6,7-dihydro-5H-pyrrolo[5,1-b]imidazol-3-yl]-N-propyl-pyrimidin-2-amine
@<TRIPOS>ATOM
      1 C1         -4.9534   -0.1858    0.0503 C.3       1 <0>        -0.1508
      2 C2         -3.6295   -0.9527    0.0330 C.3       1 <0>        -0.1381
      3 C3         -2.4652    0.0399    0.0268 C.3       1 <0>         0.1308
      4 N1         -1.1976   -0.6944    0.0102 N.pl3     1 <0>        -0.6860
      5 C4          0.0021   -0.0041    0.0020 C.ar      1 <0>         0.5812
      6 N2         -0.0159    1.3214    0.0093 N.ar      1 <0>        -0.5460
      7 C5          1.1094    2.0201    0.0023 C.ar      1 <0>         0.2172
      8 C6          2.3197    1.3537   -0.0128 C.ar      1 <0>        -0.2800
      9 C7          2.3095   -0.0476   -0.0202 C.ar      1 <0>         0.2601
     10 N3          1.1367   -0.6844   -0.0125 N.ar      1 <0>        -0.5468
     11 C8          3.5734   -0.8058   -0.0369 C.2       1 <0>         0.1096
     12 C9          3.7764   -2.0930    0.4266 C.2       1 <0>         0.1519
     13 C10         5.6755   -1.3764   -0.3394 C.cat     1 <0>         0.3031
     14 N4          4.7950   -0.3719   -0.5129 N.pl3     1 <0>        -0.4053
     15 C11         5.4363    0.7984   -1.1303 C.3       1 <0>         0.1202
     16 H1          5.6437    1.5568   -0.3755 H         1 <0>         0.1433
     17 C12         6.7555    0.2740   -1.7369 C.3       1 <0>        -0.1172
     18 C13         7.0415   -0.9587   -0.8504 C.3       1 <0>        -0.0646
     19 C14         4.5406    1.3745   -2.2289 C.3       1 <0>         0.0404
     20 O1          5.1236    2.5760   -2.7374 O.3       1 <0>        -0.3691
     21 C15         4.3618    3.1981   -3.7742 C.3       1 <0>         0.1147
     22 C16         5.0657    4.4491   -4.2331 C.ar      1 <0>        -0.1432
     23 C17         4.7871    5.6598   -3.6264 C.ar      1 <0>        -0.0535
     24 C18         5.4351    6.8071   -4.0415 C.ar      1 <0>        -0.2117
     25 C19         6.3575    6.7456   -5.0760 C.ar      1 <0>         0.1442
     26 C20         6.6312    5.5304   -5.6869 C.ar      1 <0>        -0.1548
     27 C21         5.9849    4.3850   -5.2640 C.ar      1 <0>        -0.0549
     28 O2          6.9916    7.8738   -5.4904 O.3       1 <0>        -0.3141
     29 C22         6.6604    9.0892   -4.8158 C.3       1 <0>         0.0246
     30 C23         2.7566   -2.9762    1.0389 C.ar      1 <0>        -0.0744
     31 C24         1.7572   -2.4352    1.8474 C.ar      1 <0>        -0.0095
     32 C25         0.8063   -3.2610    2.4102 C.ar      1 <0>        -0.1551
     33 C26         0.8500   -4.6273    2.1832 C.ar      1 <0>         0.1429
     34 C27         1.8447   -5.1702    1.3858 C.ar      1 <0>        -0.1528
     35 C28         2.7964   -4.3520    0.8134 C.ar      1 <0>        -0.0592
     36 F1         -0.0799   -5.4326    2.7416 F         1 <0>        -0.1235
     37 H2         -5.0013    0.4362    0.9441 H         1 <0>         0.0602
     38 H3         -5.0190    0.4457   -0.8357 H         1 <0>         0.0600
     39 H4         -5.7829   -0.8929    0.0547 H         1 <0>         0.0648
     40 H5         -3.5816   -1.5746   -0.8608 H         1 <0>         0.0703
     41 H6         -3.5639   -1.5842    0.9190 H         1 <0>         0.0705
     42 H7         -2.5132    0.6619    0.9206 H         1 <0>         0.0744
     43 H8         -2.5308    0.6714   -0.8592 H         1 <0>         0.0736
     44 H9         -1.1991   -1.6644    0.0050 H         1 <0>         0.4170
     45 H10         1.0812    3.0997    0.0087 H         1 <0>         0.1813
     46 H11         3.2515    1.8998   -0.0184 H         1 <0>         0.1465
     47 H12         7.5496    1.0148   -1.6431 H         1 <0>         0.1368
     48 H13         6.6179   -0.0177   -2.7781 H         1 <0>         0.1101
     49 H14         7.6929   -0.6879   -0.0195 H         1 <0>         0.1389
     50 H15         7.4883   -1.7581   -1.4415 H         1 <0>         0.1345
     51 H16         4.4426    0.6484   -3.0359 H         1 <0>         0.0681
     52 H17         3.5559    1.5947   -1.8166 H         1 <0>         0.0740
     53 H18         4.2601    2.5098   -4.6132 H         1 <0>         0.0636
     54 H19         3.3734    3.4560   -3.3940 H         1 <0>         0.0628
     55 H20         4.0652    5.7080   -2.8246 H         1 <0>         0.1257
     56 H21         5.2201    7.7519   -3.5646 H         1 <0>         0.1328
     57 H22         7.3486    5.4800   -6.4926 H         1 <0>         0.1357
     58 H23         6.1976    3.4388   -5.7393 H         1 <0>         0.1302
     59 H24         5.5958    9.2916   -4.9334 H         1 <0>         0.0585
     60 H25         6.8970    8.9928   -3.7562 H         1 <0>         0.0580
     61 H26         7.2357    9.9105   -5.2433 H         1 <0>         0.1053
     62 H27         1.7249   -1.3710    2.0284 H         1 <0>         0.1313
     63 H28         0.0291   -2.8424    3.0325 H         1 <0>         0.1469
     64 H29         1.8746   -6.2357    1.2117 H         1 <0>         0.1505
     65 H30         3.5709   -4.7760    0.1915 H         1 <0>         0.1358
     66 N5          5.0683   -2.3971    0.2161 N.pl3     1 <0>        -0.4708
     67 H31         5.5121   -3.2919    0.4540 H         1 <0>         0.4790
@<TRIPOS>BOND
     1    1    2 1
     2    1   37 1
     3    1   38 1
     4    1   39 1
     5    2    3 1
     6    2   40 1
     7    2   41 1
     8    3    4 1
     9    3   42 1
    10    3   43 1
    11    4    5 1
    12    4   44 1
    13    5   10 ar
    14    5    6 ar
    15    6    7 ar
    16    7    8 ar
    17    7   45 1
    18    8    9 ar
    19    8   46 1
    20    9   10 ar
    21    9   11 1
    22   11   14 1
    23   11   12 2
    24   12   30 1
    25   12   66 1
    26   13   18 1
    27   13   14 1
    28   13   66 2
    29   14   15 1
    30   15   16 1
    31   15   17 1
    32   15   19 1
    33   17   18 1
    34   17   47 1
    35   17   48 1
    36   18   49 1
    37   18   50 1
    38   19   20 1
    39   19   51 1
    40   19   52 1
    41   20   21 1
    42   21   22 1
    43   21   53 1
    44   21   54 1
    45   22   27 ar
    46   22   23 ar
    47   23   24 ar
    48   23   55 1
    49   24   25 ar
    50   24   56 1
    51   25   26 ar
    52   25   28 1
    53   26   27 ar
    54   26   57 1
    55   27   58 1
    56   28   29 1
    57   29   59 1
    58   29   60 1
    59   29   61 1
    60   30   35 ar
    61   30   31 ar
    62   31   32 ar
    63   31   62 1
    64   32   33 ar
    65   32   63 1
    66   33   34 ar
    67   33   36 1
    68   34   35 ar
    69   34   64 1
    70   35   65 1
    71   66   67 1
@<TRIPOS>MOLECULE
ZINC53214756
   71    77     0     0     0
SMALL
USER_CHARGES

@<TRIPOS>ATOM
      1 C1          0.5182    1.2656    0.0086 C.3       1 <0>        -0.1155
      2 C2          0.2506   -0.2166    0.0604 C.ar      1 <0>        -0.0497
      3 C3          0.2481   -0.9597   -1.1037 C.ar      1 <0>        -0.1186
      4 C4          0.0026   -2.3198   -1.0570 C.ar      1 <0>        -0.0884
      5 C5         -0.2415   -2.9401    0.1545 C.ar      1 <0>        -0.1186
      6 C6         -0.2408   -2.2025    1.3222 C.ar      1 <0>        -0.0496
      7 C7          0.0119   -0.8376    1.2794 C.ar      1 <0>         0.1132
      8 N1          0.0195   -0.0880    2.4621 N.am      1 <0>        -0.4628
      9 C8          1.1754    0.0671    3.1395 C.2       1 <0>         0.5876
     10 O1          2.2055   -0.4366    2.7329 O.2       1 <0>        -0.4766
     11 C9          1.1651    0.8564    4.3771 C.ar      1 <0>        -0.3314
     12 C10         2.3164    1.0650    5.1361 C.ar      1 <0>         0.2960
     13 N2          2.2205    1.7893    6.2384 N.ar      1 <0>        -0.5681
     14 C11         1.0592    2.3086    6.6198 C.ar      1 <0>         0.6153
     15 N3         -0.0593    2.1343    5.9278 N.ar      1 <0>        -0.5809
     16 C12        -0.0503    1.4225    4.8116 C.ar      1 <0>         0.4906
     17 N4         -1.1953    1.2203    4.0642 N.pl3     1 <0>        -0.4382
     18 C13        -1.1579    0.4842    2.9105 C.2       1 <0>         0.5183
     19 N5         -2.3621    0.4426    2.3823 N.2       1 <0>        -0.4645
     20 C14        -3.2306    1.1446    3.1528 C.ar      1 <0>         0.0828
     21 C15        -2.5030    1.6464    4.2441 C.ar      1 <0>         0.0493
     22 C16        -3.1402    2.4112    5.2088 C.ar      1 <0>        -0.0820
     23 C17        -4.4924    2.6647    5.1012 C.ar      1 <0>        -0.1037
     24 C18        -5.2191    2.1593    4.0338 C.ar      1 <0>        -0.1042
     25 C19        -4.5978    1.4166    3.0545 C.ar      1 <0>        -0.0679
     26 N6          1.0141    3.0568    7.7788 N.pl3     1 <0>        -0.6227
     27 C20         2.1976    3.3550    8.4664 C.ar      1 <0>         0.1197
     28 C21         3.3516    3.6665    7.7596 C.ar      1 <0>        -0.0547
     29 C22         4.5180    3.9609    8.4372 C.ar      1 <0>        -0.1652
     30 C23         4.5370    3.9455    9.8258 C.ar      1 <0>         0.1889
     31 C24         3.3829    3.6340   10.5327 C.ar      1 <0>        -0.1650
     32 C25         2.2152    3.3448    9.8549 C.ar      1 <0>        -0.0878
     33 N7          5.7192    4.2434   10.5127 N.pl3     1 <0>        -0.6448
     34 C26         5.7951    4.1201   11.9766 C.3       1 <0>         0.0998
     35 C27         7.0337    3.2905   12.3307 C.3       1 <0>        -0.0233
     36 N8          8.2199    3.8949   11.7112 N.4       1 <0>        -0.3839
     37 C28         8.1071    3.8319   10.2485 C.3       1 <0>        -0.0234
     38 C29         6.9233    4.6829    9.7908 C.3       1 <0>         0.0984
     39 C30         9.4200    3.1642   12.1398 C.3       1 <0>        -0.0472
     40 C31        -0.5079   -2.8791    2.6420 C.3       1 <0>        -0.1156
     41 H1          1.5892    1.4449    0.1025 H         1 <0>         0.0752
     42 H2          0.1648    1.6656   -0.9418 H         1 <0>         0.0779
     43 H3         -0.0059    1.7582    0.8276 H         1 <0>         0.0553
     44 H4          0.4377   -0.4780   -2.0516 H         1 <0>         0.1329
     45 H5          0.0011   -2.8987   -1.9688 H         1 <0>         0.1325
     46 H6         -0.4333   -4.0024    0.1877 H         1 <0>         0.1329
     47 H7          3.2634    0.6449    4.8311 H         1 <0>         0.1986
     48 H8         -2.5798    2.8074    6.0427 H         1 <0>         0.1350
     49 H9         -4.9880    3.2604    5.8535 H         1 <0>         0.1380
     50 H10        -6.2769    2.3646    3.9605 H         1 <0>         0.1394
     51 H11        -5.1692    1.0284    2.2243 H         1 <0>         0.1404
     52 H12         0.1630    3.3761    8.1171 H         1 <0>         0.4293
     53 H13         3.3369    3.6781    6.6797 H         1 <0>         0.1348
     54 H14         5.4156    4.2027    7.8875 H         1 <0>         0.1280
     55 H15         3.3977    3.6218   11.6125 H         1 <0>         0.1290
     56 H16         1.3165    3.1070   10.4046 H         1 <0>         0.1330
     57 H17         5.8776    5.1107   12.4239 H         1 <0>         0.0880
     58 H18         4.9008    3.6203   12.3489 H         1 <0>         0.1262
     59 H19         7.1599    3.2695   13.4132 H         1 <0>         0.1409
     60 H20         6.9082    2.2734   11.9595 H         1 <0>         0.1326
     61 H21         9.0242    4.2099    9.7966 H         1 <0>         0.1415
     62 H22         7.9491    2.7984    9.9403 H         1 <0>         0.1328
     63 H23         6.7746    4.5550    8.7185 H         1 <0>         0.1273
     64 H24         7.1217    5.7313   10.0135 H         1 <0>         0.0878
     65 H25         9.3399    2.1216   11.8321 H         1 <0>         0.1218
     66 H26        10.3013    3.6119   11.6806 H         1 <0>         0.1253
     67 H27         9.5093    3.2170   13.2249 H         1 <0>         0.1251
     68 H28         0.4336   -3.2206    3.0723 H         1 <0>         0.0751
     69 H29        -0.9835   -2.1730    3.3226 H         1 <0>         0.0555
     70 H30        -1.1669   -3.7331    2.4857 H         1 <0>         0.0778
     71 H31         8.2947    4.8587   12.0003 H         1 <0>         0.4247
@<TRIPOS>BOND
     1    1    2 1
     2    1   41 1
     3    1   42 1
     4    1   43 1
     5    2    7 ar
     6    2    3 ar
     7    3    4 ar
     8    3   44 1
     9    4    5 ar
    10    4   45 1
    11    5    6 ar
    12    5   46 1
    13    6    7 ar
    14    6   40 1
    15    7    8 1
    16    8   18 1
    17    8    9 am
    18    9   10 2
    19    9   11 1
    20   11   16 ar
    21   11   12 ar
    22   12   13 ar
    23   12   47 1
    24   13   14 ar
    25   14   15 ar
    26   14   26 1
    27   15   16 ar
    28   16   17 1
    29   17   21 1
    30   17   18 1
    31   18   19 2
    32   19   20 1
    33   20   25 ar
    34   20   21 ar
    35   21   22 ar
    36   22   23 ar
    37   22   48 1
    38   23   24 ar
    39   23   49 1
    40   24   25 ar
    41   24   50 1
    42   25   51 1
    43   26   27 1
    44   26   52 1
    45   27   32 ar
    46   27   28 ar
    47   28   29 ar
    48   28   53 1
    49   29   30 ar
    50   29   54 1
    51   30   31 ar
    52   30   33 1
    53   31   32 ar
    54   31   55 1
    55   32   56 1
    56   33   38 1
    57   33   34 1
    58   34   35 1
    59   34   57 1
    60   34   58 1
    61   35   36 1
    62   35   59 1
    63   35   60 1
    64   36   37 1
    65   36   39 1
    66   36   71 1
    67   37   38 1
    68   37   61 1
    69   37   62 1
    70   38   63 1
    71   38   64 1
    72   39   65 1
    73   39   66 1
    74   39   67 1
    75   40   68 1
    76   40   69 1
    77   40   70 1
@<TRIPOS>MOLECULE
ZINC53214756
   72    78     0     0     0
SMALL
USER_CHARGES

@<TRIPOS>ATOM
      1 C1          0.4332    1.8459   -0.0966 C.3       1 <0>        -0.1154
      2 C2          0.2320    0.3535   -0.1552 C.ar      1 <0>        -0.0494
      3 C3          0.2374   -0.2975   -1.3733 C.ar      1 <0>        -0.1170
      4 C4          0.0529   -1.6668   -1.4279 C.ar      1 <0>        -0.0843
      5 C5         -0.1376   -2.3888   -0.2640 C.ar      1 <0>        -0.1169
      6 C6         -0.1441   -1.7437    0.9572 C.ar      1 <0>        -0.0493
      7 C7          0.0466   -0.3694    1.0159 C.ar      1 <0>         0.1062
      8 N1          0.0458    0.2869    2.2529 N.am      1 <0>        -0.4581
      9 C8          1.2077    0.4423    2.9199 C.2       1 <0>         0.5837
     10 O1          2.2504    0.0192    2.4575 O.2       1 <0>        -0.4684
     11 C9          1.1882    1.1328    4.2153 C.ar      1 <0>        -0.3093
     12 C10         2.3447    1.3349    4.9680 C.ar      1 <0>         0.2949
     13 N2          2.2398    1.9671    6.1250 N.ar      1 <0>        -0.5762
     14 C11         1.0649    2.4016    6.5657 C.ar      1 <0>         0.6033
     15 N3         -0.0588    2.2303    5.8818 N.ar      1 <0>        -0.5679
     16 C12        -0.0417    1.6073    4.7137 C.ar      1 <0>         0.4949
     17 N4         -1.1920    1.4109    3.9729 N.pl3     1 <0>        -0.4383
     18 C13        -1.1461    0.7687    2.7648 C.2       1 <0>         0.5148
     19 N5         -2.3580    0.7132    2.2558 N.2       1 <0>        -0.4542
     20 C14        -3.2403    1.3137    3.0934 C.ar      1 <0>         0.0841
     21 C15        -2.5132    1.7616    4.2083 C.ar      1 <0>         0.0453
     22 C16        -3.1633    2.4198    5.2406 C.ar      1 <0>        -0.0844
     23 C17        -4.5274    2.6186    5.1767 C.ar      1 <0>        -0.0994
     24 C18        -5.2533    2.1637    4.0862 C.ar      1 <0>        -0.1007
     25 C19        -4.6199    1.5297    3.0403 C.ar      1 <0>        -0.0629
     26 N6          1.0109    3.0553    7.7807 N.pl3     1 <0>        -0.6267
     27 C20         2.1918    3.3530    8.4676 C.ar      1 <0>         0.2440
     28 C21         3.3467    3.6671    7.7627 C.ar      1 <0>        -0.0966
     29 C22         4.5113    3.9611    8.4442 C.ar      1 <0>        -0.0517
     30 C23         4.5287    3.9425    9.8268 C.ar      1 <0>        -0.1063
     31 C24         3.3807    3.6297   10.5316 C.ar      1 <0>        -0.0594
     32 C25         2.2112    3.3408    9.8564 C.ar      1 <0>        -0.1283
     33 N7          5.7094    4.2401   10.5136 N.4       1 <0>        -0.3154
     34 C26         6.1000    3.0885   11.3378 C.3       1 <0>        -0.0320
     35 C27         7.3923    3.4142   12.0894 C.3       1 <0>        -0.0299
     36 N8          7.1755    4.5831   12.9524 N.4       1 <0>        -0.3958
     37 C28         6.7848    5.7346   12.1282 C.3       1 <0>        -0.0299
     38 C29         5.4926    5.4089   11.3766 C.3       1 <0>        -0.0317
     39 C30         8.4162    4.8958   13.6741 C.3       1 <0>        -0.0515
     40 C31        -0.3524   -2.5311    2.2252 C.3       1 <0>        -0.1155
     41 H1          1.4971    2.0659   -0.0081 H         1 <0>         0.0749
     42 H2          0.0425    2.3012   -1.0067 H         1 <0>         0.0799
     43 H3         -0.0945    2.2500    0.7673 H         1 <0>         0.0533
     44 H4          0.3856    0.2636   -2.2841 H         1 <0>         0.1349
     45 H5          0.0572   -2.1735   -2.3817 H         1 <0>         0.1350
     46 H6         -0.2818   -3.4581   -0.3099 H         1 <0>         0.1349
     47 H7          3.3029    0.9834    4.6148 H         1 <0>         0.2058
     48 H8         -2.6037    2.7758    6.0929 H         1 <0>         0.1328
     49 H9         -5.0331    3.1315    5.9815 H         1 <0>         0.1400
     50 H10        -6.3205    2.3246    4.0480 H         1 <0>         0.1431
     51 H11        -5.1908    1.1813    2.1923 H         1 <0>         0.1441
     52 H12         0.1537    3.3081    8.1578 H         1 <0>         0.4399
     53 H13         3.3340    3.6811    6.6828 H         1 <0>         0.1649
     54 H14         5.4096    4.2054    7.8967 H         1 <0>         0.1526
     55 H15         3.3978    3.6153   11.6114 H         1 <0>         0.1443
     56 H16         1.3138    3.1009   10.4075 H         1 <0>         0.1574
     57 H17         5.3084    2.8693   12.0543 H         1 <0>         0.1525
     58 H18         6.2609    2.2213   10.6974 H         1 <0>         0.1780
     59 H19         7.6821    2.5598   12.7010 H         1 <0>         0.1778
     60 H20         8.1839    3.6335   11.3729 H         1 <0>         0.1555
     61 H21         6.6240    6.6019   12.7686 H         1 <0>         0.1777
     62 H22         7.5765    5.9538   11.4118 H         1 <0>         0.1554
     63 H23         5.2028    6.2633   10.7651 H         1 <0>         0.1776
     64 H24         4.7010    5.1897   12.0931 H         1 <0>         0.1526
     65 H25         9.2078    5.1150   12.9576 H         1 <0>         0.1316
     66 H26         8.2553    5.7631   14.3145 H         1 <0>         0.1380
     67 H27         8.7060    4.0414   14.2856 H         1 <0>         0.1380
     68 H28         0.6124   -2.8612    2.6104 H         1 <0>         0.0749
     69 H29        -0.8438   -1.9018    2.9671 H         1 <0>         0.0535
     70 H30        -0.9763   -3.3998    2.0150 H         1 <0>         0.0799
     71 H31         6.4426    4.3801   13.6157 H         1 <0>         0.4359
     72 H32         6.4422    4.4430    9.8504 H         1 <0>         0.4352
@<TRIPOS>BOND
     1    1    2 1
     2    1   41 1
     3    1   42 1
     4    1   43 1
     5    2    7 ar
     6    2    3 ar
     7    3    4 ar
     8    3   44 1
     9    4    5 ar
    10    4   45 1
    11    5    6 ar
    12    5   46 1
    13    6    7 ar
    14    6   40 1
    15    7    8 1
    16    8   18 1
    17    8    9 am
    18    9   10 2
    19    9   11 1
    20   11   16 ar
    21   11   12 ar
    22   12   13 ar
    23   12   47 1
    24   13   14 ar
    25   14   15 ar
    26   14   26 1
    27   15   16 ar
    28   16   17 1
    29   17   21 1
    30   17   18 1
    31   18   19 2
    32   19   20 1
    33   20   25 ar
    34   20   21 ar
    35   21   22 ar
    36   22   23 ar
    37   22   48 1
    38   23   24 ar
    39   23   49 1
    40   24   25 ar
    41   24   50 1
    42   25   51 1
    43   26   27 1
    44   26   52 1
    45   27   32 ar
    46   27   28 ar
    47   28   29 ar
    48   28   53 1
    49   29   30 ar
    50   29   54 1
    51   30   31 ar
    52   30   33 1
    53   31   32 ar
    54   31   55 1
    55   32   56 1
    56   33   38 1
    57   33   34 1
    58   33   72 1
    59   34   35 1
    60   34   57 1
    61   34   58 1
    62   35   36 1
    63   35   59 1
    64   35   60 1
    65   36   37 1
    66   36   39 1
    67   36   71 1
    68   37   38 1
    69   37   61 1
    70   37   62 1
    71   38   63 1
    72   38   64 1
    73   39   65 1
    74   39   66 1
    75   39   67 1
    76   40   68 1
    77   40   69 1
    78   40   70 1
@<TRIPOS>MOLECULE
ZINC14959980
   44    45     0     0     0
SMALL
USER_CHARGES

@<TRIPOS>ATOM
      1 C1         -0.0187    1.5258    0.0104 C.3       1 <0>        -0.1572
      2 C2          0.0021   -0.0041    0.0020 C.3       1 <0>         0.0644
      3 O1          0.6709   -0.4649   -1.1737 O.3       1 <0>        -0.2954
      4 C3          0.7764   -1.8060   -1.3357 C.ar      1 <0>         0.4160
      5 C4          1.4284   -2.3208   -2.4685 C.ar      1 <0>        -0.1683
      6 C5          1.5285   -3.7158   -2.6192 C.ar      1 <0>         0.3299
      7 C6          0.9723   -4.5281   -1.6306 C.ar      1 <0>        -0.2180
      8 C7          0.3447   -3.9382   -0.5417 C.ar      1 <0>         0.1834
      9 N1          0.2709   -2.6155   -0.4257 N.ar      1 <0>        -0.5591
     10 C8         -0.2483   -4.7967    0.5113 C.2       1 <0>         0.5734
     11 O2         -0.1829   -6.0064    0.4172 O.2       1 <0>        -0.5177
     12 N2         -0.8601   -4.2355    1.5730 N.am      1 <0>        -0.7056
     13 C9         -1.4462   -5.0839    2.6136 C.3       1 <0>         0.1515
     14 C10        -2.0637   -4.2166    3.6802 C.ar      1 <0>        -0.0565
     15 C11        -1.3058   -3.8041    4.7601 C.ar      1 <0>        -0.1186
     16 C12        -1.8723   -3.0085    5.7384 C.ar      1 <0>        -0.0244
     17 C13        -3.1965   -2.6251    5.6366 C.ar      1 <0>        -0.6520
     18 C14        -3.9541   -3.0369    4.5561 C.ar      1 <0>        -0.0244
     19 C15        -3.3865   -3.8289    3.5756 C.ar      1 <0>        -0.1187
     20 S1         -3.9188   -1.6120    6.8842 S.o2      1 <0>         2.4983
     21 O3         -5.3071   -1.9112    6.8354 O.2       1 <0>        -0.9353
     22 O4         -3.1602   -1.8823    8.0549 O.2       1 <0>        -0.9353
     23 C16        -3.6266    0.0902    6.3295 C.3       1 <0>        -0.6498
     24 N3          2.1626   -4.2688   -3.7210 N.pl3     1 <0>        -0.8366
     25 C17         1.9812   -1.4404   -3.4534 C.1       1 <0>         0.2638
     26 N4          2.4198   -0.7421   -4.2347 N.1       1 <0>        -0.4087
     27 H1          1.0039    1.9031    0.0027 H         1 <0>         0.0668
     28 H2         -0.5459    1.8868   -0.8726 H         1 <0>         0.0668
     29 H3         -0.5289    1.8773    0.9072 H         1 <0>         0.0828
     30 H4          0.5293   -0.3651    0.8851 H         1 <0>         0.0725
     31 H5         -1.0205   -0.3814    0.0098 H         1 <0>         0.0725
     32 H6          1.0290   -5.6036   -1.7116 H         1 <0>         0.1615
     33 H7         -0.9124   -3.2698    1.6481 H         1 <0>         0.4139
     34 H8         -2.2137   -5.7207    2.1737 H         1 <0>         0.0878
     35 H9         -0.6681   -5.7057    3.0564 H         1 <0>         0.0878
     36 H10        -0.2713   -4.1036    4.8397 H         1 <0>         0.1369
     37 H11        -1.2804   -2.6868    6.5826 H         1 <0>         0.1455
     38 H12        -4.9888   -2.7377    4.4767 H         1 <0>         0.1456
     39 H13        -3.9774   -4.1476    2.7296 H         1 <0>         0.1369
     40 H14        -4.1019    0.2432    5.3605 H         1 <0>         0.1320
     41 H15        -4.0480    0.7861    7.0548 H         1 <0>         0.1343
     42 H16        -2.5543    0.2640    6.2397 H         1 <0>         0.1319
     43 H17         2.5446   -3.6920   -4.4009 H         1 <0>         0.4093
     44 H18         2.2243   -5.2325   -3.8120 H         1 <0>         0.4163
@<TRIPOS>BOND
     1    1    2 1
     2    1   27 1
     3    1   28 1
     4    1   29 1
     5    2    3 1
     6    2   30 1
     7    2   31 1
     8    3    4 1
     9    4    9 ar
    10    4    5 ar
    11    5    6 ar
    12    5   25 1
    13    6    7 ar
    14    6   24 1
    15    7    8 ar
    16    7   32 1
    17    8    9 ar
    18    8   10 1
    19   10   11 2
    20   10   12 am
    21   12   13 1
    22   12   33 1
    23   13   14 1
    24   13   34 1
    25   13   35 1
    26   14   19 ar
    27   14   15 ar
    28   15   16 ar
    29   15   36 1
    30   16   17 ar
    31   16   37 1
    32   17   18 ar
    33   17   20 1
    34   18   19 ar
    35   18   38 1
    36   19   39 1
    37   20   21 2
    38   20   22 2
    39   20   23 1
    40   23   40 1
    41   23   41 1
    42   23   42 1
    43   24   43 1
    44   24   44 1
    45   25   26 3
@<TRIPOS>MOLECULE
ZINC21288966
   49    52     0     0     0
SMALL
USER_CHARGES
2-(2-chlorophenyl)-5,7-dihydroxy-8-[(3S,4R)-3-hydroxy-1-methyl-4-piperidyl]chromen-4-one
@<TRIPOS>ATOM
      1 C1          6.0895   -0.0238    5.9621 C.3       1 <0>        -0.0460
      2 N1          6.1756    1.0472    4.9603 N.4       1 <0>        -0.3934
      3 C2          5.9739    0.5180    3.6055 C.3       1 <0>        -0.0028
      4 C3          6.2126    1.6289    2.5802 C.3       1 <0>        -0.1464
      5 C4          5.2418    2.7821    2.8491 C.3       1 <0>        -0.0180
      6 H1          4.2050    2.4431    2.7074 H         1 <0>         0.1039
      7 C5          5.4391    3.2830    4.2825 C.3       1 <0>         0.1015
      8 H2          4.7709    4.1271    4.5084 H         1 <0>         0.0941
      9 C6          5.2218    2.1236    5.2574 C.3       1 <0>        -0.0361
     10 O1          6.7669    3.7898    4.4323 O.3       1 <0>        -0.5639
     11 C7          5.5132    3.9050    1.8814 C.ar      1 <0>        -0.2158
     12 C8          6.8017    4.3949    1.7322 C.ar      1 <0>         0.2946
     13 C9          7.0678    5.4304    0.8434 C.ar      1 <0>        -0.3049
     14 C10         6.0448    5.9841    0.0956 C.ar      1 <0>         0.3111
     15 C11         4.7411    5.4942    0.2412 C.ar      1 <0>        -0.3649
     16 C12         4.4748    4.4470    1.1407 C.ar      1 <0>         0.2362
     17 O2          3.2147    3.9814    1.2730 O.3       1 <0>        -0.2171
     18 C13         2.1871    4.4838    0.5705 C.2       1 <0>         0.1982
     19 C14         2.3394    5.4926   -0.3277 C.2       1 <0>        -0.2780
     20 C15         3.6225    6.0546   -0.5353 C.2       1 <0>         0.4382
     21 O3          3.7953    6.9641   -1.3304 O.2       1 <0>        -0.4786
     22 C16         0.8407    3.9147    0.7769 C.ar      1 <0>        -0.0680
     23 C17         0.6478    2.5322    0.7263 C.ar      1 <0>        -0.0708
     24 C18        -0.6124    2.0073    0.9205 C.ar      1 <0>        -0.1159
     25 C19        -1.6867    2.8467    1.1599 C.ar      1 <0>        -0.0780
     26 C20        -1.5036    4.2164    1.2169 C.ar      1 <0>        -0.1066
     27 C21        -0.2472    4.7566    1.0243 C.ar      1 <0>        -0.0057
     28 Cl1        -0.0199    6.4765    1.0889 Cl        1 <0>        -0.0424
     29 O4          6.3024    6.9947   -0.7728 O.3       1 <0>        -0.4999
     30 O5          7.8133    3.8585    2.4614 O.3       1 <0>        -0.4665
     31 H3          6.8128   -0.8151    5.7159 H         1 <0>         0.1242
     32 H4          5.0728   -0.4438    5.9634 H         1 <0>         0.1169
     33 H5          6.3184    0.3856    6.9571 H         1 <0>         0.1225
     34 H6          6.6809   -0.3050    3.4243 H         1 <0>         0.1308
     35 H7          4.9438    0.1448    3.5072 H         1 <0>         0.1211
     36 H8          7.2477    1.9910    2.6662 H         1 <0>         0.1216
     37 H9          6.0450    1.2349    1.5669 H         1 <0>         0.1057
     38 H10         4.1951    1.7434    5.1512 H         1 <0>         0.1298
     39 H11         5.3771    2.4772    6.2874 H         1 <0>         0.1312
     40 H12         7.0946    4.1958    5.4007 H         1 <0>         0.4106
     41 H13         8.0758    5.8030    0.7365 H         1 <0>         0.1471
     42 H14         1.4871    5.8659   -0.8759 H         1 <0>         0.1670
     43 H15         1.4839    1.8757    0.5352 H         1 <0>         0.1384
     44 H16        -0.7625    0.9385    0.8812 H         1 <0>         0.1407
     45 H17        -2.6721    2.4298    1.3071 H         1 <0>         0.1438
     46 H18        -2.3456    4.8651    1.4082 H         1 <0>         0.1476
     47 H19         5.4855    7.4321   -1.3656 H         1 <0>         0.4556
     48 H20         8.8375    4.2431    2.3473 H         1 <0>         0.4397
     49 H21         7.1882    1.4744    5.0059 H         1 <0>         0.4481
@<TRIPOS>BOND
     1    1    2 1
     2    1   31 1
     3    1   32 1
     4    1   33 1
     5    2    9 1
     6    2    3 1
     7    2   49 1
     8    3    4 1
     9    3   34 1
    10    3   35 1
    11    4    5 1
    12    4   36 1
    13    4   37 1
    14    5    6 1
    15    5    7 1
    16    5   11 1
    17    7    8 1
    18    7    9 1
    19    7   10 1
    20    9   38 1
    21    9   39 1
    22   10   40 1
    23   11   16 ar
    24   11   12 ar
    25   12   13 ar
    26   12   30 1
    27   13   14 ar
    28   13   41 1
    29   14   15 ar
    30   14   29 1
    31   15   20 1
    32   15   16 ar
    33   16   17 1
    34   17   18 1
    35   18   19 2
    36   18   22 1
    37   19   20 1
    38   19   42 1
    39   20   21 2
    40   22   27 ar
    41   22   23 ar
    42   23   24 ar
    43   23   43 1
    44   24   25 ar
    45   24   44 1
    46   25   26 ar
    47   25   45 1
    48   26   27 ar
    49   26   46 1
    50   27   28 1
    51   29   47 1
    52   30   48 1
@<TRIPOS>MOLECULE
ZINC43202844
   69    73     0     0     0
SMALL
USER_CHARGES

@<TRIPOS>ATOM
      1 C1          0.0444    1.5338   -0.2143 C.3       1 <0>         0.0837
      2 N1          0.2311    0.0819   -0.1562 N.am      1 <0>        -0.7275
      3 C2          0.3054   -0.6341   -1.2956 C.2       1 <0>         0.5630
      4 O1          0.2176   -0.0749   -2.3720 O.2       1 <0>        -0.5155
      5 C3          0.4931   -2.0941   -1.2372 C.ar      1 <0>        -0.1988
      6 C4         -0.6202   -2.9489   -1.1967 C.ar      1 <0>         0.2153
      7 C5         -0.4304   -4.3228   -1.1418 C.ar      1 <0>        -0.1276
      8 C6          0.8476   -4.8461   -1.1270 C.ar      1 <0>        -0.0528
      9 C7          1.9492   -4.0089   -1.1662 C.ar      1 <0>        -0.1679
     10 C8          1.7820   -2.6388   -1.2274 C.ar      1 <0>         0.1531
     11 F1          2.8606   -1.8265   -1.2720 F         1 <0>        -0.1266
     12 N2         -1.9068   -2.4214   -1.2112 N.pl3     1 <0>        -0.6365
     13 C9         -2.9248   -3.0973   -1.8623 C.ar      1 <0>         0.5212
     14 C10        -4.2051   -2.5325   -1.9745 C.ar      1 <0>        -0.2893
     15 C11        -4.8245   -1.2809   -1.5407 C.2       1 <0>        -0.1501
     16 C12        -6.1020   -1.3166   -1.9522 C.2       1 <0>         0.0304
     17 N3         -6.3441   -2.4941   -2.6144 N.pl3     1 <0>        -0.5686
     18 H1         -7.1953   -2.7486   -3.0037 H         1 <0>         0.4169
     19 C13        -5.2084   -3.2559   -2.6447 C.ar      1 <0>         0.3860
     20 N4         -4.9053   -4.4516   -3.1480 N.ar      1 <0>        -0.5937
     21 C14        -3.6863   -4.9476   -3.0199 C.ar      1 <0>         0.6168
     22 N5         -2.7114   -4.2934   -2.4003 N.ar      1 <0>        -0.6100
     23 N6         -3.4145   -6.1953   -3.5583 N.pl3     1 <0>        -0.6216
     24 C15        -4.3817   -6.8504   -4.3305 C.ar      1 <0>         0.1714
     25 C16        -5.3531   -6.1176   -4.9899 C.ar      1 <0>        -0.0957
     26 C17        -6.3200   -6.7637   -5.7612 C.ar      1 <0>         0.0987
     27 C18        -6.2945   -8.1459   -5.8584 C.ar      1 <0>        -0.1043
     28 C19        -5.3245   -8.8804   -5.2008 C.ar      1 <0>        -0.1496
     29 C20        -4.3621   -8.2391   -4.4393 C.ar      1 <0>         0.0986
     30 O2         -3.4050   -8.9620   -3.7969 O.3       1 <0>        -0.3131
     31 C21        -3.4487  -10.3815   -3.9551 C.3       1 <0>         0.0267
     32 C22        -7.4385   -8.5874   -6.7438 C.3       1 <0>        -0.0870
     33 C23        -8.1386   -7.2816   -7.1532 C.3       1 <0>         0.0904
     34 N7         -7.3766   -6.2149   -6.4986 N.am      1 <0>        -0.5220
     35 C24        -7.6523   -4.8990   -6.5920 C.2       1 <0>         0.5014
     36 O3         -6.9594   -4.0913   -6.0099 O.2       1 <0>        -0.5079
     37 C25        -8.8214   -4.4309   -7.4197 C.3       1 <0>        -0.0275
     38 N8         -8.9081   -2.9657   -7.3603 N.4       1 <0>        -0.3725
     39 C26        -7.7214   -2.3788   -7.9970 C.3       1 <0>        -0.0606
     40 C27       -10.1153   -2.5175   -8.0673 C.3       1 <0>        -0.0472
     41 H2          0.8758    1.9856   -0.7554 H         1 <0>         0.0645
     42 H3         -0.8896    1.7598   -0.7287 H         1 <0>         0.0626
     43 H4          0.0082    1.9363    0.7981 H         1 <0>         0.0817
     44 H5          0.3011   -0.3641    0.7023 H         1 <0>         0.4054
     45 H6         -1.2838   -4.9839   -1.1102 H         1 <0>         0.1570
     46 H7          0.9884   -5.9160   -1.0841 H         1 <0>         0.1431
     47 H8          2.9441   -4.4289   -1.1538 H         1 <0>         0.1451
     48 H9         -2.0911   -1.5800   -0.7652 H         1 <0>         0.4238
     49 H10        -4.3464   -0.4815   -0.9941 H         1 <0>         0.1496
     50 H11        -6.8299   -0.5362   -1.7866 H         1 <0>         0.1805
     51 H12        -2.5543   -6.6148   -3.4002 H         1 <0>         0.4328
     52 H13        -5.3631   -5.0408   -4.9069 H         1 <0>         0.1823
     53 H14        -5.3157   -9.9571   -5.2842 H         1 <0>         0.1418
     54 H15        -3.3461  -10.6328   -5.0108 H         1 <0>         0.0589
     55 H16        -2.6325  -10.8350   -3.3927 H         1 <0>         0.1063
     56 H17        -4.4007  -10.7596   -3.5824 H         1 <0>         0.0585
     57 H18        -7.0593   -9.1074   -7.6235 H         1 <0>         0.1000
     58 H19        -8.1236   -9.2280   -6.1884 H         1 <0>         0.0996
     59 H20        -8.1069   -7.1590   -8.2359 H         1 <0>         0.0924
     60 H21        -9.1703   -7.2795   -6.8018 H         1 <0>         0.0924
     61 H22        -8.6830   -4.7451   -8.4543 H         1 <0>         0.1604
     62 H23        -9.7411   -4.8655   -7.0280 H         1 <0>         0.1607
     63 H24        -7.7858   -1.2916   -7.9529 H         1 <0>         0.1275
     64 H25        -6.8257   -2.7113   -7.4724 H         1 <0>         0.1396
     65 H26        -7.6724   -2.6979   -9.0381 H         1 <0>         0.1203
     66 H27       -10.9957   -2.9530   -7.5949 H         1 <0>         0.1255
     67 H28       -10.1796   -1.4303   -8.0232 H         1 <0>         0.1306
     68 H29       -10.0662   -2.8367   -9.1084 H         1 <0>         0.1251
     69 H30        -8.9535   -2.6703   -6.3966 H         1 <0>         0.4323
@<TRIPOS>BOND
     1    1    2 1
     2    1   41 1
     3    1   42 1
     4    1   43 1
     5    2    3 am
     6    2   44 1
     7    3    4 2
     8    3    5 1
     9    5   10 ar
    10    5    6 ar
    11    6    7 ar
    12    6   12 1
    13    7    8 ar
    14    7   45 1
    15    8    9 ar
    16    8   46 1
    17    9   10 ar
    18    9   47 1
    19   10   11 1
    20   12   13 1
    21   12   48 1
    22   13   22 ar
    23   13   14 ar
    24   14   19 ar
    25   14   15 1
    26   15   16 2
    27   15   49 1
    28   16   17 1
    29   16   50 1
    30   17   18 1
    31   17   19 1
    32   19   20 ar
    33   20   21 ar
    34   21   22 ar
    35   21   23 1
    36   23   24 1
    37   23   51 1
    38   24   29 ar
    39   24   25 ar
    40   25   26 ar
    41   25   52 1
    42   26   34 1
    43   26   27 ar
    44   27   28 ar
    45   27   32 1
    46   28   29 ar
    47   28   53 1
    48   29   30 1
    49   30   31 1
    50   31   54 1
    51   31   55 1
    52   31   56 1
    53   32   33 1
    54   32   57 1
    55   32   58 1
    56   33   34 1
    57   33   59 1
    58   33   60 1
    59   34   35 am
    60   35   36 2
    61   35   37 1
    62   37   38 1
    63   37   61 1
    64   37   62 1
    65   38   39 1
    66   38   40 1
    67   38   69 1
    68   39   63 1
    69   39   64 1
    70   39   65 1
    71   40   66 1
    72   40   67 1
    73   40   68 1
@<TRIPOS>MOLECULE
ZINC11617039
   55    58     0     0     0
SMALL
USER_CHARGES

@<TRIPOS>ATOM
      1 H1          0.2120    6.2074    3.3921 H         1 <0>         0.1353
      2 C1         -0.6814    5.6062    3.3098 C.ar      1 <0>         0.0196
      3 C2         -1.0741    5.1311    2.1031 C.ar      1 <0>        -0.1998
      4 C3         -2.2288    4.3474    1.9606 C.ar      1 <0>         0.2426
      5 C4         -3.0111    4.0257    3.0293 C.ar      1 <0>        -0.1858
      6 C5         -2.6578    4.4884    4.3143 C.ar      1 <0>         0.1374
      7 C6         -1.4433    5.3059    4.4600 C.ar      1 <0>        -0.2352
      8 C7         -1.3367    5.6110    5.8041 C.2       1 <0>         0.1330
      9 N1         -2.3705    5.0424    6.4391 N.pl3     1 <0>        -0.3190
     10 N2         -3.1795    4.3626    5.5213 N.2       1 <0>        -0.3200
     11 C8         -2.6225    5.1281    7.8797 C.3       1 <0>         0.0831
     12 H2         -3.2434    5.9992    8.0888 H         1 <0>         0.0888
     13 H3         -3.1369    4.2268    8.2129 H         1 <0>         0.0992
     14 H4         -1.6744    5.2222    8.4094 H         1 <0>         0.0983
     15 C9         -0.2495    6.4365    6.4425 C.3       1 <0>        -0.1025
     16 H5         -0.5455    7.4855    6.4477 H         1 <0>         0.0927
     17 H6         -0.0907    6.0987    7.4666 H         1 <0>         0.0807
     18 H7          0.6740    6.3223    5.8749 H         1 <0>         0.0943
     19 H8         -3.8955    3.4210    2.8932 H         1 <0>         0.1075
     20 N3         -2.5862    3.8853    0.6908 N.pl3     1 <0>        -0.5925
     21 C10        -3.6562    3.0160    0.5454 C.ar      1 <0>         0.5430
     22 C11        -3.4766    1.6392    0.6984 C.ar      1 <0>        -0.2193
     23 C12        -4.5711    0.8111    0.5450 C.ar      1 <0>         0.2156
     24 N4         -5.7510    1.3422    0.2594 N.ar      1 <0>        -0.5411
     25 C13        -5.8925    2.6520    0.1199 C.ar      1 <0>         0.6254
     26 N5         -4.8692    3.4808    0.2639 N.ar      1 <0>        -0.5160
     27 N6         -7.1427    3.1682   -0.1788 N.pl3     1 <0>        -0.6061
     28 C14        -7.2911    4.5338   -0.4396 C.ar      1 <0>         0.0902
     29 C15        -6.2697    5.2382   -1.0645 C.ar      1 <0>        -0.0370
     30 C16        -6.4197    6.5867   -1.3210 C.ar      1 <0>        -0.1186
     31 C17        -7.5850    7.2362   -0.9562 C.ar      1 <0>         0.0334
     32 C18        -8.6034    6.5381   -0.3338 C.ar      1 <0>        -0.6606
     33 C19        -8.4623    5.1877   -0.0798 C.ar      1 <0>        -0.0140
     34 S1        -10.0857    7.3705    0.1294 S.o2      1 <0>         2.7024
     35 O1        -10.5091    8.1093   -1.0082 O.2       1 <0>        -0.9461
     36 O2        -10.9137    6.4040    0.7615 O.2       1 <0>        -0.9598
     37 N7         -9.6818    8.4799    1.2907 N.pl3     1 <0>        -1.2481
     38 C20        -7.7450    8.7080   -1.2374 C.3       1 <0>        -0.1567
     39 H9         -8.1929    8.8433   -2.2218 H         1 <0>         0.1090
     40 H10        -8.3897    9.1545   -0.4804 H         1 <0>         0.0769
     41 H11        -6.7680    9.1908   -1.2132 H         1 <0>         0.0924
     42 H12        -4.4665   -0.2581    0.6563 H         1 <0>         0.2280
     43 H13        -2.5039    1.2316    0.9310 H         1 <0>         0.1988
     44 C21        -1.8301    4.3196   -0.4864 C.3       1 <0>         0.0917
     45 H14        -1.0078    3.6271   -0.6659 H         1 <0>         0.0746
     46 H15        -2.4881    4.3354   -1.3553 H         1 <0>         0.0729
     47 H16        -1.4320    5.3196   -0.3140 H         1 <0>         0.0953
     48 H17        -0.4834    5.3620    1.2289 H         1 <0>         0.1346
     49 H18        -7.9152    2.5823   -0.2071 H         1 <0>         0.4391
     50 H19        -5.3592    4.7318   -1.3490 H         1 <0>         0.1427
     51 H20        -5.6260    7.1349   -1.8068 H         1 <0>         0.1482
     52 H21        -9.2599    4.6421    0.4024 H         1 <0>         0.1564
     53 H22        -8.7604    8.5635    1.5820 H         1 <0>         0.4174
     54 H23       -10.3667    9.0460    1.6797 H         1 <0>         0.4270
     55 H24        -6.5221    0.7638    0.1506 H         1 <0>         0.4504
@<TRIPOS>BOND
     1    1    2 1
     2    2    7 ar
     3    2    3 ar
     4    3    4 ar
     5    3   48 1
     6    4    5 ar
     7    4   20 1
     8    5    6 ar
     9    5   19 1
    10    6   10 2
    11    6    7 ar
    12    7    8 2
    13    8    9 1
    14    8   15 1
    15    9   10 1
    16    9   11 1
    17   11   12 1
    18   11   13 1
    19   11   14 1
    20   15   16 1
    21   15   17 1
    22   15   18 1
    23   20   21 1
    24   20   44 1
    25   21   26 ar
    26   21   22 ar
    27   22   23 ar
    28   22   43 1
    29   23   24 ar
    30   23   42 1
    31   24   25 ar
    32   24   55 1
    33   25   26 ar
    34   25   27 1
    35   27   28 1
    36   27   49 1
    37   28   33 ar
    38   28   29 ar
    39   29   30 ar
    40   29   50 1
    41   30   31 ar
    42   30   51 1
    43   31   32 ar
    44   31   38 1
    45   32   33 ar
    46   32   34 1
    47   33   52 1
    48   34   35 2
    49   34   36 2
    50   34   37 1
    51   37   53 1
    52   37   54 1
    53   38   39 1
    54   38   40 1
    55   38   41 1
    56   44   45 1
    57   44   46 1
    58   44   47 1
@<TRIPOS>MOLECULE
ZINC13597510
   33    35     0     0     0
SMALL
USER_CHARGES

@<TRIPOS>ATOM
      1 C1         -0.0184    1.5028    0.0103 C.3       1 <0>        -0.1113
      2 C2          0.0021   -0.0041    0.0020 C.ar      1 <0>        -0.0890
      3 C3          0.0057   -0.6887   -1.1989 C.ar      1 <0>        -0.1280
      4 C4          0.0245   -2.0709   -1.2065 C.ar      1 <0>        -0.0990
      5 C5          0.0400   -2.7685   -0.0132 C.ar      1 <0>        -0.1081
      6 C6          0.0373   -2.0839    1.1877 C.ar      1 <0>        -0.0849
      7 C7          0.0229   -0.7016    1.1953 C.ar      1 <0>        -0.1244
      8 C8          0.0595   -4.2753   -0.0215 C.3       1 <0>         0.1547
      9 N1          1.4468   -4.7457   -0.0317 N.pl3     1 <0>        -0.5126
     10 C9          2.1865   -4.9867   -1.1814 C.ar      1 <0>         0.1043
     11 C10         1.8843   -4.8736   -2.5330 C.ar      1 <0>        -0.1308
     12 C11         2.8355   -5.1887   -3.4820 C.ar      1 <0>        -0.1313
     13 C12         4.0958   -5.6190   -3.1010 C.ar      1 <0>        -0.1408
     14 C13         4.4132   -5.7371   -1.7627 C.ar      1 <0>        -0.1007
     15 C14         3.4626   -5.4218   -0.7993 C.ar      1 <0>        -0.0151
     16 C15         3.4638   -5.4345    0.6814 C.2       1 <0>        -0.2764
     17 C16         2.1731   -4.9954    1.0698 C.2       1 <0>         0.4960
     18 O1          1.7443   -4.8546    2.3370 O.3       1 <0>        -0.6131
     19 N2          4.4585   -5.7784    1.4731 N.2       1 <0>        -0.2586
     20 O2          4.3159   -5.7401    2.6821 O.2       1 <0>        -0.1488
     21 H1          1.0042    1.8801    0.0026 H         1 <0>         0.0681
     22 H2         -0.5455    1.8639   -0.8728 H         1 <0>         0.0632
     23 H3         -0.5286    1.8543    0.9071 H         1 <0>         0.0641
     24 H4         -0.0064   -0.1436   -2.1312 H         1 <0>         0.1188
     25 H5          0.0266   -2.6057   -2.1448 H         1 <0>         0.1190
     26 H6          0.0491   -2.6289    2.1200 H         1 <0>         0.1305
     27 H7          0.0245   -0.1667    2.1335 H         1 <0>         0.1205
     28 H8         -0.4447   -4.6501    0.8693 H         1 <0>         0.0946
     29 H9         -0.4546   -4.6404   -0.9106 H         1 <0>         0.0826
     30 H10         0.9045   -4.5394   -2.8409 H         1 <0>         0.1104
     31 H11         2.5950   -5.0993   -4.5310 H         1 <0>         0.1156
     32 H12         4.8318   -5.8630   -3.8528 H         1 <0>         0.1144
     33 H13         5.3956   -6.0733   -1.4658 H         1 <0>         0.1165
@<TRIPOS>BOND
     1    1    2 1
     2    1   21 1
     3    1   22 1
     4    1   23 1
     5    2    7 ar
     6    2    3 ar
     7    3    4 ar
     8    3   24 1
     9    4    5 ar
    10    4   25 1
    11    5    6 ar
    12    5    8 1
    13    6    7 ar
    14    6   26 1
    15    7   27 1
    16    8    9 1
    17    8   28 1
    18    8   29 1
    19    9   17 1
    20    9   10 1
    21   10   15 ar
    22   10   11 ar
    23   11   12 ar
    24   11   30 1
    25   12   13 ar
    26   12   31 1
    27   13   14 ar
    28   13   32 1
    29   14   15 ar
    30   14   33 1
    31   15   16 1
    32   16   17 2
    33   16   19 1
    34   17   18 1
    35   19   20 2
@<TRIPOS>MOLECULE
ZINC13597510
   34    36     0     0     0
SMALL
USER_CHARGES

@<TRIPOS>ATOM
      1 C1         -0.0184    1.5028    0.0103 C.3       1 <0>        -0.1204
      2 C2          0.0021   -0.0041    0.0020 C.ar      1 <0>        -0.0681
      3 C3          0.0057   -0.6887   -1.1989 C.ar      1 <0>        -0.1227
      4 C4          0.0245   -2.0709   -1.2065 C.ar      1 <0>        -0.0912
      5 C5          0.0400   -2.7685   -0.0132 C.ar      1 <0>        -0.1350
      6 C6          0.0373   -2.0839    1.1877 C.ar      1 <0>        -0.0871
      7 C7          0.0229   -0.7016    1.1953 C.ar      1 <0>        -0.1213
      8 C8          0.0595   -4.2753   -0.0215 C.3       1 <0>         0.1355
      9 N1          1.4468   -4.7457   -0.0317 N.pl3     1 <0>        -0.4437
     10 C9          2.1865   -4.9867   -1.1814 C.ar      1 <0>         0.0811
     11 C10         1.8843   -4.8736   -2.5330 C.ar      1 <0>        -0.1056
     12 C11         2.8355   -5.1887   -3.4820 C.ar      1 <0>        -0.1020
     13 C12         4.0958   -5.6190   -3.1010 C.ar      1 <0>        -0.1141
     14 C13         4.4132   -5.7371   -1.7627 C.ar      1 <0>        -0.0785
     15 C14         3.4626   -5.4218   -0.7993 C.ar      1 <0>        -0.0306
     16 C15         3.4638   -5.4345    0.6814 C.2       1 <0>        -0.1896
     17 C16         2.1731   -4.9954    1.0698 C.2       1 <0>         0.3987
     18 O1          1.7443   -4.8546    2.3370 O.3       1 <0>        -0.4402
     19 N2          4.4585   -5.7784    1.4731 N.2       1 <0>        -0.2812
     20 O2          4.3159   -5.7401    2.6821 O.2       1 <0>         0.0325
     21 H1          1.0042    1.8801    0.0026 H         1 <0>         0.0747
     22 H2         -0.5455    1.8639   -0.8728 H         1 <0>         0.0697
     23 H3         -0.5286    1.8543    0.9071 H         1 <0>         0.0702
     24 H4         -0.0064   -0.1436   -2.1312 H         1 <0>         0.1269
     25 H5          0.0266   -2.6057   -2.1448 H         1 <0>         0.1222
     26 H6          0.0491   -2.6289    2.1200 H         1 <0>         0.1278
     27 H7          0.0245   -0.1667    2.1335 H         1 <0>         0.1279
     28 H8         -0.4447   -4.6501    0.8693 H         1 <0>         0.1074
     29 H9         -0.4546   -4.6404   -0.9106 H         1 <0>         0.1084
     30 H10         0.9045   -4.5394   -2.8409 H         1 <0>         0.1268
     31 H11         2.5950   -5.0993   -4.5310 H         1 <0>         0.1357
     32 H12         4.8318   -5.8630   -3.8528 H         1 <0>         0.1343
     33 H13         5.3956   -6.0733   -1.4658 H         1 <0>         0.1325
     34 H14         1.3356   -5.6502    2.7046 H         1 <0>         0.4192
@<TRIPOS>BOND
     1    1    2 1
     2    1   21 1
     3    1   22 1
     4    1   23 1
     5    2    7 ar
     6    2    3 ar
     7    3    4 ar
     8    3   24 1
     9    4    5 ar
    10    4   25 1
    11    5    6 ar
    12    5    8 1
    13    6    7 ar
    14    6   26 1
    15    7   27 1
    16    8    9 1
    17    8   28 1
    18    8   29 1
    19    9   17 1
    20    9   10 1
    21   10   15 ar
    22   10   11 ar
    23   11   12 ar
    24   11   30 1
    25   12   13 ar
    26   12   31 1
    27   13   14 ar
    28   13   32 1
    29   14   15 ar
    30   14   33 1
    31   15   16 1
    32   16   17 2
    33   16   19 1
    34   17   18 1
    35   18   34 1
    36   19   20 2
@<TRIPOS>MOLECULE
ZINC13597513
   34    36     0     0     0
SMALL
USER_CHARGES

@<TRIPOS>ATOM
      1 C1         -0.0167    1.3767    0.0096 C.ar      1 <0>        -0.1444
      2 C2          1.1722    2.0862    0.0021 C.ar      1 <0>        -0.0601
      3 C3          2.3846    1.4262   -0.0135 C.ar      1 <0>        -0.1418
      4 C4          2.4231    0.0362   -0.0218 C.ar      1 <0>         0.1739
      5 C5          1.2182   -0.6771   -0.0137 C.ar      1 <0>        -0.1100
      6 C6          0.0021   -0.0041    0.0020 C.ar      1 <0>        -0.0312
      7 C7          1.5812   -2.1146   -0.0251 C.2       1 <0>         0.1184
      8 N1          0.7750   -3.1373   -0.0226 N.2       1 <0>        -0.2367
      9 O1          1.2997   -4.4525   -0.0349 O.3       1 <0>        -0.3656
     10 C8          3.0666   -2.1319   -0.0400 C.2       1 <0>         0.5391
     11 O2          3.7719   -3.1218   -0.0520 O.2       1 <0>        -0.4608
     12 N2          3.4906   -0.8566   -0.0373 N.am      1 <0>        -0.5439
     13 C9          4.8998   -0.4564   -0.0496 C.3       1 <0>         0.1539
     14 C10         5.3975   -0.3265    1.3669 C.ar      1 <0>        -0.1207
     15 C11         5.2937    0.8834    2.0278 C.ar      1 <0>        -0.0668
     16 C12         5.7502    1.0026    3.3269 C.ar      1 <0>        -0.1200
     17 C13         6.3102   -0.0882    3.9657 C.ar      1 <0>        -0.0625
     18 C14         6.4132   -1.2980    3.3052 C.ar      1 <0>        -0.1831
     19 C15         5.9527   -1.4183    2.0072 C.ar      1 <0>        -0.0459
     20 C16         7.0241   -2.4868    4.0013 C.3       1 <0>         0.5079
     21 F1          7.4083   -2.1224    5.2962 F         1 <0>        -0.1761
     22 F2          6.0851   -3.5218    4.0674 F         1 <0>        -0.1741
     23 F3          8.1460   -2.9200    3.2865 F         1 <0>        -0.1746
     24 H1         -0.9593    1.9035    0.0260 H         1 <0>         0.1373
     25 H2          1.1509    3.1659    0.0081 H         1 <0>         0.1380
     26 H3          3.3053    1.9907   -0.0196 H         1 <0>         0.1325
     27 H4         -0.9245   -0.5588    0.0083 H         1 <0>         0.1372
     28 H5          0.6250   -5.1452   -0.0320 H         1 <0>         0.4122
     29 H6          5.4872   -1.2107   -0.5734 H         1 <0>         0.1068
     30 H7          5.0010    0.5016   -0.5596 H         1 <0>         0.1067
     31 H8          4.8562    1.7355    1.5288 H         1 <0>         0.1344
     32 H9          5.6697    1.9479    3.8430 H         1 <0>         0.1401
     33 H10         6.6675    0.0051    4.9806 H         1 <0>         0.1418
     34 H11         6.0297   -2.3646    1.4924 H         1 <0>         0.1379
@<TRIPOS>BOND
     1    1    6 ar
     2    1    2 ar
     3    1   24 1
     4    2    3 ar
     5    2   25 1
     6    3    4 ar
     7    3   26 1
     8    4   12 1
     9    4    5 ar
    10    5    6 ar
    11    5    7 1
    12    6   27 1
    13    7    8 2
    14    7   10 1
    15    8    9 1
    16    9   28 1
    17   10   11 2
    18   10   12 am
    19   12   13 1
    20   13   14 1
    21   13   29 1
    22   13   30 1
    23   14   19 ar
    24   14   15 ar
    25   15   16 ar
    26   15   31 1
    27   16   17 ar
    28   16   32 1
    29   17   18 ar
    30   17   33 1
    31   18   19 ar
    32   18   20 1
    33   19   34 1
    34   20   21 1
    35   20   22 1
    36   20   23 1
@<TRIPOS>MOLECULE
ZINC13597513
   34    36     0     0     0
SMALL
USER_CHARGES

@<TRIPOS>ATOM
      1 C1         -0.0166    1.3763    0.0096 C.ar      1 <0>        -0.1137
      2 C2          1.1714    2.0883    0.0021 C.ar      1 <0>        -0.1004
      3 C3          2.3846    1.4305   -0.0130 C.ar      1 <0>        -0.1076
      4 C4          2.4221    0.0414   -0.0208 C.ar      1 <0>         0.0806
      5 C5          1.2183   -0.6760   -0.0131 C.ar      1 <0>        -0.0304
      6 C6          0.0021   -0.0041    0.0020 C.ar      1 <0>        -0.0771
      7 C7          1.5958   -2.1079   -0.0239 C.2       1 <0>        -0.1864
      8 C8          3.0132   -2.1309   -0.0372 C.2       1 <0>         0.3970
      9 N1          3.4705   -0.8683   -0.0352 N.pl3     1 <0>        -0.4478
     10 C9          4.8883   -0.4997   -0.0466 C.3       1 <0>         0.1355
     11 C10         5.3878   -0.3804    1.3703 C.ar      1 <0>        -0.1282
     12 C11         5.3105    0.8317    2.0308 C.ar      1 <0>        -0.0640
     13 C12         5.7686    0.9410    3.3302 C.ar      1 <0>        -0.1185
     14 C13         6.3037   -0.1619    3.9697 C.ar      1 <0>        -0.0570
     15 C14         6.3801   -1.3738    3.3097 C.ar      1 <0>        -0.1814
     16 C15         5.9179   -1.4842    2.0113 C.ar      1 <0>        -0.0425
     17 C16         6.9637   -2.5758    4.0065 C.3       1 <0>         0.5085
     18 F1          7.3551   -2.2196    5.3016 F         1 <0>        -0.1750
     19 F2          6.0018   -3.5895    4.0722 F         1 <0>        -0.1716
     20 F3          8.0762   -3.0341    3.2927 F         1 <0>        -0.1743
     21 O1          3.7765   -3.2383   -0.0500 O.3       1 <0>        -0.4402
     22 N2          0.7836   -3.1446   -0.0209 N.2       1 <0>        -0.2830
     23 O2          1.2383   -4.2745   -0.0309 O.2       1 <0>         0.0391
     24 H1         -0.9598    1.9021    0.0259 H         1 <0>         0.1348
     25 H2          1.1482    3.1681    0.0077 H         1 <0>         0.1363
     26 H3          3.3050    1.9954   -0.0191 H         1 <0>         0.1271
     27 H4         -0.9243   -0.5592    0.0082 H         1 <0>         0.1330
     28 H5          5.4591   -1.2670   -0.5696 H         1 <0>         0.1117
     29 H6          5.0113    0.4557   -0.5567 H         1 <0>         0.1145
     30 H7          4.8926    1.6932    1.5313 H         1 <0>         0.1340
     31 H8          5.7089    1.8880    3.8459 H         1 <0>         0.1422
     32 H9          6.6622   -0.0762    4.9848 H         1 <0>         0.1445
     33 H10         5.9742   -2.4322    1.4969 H         1 <0>         0.1398
     34 H11         3.9918   -3.5575   -0.9371 H         1 <0>         0.4204
@<TRIPOS>BOND
     1    1    6 ar
     2    1    2 ar
     3    1   24 1
     4    2    3 ar
     5    2   25 1
     6    3    4 ar
     7    3   26 1
     8    4    9 1
     9    4    5 ar
    10    5    6 ar
    11    5    7 1
    12    6   27 1
    13    7    8 2
    14    7   22 1
    15    8    9 1
    16    8   21 1
    17    9   10 1
    18   10   11 1
    19   10   28 1
    20   10   29 1
    21   11   16 ar
    22   11   12 ar
    23   12   13 ar
    24   12   30 1
    25   13   14 ar
    26   13   31 1
    27   14   15 ar
    28   14   32 1
    29   15   16 ar
    30   15   17 1
    31   16   33 1
    32   17   18 1
    33   17   19 1
    34   17   20 1
    35   21   34 1
    36   22   23 2
@<TRIPOS>MOLECULE
ZINC05750925
   37    39     0     0     0
SMALL
USER_CHARGES

@<TRIPOS>ATOM
      1 C1         -0.0184    1.5028    0.0103 C.3       1 <0>        -0.1127
      2 C2          0.0021   -0.0041    0.0020 C.ar      1 <0>        -0.1112
      3 C3          0.0058   -0.6892   -1.2010 C.ar      1 <0>        -0.0634
      4 C4          0.0244   -2.0694   -1.2240 C.ar      1 <0>        -0.1362
      5 C5          0.0397   -2.7876   -0.0333 C.ar      1 <0>         0.1614
      6 C6          0.0364   -2.0903    1.1810 C.ar      1 <0>        -0.1488
      7 C7          0.0229   -0.7004    1.1944 C.ar      1 <0>        -0.0299
      8 C8          0.0556   -3.1142    2.2531 C.2       1 <0>         0.1108
      9 N1          0.0594   -2.9164    3.5403 N.2       1 <0>        -0.2279
     10 O1          0.0441   -1.5969    4.0539 O.3       1 <0>        -0.3795
     11 C9          0.0697   -4.4155    1.5364 C.2       1 <0>         0.5886
     12 O2          0.0875   -5.5168    2.0504 O.2       1 <0>        -0.4621
     13 N2          0.0595   -4.1563    0.2177 N.am      1 <0>        -0.5380
     14 C10         0.0678   -5.1856   -0.8247 C.3       1 <0>         0.1571
     15 C11         1.4913   -5.5193   -1.1898 C.ar      1 <0>        -0.1222
     16 C12         2.1301   -4.8168   -2.1947 C.ar      1 <0>        -0.0660
     17 C13         3.4357   -5.1229   -2.5296 C.ar      1 <0>        -0.1203
     18 C14         4.1030   -6.1314   -1.8593 C.ar      1 <0>        -0.0617
     19 C15         3.4646   -6.8331   -0.8542 C.ar      1 <0>        -0.1831
     20 C16         2.1601   -6.5240   -0.5163 C.ar      1 <0>        -0.0453
     21 C17         4.1918   -7.9327   -0.1239 C.3       1 <0>         0.5079
     22 F1          5.4877   -8.0553   -0.6366 F         1 <0>        -0.1762
     23 F2          4.2568   -7.6237    1.2390 F         1 <0>        -0.1739
     24 F3          3.5060   -9.1398   -0.2963 F         1 <0>        -0.1744
     25 H1          1.0042    1.8801    0.0026 H         1 <0>         0.0728
     26 H2         -0.5455    1.8639   -0.8728 H         1 <0>         0.0702
     27 H3         -0.5286    1.8543    0.9071 H         1 <0>         0.0687
     28 H4         -0.0064   -0.1388   -2.1302 H         1 <0>         0.1369
     29 H5          0.0268   -2.5926   -2.1688 H         1 <0>         0.1319
     30 H6          0.0245   -0.1672    2.1336 H         1 <0>         0.1377
     31 H7          0.0483   -1.5508    5.0198 H         1 <0>         0.4156
     32 H8         -0.4320   -6.0810   -0.4552 H         1 <0>         0.1096
     33 H9         -0.4558   -4.8146   -1.7058 H         1 <0>         0.1085
     34 H10         1.6089   -4.0290   -2.7182 H         1 <0>         0.1341
     35 H11         3.9345   -4.5745   -3.3150 H         1 <0>         0.1398
     36 H12         5.1229   -6.3710   -2.1215 H         1 <0>         0.1417
     37 H13         1.6626   -7.0698    0.2717 H         1 <0>         0.1394
@<TRIPOS>BOND
     1    1    2 1
     2    1   25 1
     3    1   26 1
     4    1   27 1
     5    2    7 ar
     6    2    3 ar
     7    3    4 ar
     8    3   28 1
     9    4    5 ar
    10    4   29 1
    11    5   13 1
    12    5    6 ar
    13    6    7 ar
    14    6    8 1
    15    7   30 1
    16    8    9 2
    17    8   11 1
    18    9   10 1
    19   10   31 1
    20   11   12 2
    21   11   13 am
    22   13   14 1
    23   14   15 1
    24   14   32 1
    25   14   33 1
    26   15   20 ar
    27   15   16 ar
    28   16   17 ar
    29   16   34 1
    30   17   18 ar
    31   17   35 1
    32   18   19 ar
    33   18   36 1
    34   19   20 ar
    35   19   21 1
    36   20   37 1
    37   21   22 1
    38   21   23 1
    39   21   24 1
@<TRIPOS>MOLECULE
ZINC08773073
   31    33     0     0     0
SMALL
USER_CHARGES

@<TRIPOS>ATOM
      1 C1         -0.0167    1.3767    0.0096 C.ar      1 <0>        -0.1450
      2 C2          1.1722    2.0862    0.0021 C.ar      1 <0>        -0.0601
      3 C3          2.3846    1.4262   -0.0135 C.ar      1 <0>        -0.1413
      4 C4          2.4231    0.0362   -0.0218 C.ar      1 <0>         0.1748
      5 C5          1.2182   -0.6771   -0.0137 C.ar      1 <0>        -0.1108
      6 C6          0.0021   -0.0041    0.0020 C.ar      1 <0>        -0.0314
      7 C7          1.5812   -2.1146   -0.0251 C.2       1 <0>         0.1191
      8 N1          0.7750   -3.1373   -0.0226 N.2       1 <0>        -0.2375
      9 O1          1.2997   -4.4525   -0.0349 O.3       1 <0>        -0.3662
     10 C8          3.0666   -2.1319   -0.0400 C.2       1 <0>         0.5393
     11 O2          3.7719   -3.1218   -0.0520 O.2       1 <0>        -0.4613
     12 N2          3.4906   -0.8566   -0.0373 N.am      1 <0>        -0.5430
     13 C9          4.8998   -0.4564   -0.0496 C.3       1 <0>         0.1542
     14 C10         5.3975   -0.3265    1.3669 C.ar      1 <0>        -0.1077
     15 C11         5.2936    0.8835    2.0277 C.ar      1 <0>        -0.0952
     16 C12         5.7499    1.0035    3.3269 C.ar      1 <0>        -0.1076
     17 C13         6.3108   -0.0863    3.9661 C.ar      1 <0>        -0.1008
     18 C14         6.4151   -1.2972    3.3055 C.ar      1 <0>        -0.0362
     19 C15         5.9526   -1.4182    2.0069 C.ar      1 <0>        -0.0875
     20 Cl1         7.1194   -2.6662    4.1076 Cl        1 <0>        -0.0636
     21 H1         -0.9593    1.9035    0.0260 H         1 <0>         0.1371
     22 H2          1.1509    3.1659    0.0081 H         1 <0>         0.1378
     23 H3          3.3053    1.9907   -0.0196 H         1 <0>         0.1326
     24 H4         -0.9245   -0.5588    0.0083 H         1 <0>         0.1370
     25 H5          0.6250   -5.1452   -0.0320 H         1 <0>         0.4119
     26 H6          5.4872   -1.2107   -0.5734 H         1 <0>         0.1056
     27 H7          5.0010    0.5016   -0.5596 H         1 <0>         0.1052
     28 H8          4.8561    1.7354    1.5284 H         1 <0>         0.1305
     29 H9          5.6684    1.9489    3.8426 H         1 <0>         0.1366
     30 H10         6.6680    0.0077    4.9810 H         1 <0>         0.1362
     31 H11         6.0296   -2.3645    1.4922 H         1 <0>         0.1374
@<TRIPOS>BOND
     1    1    6 ar
     2    1    2 ar
     3    1   21 1
     4    2    3 ar
     5    2   22 1
     6    3    4 ar
     7    3   23 1
     8    4   12 1
     9    4    5 ar
    10    5    6 ar
    11    5    7 1
    12    6   24 1
    13    7    8 2
    14    7   10 1
    15    8    9 1
    16    9   25 1
    17   10   11 2
    18   10   12 am
    19   12   13 1
    20   13   14 1
    21   13   26 1
    22   13   27 1
    23   14   19 ar
    24   14   15 ar
    25   15   16 ar
    26   15   28 1
    27   16   17 ar
    28   16   29 1
    29   17   18 ar
    30   17   30 1
    31   18   19 ar
    32   18   20 1
    33   19   31 1
@<TRIPOS>MOLECULE
ZINC08773073
   31    33     0     0     0
SMALL
USER_CHARGES

@<TRIPOS>ATOM
      1 C1         -0.0166    1.3763    0.0096 C.ar      1 <0>        -0.1138
      2 C2          1.1714    2.0883    0.0021 C.ar      1 <0>        -0.1010
      3 C3          2.3846    1.4305   -0.0130 C.ar      1 <0>        -0.1066
      4 C4          2.4221    0.0414   -0.0208 C.ar      1 <0>         0.0809
      5 C5          1.2183   -0.6760   -0.0131 C.ar      1 <0>        -0.0305
      6 C6          0.0021   -0.0041    0.0020 C.ar      1 <0>        -0.0777
      7 C7          1.5958   -2.1079   -0.0239 C.2       1 <0>        -0.1875
      8 C8          3.0132   -2.1309   -0.0372 C.2       1 <0>         0.3981
      9 N1          3.4705   -0.8683   -0.0352 N.pl3     1 <0>        -0.4464
     10 C9          4.8883   -0.4997   -0.0466 C.3       1 <0>         0.1356
     11 C10         5.3878   -0.3804    1.3703 C.ar      1 <0>        -0.1153
     12 C11         5.3105    0.8318    2.0307 C.ar      1 <0>        -0.0924
     13 C12         5.7683    0.9419    3.3302 C.ar      1 <0>        -0.1062
     14 C13         6.3043   -0.1599    3.9702 C.ar      1 <0>        -0.0954
     15 C14         6.3820   -1.3730    3.3099 C.ar      1 <0>        -0.0354
     16 C15         5.9178   -1.4841    2.0111 C.ar      1 <0>        -0.0843
     17 Cl1         7.0549   -2.7572    4.1130 Cl        1 <0>        -0.0575
     18 O1          3.7765   -3.2383   -0.0500 O.3       1 <0>        -0.4399
     19 N2          0.7836   -3.1446   -0.0209 N.2       1 <0>        -0.2823
     20 O2          1.2383   -4.2745   -0.0309 O.2       1 <0>         0.0366
     21 H1         -0.9598    1.9021    0.0259 H         1 <0>         0.1346
     22 H2          1.1482    3.1681    0.0077 H         1 <0>         0.1361
     23 H3          3.3050    1.9954   -0.0191 H         1 <0>         0.1271
     24 H4         -0.9243   -0.5592    0.0082 H         1 <0>         0.1328
     25 H5          5.4591   -1.2670   -0.5696 H         1 <0>         0.1105
     26 H6          5.0113    0.4557   -0.5567 H         1 <0>         0.1131
     27 H7          4.8924    1.6931    1.5309 H         1 <0>         0.1300
     28 H8          5.7077    1.8891    3.8455 H         1 <0>         0.1386
     29 H9          6.6627   -0.0736    4.9853 H         1 <0>         0.1390
     30 H10         5.9741   -2.4321    1.4966 H         1 <0>         0.1393
     31 H11         3.9918   -3.5575   -0.9371 H         1 <0>         0.4200
@<TRIPOS>BOND
     1    1    6 ar
     2    1    2 ar
     3    1   21 1
     4    2    3 ar
     5    2   22 1
     6    3    4 ar
     7    3   23 1
     8    4    9 1
     9    4    5 ar
    10    5    6 ar
    11    5    7 1
    12    6   24 1
    13    7    8 2
    14    7   19 1
    15    8    9 1
    16    8   18 1
    17    9   10 1
    18   10   11 1
    19   10   25 1
    20   10   26 1
    21   11   16 ar
    22   11   12 ar
    23   12   13 ar
    24   12   27 1
    25   13   14 ar
    26   13   28 1
    27   14   15 ar
    28   14   29 1
    29   15   16 ar
    30   15   17 1
    31   16   30 1
    32   18   31 1
    33   19   20 2
@<TRIPOS>MOLECULE
ZINC08577574
   31    33     0     0     0
SMALL
USER_CHARGES

@<TRIPOS>ATOM
      1 C1         -0.0167    1.3767    0.0096 C.ar      1 <0>        -0.1448
      2 C2          1.1722    2.0862    0.0021 C.ar      1 <0>        -0.0600
      3 C3          2.3846    1.4262   -0.0135 C.ar      1 <0>        -0.1413
      4 C4          2.4231    0.0362   -0.0218 C.ar      1 <0>         0.1745
      5 C5          1.2182   -0.6771   -0.0137 C.ar      1 <0>        -0.1111
      6 C6          0.0021   -0.0041    0.0020 C.ar      1 <0>        -0.0314
      7 C7          1.5812   -2.1146   -0.0251 C.2       1 <0>         0.1190
      8 N1          0.7750   -3.1373   -0.0226 N.2       1 <0>        -0.2376
      9 O1          1.2997   -4.4525   -0.0349 O.3       1 <0>        -0.3665
     10 C8          3.0666   -2.1319   -0.0400 C.2       1 <0>         0.5399
     11 O2          3.7719   -3.1218   -0.0520 O.2       1 <0>        -0.4628
     12 N2          3.4906   -0.8566   -0.0373 N.am      1 <0>        -0.5426
     13 C9          4.8998   -0.4564   -0.0496 C.3       1 <0>         0.1533
     14 C10         5.3975   -0.3265    1.3669 C.ar      1 <0>        -0.1162
     15 C11         5.2936    0.8834    2.0275 C.ar      1 <0>        -0.0863
     16 C12         5.7499    1.0032    3.3266 C.ar      1 <0>        -0.1122
     17 C13         6.3108   -0.0881    3.9659 C.ar      1 <0>        -0.0253
     18 C14         6.4145   -1.2987    3.3042 C.ar      1 <0>        -0.1114
     19 C15         5.9527   -1.4187    2.0070 C.ar      1 <0>        -0.0824
     20 Cl1         6.8846    0.0618    5.5974 Cl        1 <0>        -0.0646
     21 H1         -0.9593    1.9035    0.0260 H         1 <0>         0.1372
     22 H2          1.1509    3.1659    0.0081 H         1 <0>         0.1379
     23 H3          3.3053    1.9907   -0.0196 H         1 <0>         0.1326
     24 H4         -0.9245   -0.5588    0.0083 H         1 <0>         0.1370
     25 H5          0.6250   -5.1452   -0.0320 H         1 <0>         0.4120
     26 H6          5.4872   -1.2107   -0.5734 H         1 <0>         0.1056
     27 H7          5.0010    0.5016   -0.5596 H         1 <0>         0.1037
     28 H8          4.8560    1.7353    1.5282 H         1 <0>         0.1334
     29 H9          5.6689    1.9486    3.8425 H         1 <0>         0.1373
     30 H10         6.8526   -2.1508    3.8026 H         1 <0>         0.1366
     31 H11         6.0294   -2.3649    1.4921 H         1 <0>         0.1364
@<TRIPOS>BOND
     1    1    6 ar
     2    1    2 ar
     3    1   21 1
     4    2    3 ar
     5    2   22 1
     6    3    4 ar
     7    3   23 1
     8    4   12 1
     9    4    5 ar
    10    5    6 ar
    11    5    7 1
    12    6   24 1
    13    7    8 2
    14    7   10 1
    15    8    9 1
    16    9   25 1
    17   10   11 2
    18   10   12 am
    19   12   13 1
    20   13   14 1
    21   13   26 1
    22   13   27 1
    23   14   19 ar
    24   14   15 ar
    25   15   16 ar
    26   15   28 1
    27   16   17 ar
    28   16   29 1
    29   17   18 ar
    30   17   20 1
    31   18   19 ar
    32   18   30 1
    33   19   31 1
@<TRIPOS>MOLECULE
ZINC08577574
   31    33     0     0     0
SMALL
USER_CHARGES

@<TRIPOS>ATOM
      1 C1         -0.0166    1.3763    0.0096 C.ar      1 <0>        -0.1136
      2 C2          1.1714    2.0883    0.0021 C.ar      1 <0>        -0.1009
      3 C3          2.3846    1.4305   -0.0130 C.ar      1 <0>        -0.1067
      4 C4          2.4221    0.0414   -0.0208 C.ar      1 <0>         0.0807
      5 C5          1.2183   -0.6760   -0.0131 C.ar      1 <0>        -0.0306
      6 C6          0.0021   -0.0041    0.0020 C.ar      1 <0>        -0.0778
      7 C7          1.5958   -2.1079   -0.0239 C.2       1 <0>        -0.1878
      8 C8          3.0132   -2.1309   -0.0372 C.2       1 <0>         0.3978
      9 N1          3.4705   -0.8683   -0.0352 N.pl3     1 <0>        -0.4458
     10 C9          4.8883   -0.4997   -0.0466 C.3       1 <0>         0.1347
     11 C10         5.3878   -0.3804    1.3703 C.ar      1 <0>        -0.1244
     12 C11         5.3104    0.8317    2.0305 C.ar      1 <0>        -0.0830
     13 C12         5.7683    0.9416    3.3299 C.ar      1 <0>        -0.1114
     14 C13         6.3042   -0.1617    3.9699 C.ar      1 <0>        -0.0203
     15 C14         6.3814   -1.3745    3.3087 C.ar      1 <0>        -0.1100
     16 C15         5.9180   -1.4846    2.0112 C.ar      1 <0>        -0.0788
     17 Cl1         6.8801   -0.0242    5.6018 Cl        1 <0>        -0.0590
     18 O1          3.7765   -3.2383   -0.0500 O.3       1 <0>        -0.4404
     19 N2          0.7836   -3.1446   -0.0209 N.2       1 <0>        -0.2820
     20 O2          1.2383   -4.2745   -0.0309 O.2       1 <0>         0.0359
     21 H1         -0.9598    1.9021    0.0259 H         1 <0>         0.1347
     22 H2          1.1482    3.1681    0.0077 H         1 <0>         0.1362
     23 H3          3.3050    1.9954   -0.0191 H         1 <0>         0.1271
     24 H4         -0.9243   -0.5592    0.0082 H         1 <0>         0.1328
     25 H5          5.4591   -1.2670   -0.5696 H         1 <0>         0.1105
     26 H6          5.0113    0.4557   -0.5567 H         1 <0>         0.1116
     27 H7          4.8924    1.6930    1.5306 H         1 <0>         0.1328
     28 H8          5.7081    1.8887    3.8454 H         1 <0>         0.1392
     29 H9          6.7999   -2.2360    3.8077 H         1 <0>         0.1402
     30 H10         5.9738   -2.4325    1.4965 H         1 <0>         0.1383
     31 H11         3.9918   -3.5575   -0.9371 H         1 <0>         0.4199
@<TRIPOS>BOND
     1    1    6 ar
     2    1    2 ar
     3    1   21 1
     4    2    3 ar
     5    2   22 1
     6    3    4 ar
     7    3   23 1
     8    4    9 1
     9    4    5 ar
    10    5    6 ar
    11    5    7 1
    12    6   24 1
    13    7    8 2
    14    7   19 1
    15    8    9 1
    16    8   18 1
    17    9   10 1
    18   10   11 1
    19   10   25 1
    20   10   26 1
    21   11   16 ar
    22   11   12 ar
    23   12   13 ar
    24   12   27 1
    25   13   14 ar
    26   13   28 1
    27   14   15 ar
    28   14   17 1
    29   15   16 ar
    30   15   29 1
    31   16   30 1
    32   18   31 1
    33   19   20 2
@<TRIPOS>MOLECULE
ZINC03820040
   62    66     0     0     0
SMALL
USER_CHARGES
N-[4-[4-(4-methylpiperazin-1-yl)-6-[(5-methyl-2H-pyrazol-3-yl)amino]pyrimidin-2-yl]sulfanylphenyl]cyclopropanecarboxamide
@<TRIPOS>ATOM
      1 C1          1.8035   -7.6837    0.5070 C.3       1 <0>        -0.0779
      2 C2          2.3685   -6.3674    0.0389 C.2       1 <0>         0.0949
      3 C3          1.9325   -5.1020    0.4407 C.2       1 <0>        -0.2905
      4 C4          2.6904   -4.1743   -0.2066 C.2       1 <0>         0.3252
      5 N1          3.5799   -4.8447   -0.9836 N.pl3     1 <0>        -0.4853
      6 H1          4.2729   -4.4328   -1.5753 H         1 <0>         0.4473
      7 N2          3.3537   -6.2159   -0.8085 N.2       1 <0>        -0.2711
      8 N3          2.5778   -2.7905   -0.0888 N.pl3     1 <0>        -0.6296
      9 C5          1.3376   -2.2123    0.1391 C.ar      1 <0>         0.4706
     10 C6          0.1755   -2.9717    0.0343 C.ar      1 <0>        -0.2983
     11 C7         -1.0466   -2.3490    0.2714 C.ar      1 <0>         0.3791
     12 N4         -1.0643   -1.0564    0.5886 N.ar      1 <0>        -0.5664
     13 C8          0.0620   -0.3646    0.6795 C.ar      1 <0>         0.3511
     14 N5          1.2425   -0.9231    0.4557 N.ar      1 <0>        -0.5606
     15 S1         -0.0125    1.3444    1.1018 S.3       1 <0>         0.1303
     16 C9          1.7078    1.7032    1.2298 C.ar      1 <0>        -0.1638
     17 C10         2.3806    1.4637    2.4214 C.ar      1 <0>        -0.0284
     18 C11         3.7293    1.7409    2.5200 C.ar      1 <0>        -0.1315
     19 C12         4.4114    2.2681    1.4313 C.ar      1 <0>         0.1902
     20 C13         3.7379    2.5125    0.2417 C.ar      1 <0>        -0.1573
     21 C14         2.3903    2.2311    0.1410 C.ar      1 <0>        -0.0288
     22 N6          5.7793    2.5539    1.5333 N.am      1 <0>        -0.6744
     23 C15         6.5739    1.7808    2.2997 C.2       1 <0>         0.5466
     24 O1          6.1269    0.7811    2.8213 O.2       1 <0>        -0.5140
     25 C16         8.0178    2.1584    2.5086 C.3       1 <0>        -0.2022
     26 C17         9.0818    1.2604    1.8742 C.3       1 <0>        -0.1494
     27 C18         8.8679    1.2402    3.3890 C.3       1 <0>        -0.1425
     28 N7         -2.2296   -3.0657    0.1789 N.pl3     1 <0>        -0.4710
     29 C19        -2.3617   -3.6957   -1.1422 C.3       1 <0>         0.0277
     30 C20        -3.6379   -4.5399   -1.1765 C.3       1 <0>         0.0040
     31 C21        -4.6643   -3.0537    0.4349 C.3       1 <0>        -0.0004
     32 C22        -3.3881   -2.2095    0.4692 C.3       1 <0>         0.0347
     33 C23        -6.0501   -4.4431   -0.9842 C.3       1 <0>        -0.0407
     34 H2          2.3381   -8.0122    1.3982 H         1 <0>         0.0831
     35 H3          0.7460   -7.5623    0.7417 H         1 <0>         0.0784
     36 H4          1.9177   -8.4287   -0.2805 H         1 <0>         0.0774
     37 H5          1.1347   -4.8964    1.1389 H         1 <0>         0.1550
     38 H6          3.3667   -2.2314   -0.1662 H         1 <0>         0.4241
     39 H7          0.2211   -4.0192   -0.2246 H         1 <0>         0.1631
     40 H8          1.8494    1.0573    3.2693 H         1 <0>         0.1319
     41 H9          4.2533    1.5509    3.4451 H         1 <0>         0.1405
     42 H10         4.2686    2.9225   -0.6049 H         1 <0>         0.1339
     43 H11         1.8666    2.4209   -0.7843 H         1 <0>         0.1341
     44 H12         6.1543    3.3081    1.0523 H         1 <0>         0.4168
     45 H13         8.2224    3.2282    2.5520 H         1 <0>         0.1306
     46 H14         8.7374    0.3965    1.3057 H         1 <0>         0.0995
     47 H15         9.9866    1.7393    1.5000 H         1 <0>         0.1100
     48 H16         9.6320    1.7059    4.0114 H         1 <0>         0.1092
     49 H17         8.3827    0.3633    3.8175 H         1 <0>         0.1093
     50 H18        -2.4158   -2.9234   -1.9095 H         1 <0>         0.0737
     51 H19        -1.4982   -4.3342   -1.3286 H         1 <0>         0.1318
     52 H20        -3.5722   -5.3290   -0.4274 H         1 <0>         0.1439
     53 H21        -3.7533   -4.9852   -2.1646 H         1 <0>         0.1412
     54 H22        -4.6102   -3.8259    1.2022 H         1 <0>         0.1407
     55 H23        -5.5278   -2.4152    0.6217 H         1 <0>         0.1407
     56 H24        -3.2729   -1.7645    1.4575 H         1 <0>         0.1357
     57 H25        -3.4537   -1.4201   -0.2796 H         1 <0>         0.0793
     58 H26        -6.8948   -3.7714   -0.8313 H         1 <0>         0.1238
     59 H27        -6.1225   -4.8989   -1.9717 H         1 <0>         0.1230
     60 H28        -6.0632   -5.2226   -0.2224 H         1 <0>         0.1251
     61 N8         -4.7966   -3.6630   -0.9051 N.4       1 <0>        -0.4014
     62 H29        -4.8229   -2.9169   -1.6099 H         1 <0>         0.4281
@<TRIPOS>BOND
     1    1    2 1
     2    1   34 1
     3    1   35 1
     4    1   36 1
     5    2    7 2
     6    2    3 1
     7    3    4 2
     8    3   37 1
     9    4    5 1
    10    4    8 1
    11    5    6 1
    12    5    7 1
    13    8    9 1
    14    8   38 1
    15    9   14 ar
    16    9   10 ar
    17   10   11 ar
    18   10   39 1
    19   11   12 ar
    20   11   28 1
    21   12   13 ar
    22   13   14 ar
    23   13   15 1
    24   15   16 1
    25   16   21 ar
    26   16   17 ar
    27   17   18 ar
    28   17   40 1
    29   18   19 ar
    30   18   41 1
    31   19   20 ar
    32   19   22 1
    33   20   21 ar
    34   20   42 1
    35   21   43 1
    36   22   23 am
    37   22   44 1
    38   23   24 2
    39   23   25 1
    40   25   27 1
    41   25   26 1
    42   25   45 1
    43   26   27 1
    44   26   46 1
    45   26   47 1
    46   27   48 1
    47   27   49 1
    48   28   32 1
    49   28   29 1
    50   29   30 1
    51   29   50 1
    52   29   51 1
    53   30   52 1
    54   30   53 1
    55   30   61 1
    56   31   32 1
    57   31   54 1
    58   31   55 1
    59   31   61 1
    60   32   56 1
    61   32   57 1
    62   33   58 1
    63   33   59 1
    64   33   60 1
    65   33   61 1
    66   61   62 1
@<TRIPOS>MOLECULE
ZINC23247639
   69    72     0     0     0
SMALL
USER_CHARGES
1-[4-[(4-ethylpiperazin-1-yl)methyl]-3-(trifluoromethyl)phenyl]-3-[4-(6-methylaminopyrimidin-4-yl)oxyphenyl]urea
@<TRIPOS>ATOM
      1 C1          8.9417    3.3719    8.2172 C.3       1 <0>        -0.1901
      2 C2         10.1498    2.9102    7.3997 C.3       1 <0>        -0.0070
      3 N1          9.9972    3.3533    6.0075 N.4       1 <0>        -0.4011
      4 C3         11.2367    3.1387    5.2477 C.3       1 <0>         0.0016
      5 C4         11.0629    3.6845    3.8284 C.3       1 <0>         0.0271
      6 N2          9.9288    3.0094    3.1822 N.3       1 <0>        -0.5300
      7 C5          8.6893    3.2240    3.9420 C.3       1 <0>         0.0232
      8 C6          8.8631    2.6781    5.3612 C.3       1 <0>        -0.0016
      9 C7          9.7762    3.4524    1.7899 C.3       1 <0>         0.0786
     10 C8          8.7879    2.5601    1.0842 C.ar      1 <0>        -0.0666
     11 C9          7.5022    3.0092    0.8434 C.ar      1 <0>        -0.0932
     12 C10         6.5958    2.1959    0.1923 C.ar      1 <0>        -0.0888
     13 C11         6.9731    0.9214   -0.2106 C.ar      1 <0>         0.1880
     14 C12         8.2646    0.4735    0.0326 C.ar      1 <0>        -0.1043
     15 C13         9.1683    1.2940    0.6793 C.ar      1 <0>        -0.1369
     16 C14        10.5702    0.8086    0.9441 C.3       1 <0>         0.5111
     17 F1         10.7250   -0.4786    0.4184 F         1 <0>        -0.1776
     18 F2         11.4860    1.6739    0.3362 F         1 <0>        -0.1774
     19 F3         10.8008    0.7797    2.3237 F         1 <0>        -0.1628
     20 N3          6.0552    0.0926   -0.8655 N.am      1 <0>        -0.6979
     21 C15         4.7513    0.1311   -0.5266 C.2       1 <0>         0.7117
     22 O1          4.3858    0.8194    0.4067 O.2       1 <0>        -0.5623
     23 N4          3.8526   -0.5934   -1.2222 N.am      1 <0>        -0.6900
     24 C16         2.4863   -0.4790   -0.9335 C.ar      1 <0>         0.1635
     25 C17         1.5516   -0.5518   -1.9576 C.ar      1 <0>        -0.1265
     26 C18         0.2052   -0.4394   -1.6724 C.ar      1 <0>        -0.0923
     27 C19        -0.2137   -0.2543   -0.3628 C.ar      1 <0>         0.0841
     28 C20         0.7198   -0.1815    0.6609 C.ar      1 <0>        -0.0957
     29 C21         2.0665   -0.2932    0.3769 C.ar      1 <0>        -0.1058
     30 O2         -1.5393   -0.1385   -0.0833 O.3       1 <0>        -0.2424
     31 C22        -2.3129   -1.2454   -0.1983 C.ar      1 <0>         0.3836
     32 C23        -3.6894   -1.1637   -0.0277 C.ar      1 <0>        -0.3134
     33 C24        -4.4409   -2.3284   -0.1601 C.ar      1 <0>         0.4631
     34 N5         -3.8165   -3.4721   -0.4341 N.ar      1 <0>        -0.5936
     35 C25        -2.5082   -3.5081   -0.5840 C.ar      1 <0>         0.3760
     36 N6         -1.7644   -2.4263   -0.4707 N.ar      1 <0>        -0.6039
     37 N7         -5.8178   -2.2988   -0.0034 N.pl3     1 <0>        -0.7218
     38 C26        -6.4937   -1.0344    0.2979 C.3       1 <0>         0.0891
     39 H1          9.0560    3.0401    9.2597 H         1 <0>         0.1066
     40 H2          8.0243    2.9380    7.7928 H         1 <0>         0.0798
     41 H3          8.8763    4.4695    8.1868 H         1 <0>         0.0803
     42 H4         11.0672    3.3441    7.8241 H         1 <0>         0.1306
     43 H5         10.2153    1.8126    7.4301 H         1 <0>         0.1269
     44 H6         12.0665    3.6630    5.7442 H         1 <0>         0.1361
     45 H7         11.4577    2.0621    5.2031 H         1 <0>         0.1357
     46 H8         10.8699    4.7665    3.8728 H         1 <0>         0.0625
     47 H9         11.9796    3.4990    3.2494 H         1 <0>         0.1239
     48 H10         8.4684    4.3007    3.9867 H         1 <0>         0.0621
     49 H11         7.8594    2.6998    3.4455 H         1 <0>         0.1239
     50 H12         9.0569    1.5962    5.3178 H         1 <0>         0.1351
     51 H13         7.9470    2.8635    5.9412 H         1 <0>         0.1359
     52 H14         9.4106    4.4897    1.7732 H         1 <0>         0.0663
     53 H15        10.7489    3.3982    1.2791 H         1 <0>         0.1073
     54 H16         7.2082    3.9988    1.1607 H         1 <0>         0.1358
     55 H17         5.5933    2.5489    0.0003 H         1 <0>         0.1466
     56 H18         8.5625   -0.5152   -0.2838 H         1 <0>         0.1447
     57 H19         6.3979   -0.5903   -1.6569 H         1 <0>         0.4387
     58 H20         4.1917   -1.2745   -2.0166 H         1 <0>         0.4355
     59 H21         1.8775   -0.6959   -2.9771 H         1 <0>         0.1334
     60 H22        -0.5220   -0.4960   -2.4689 H         1 <0>         0.1303
     61 H23         0.3932   -0.0371    1.6801 H         1 <0>         0.1327
     62 H24         2.7931   -0.2369    1.1740 H         1 <0>         0.1442
     63 H25        -4.1646   -0.2205    0.1982 H         1 <0>         0.1466
     64 H26        -2.0315   -4.4515   -0.8058 H         1 <0>         0.2000
     65 H27        -6.4030   -3.2246   -0.1053 H         1 <0>         0.4376
     66 H28        -7.5762   -1.2091    0.3856 H         1 <0>         0.0864
     67 H29        -6.3028   -0.3146   -0.5117 H         1 <0>         0.0603
     68 H30        -6.1096   -0.6302    1.2461 H         1 <0>         0.0599
     69 H31         9.7882    4.4332    6.0188 H         1 <0>         0.4364
@<TRIPOS>BOND
     1    1    2 1
     2    1   39 1
     3    1   40 1
     4    1   41 1
     5    2    3 1
     6    2   42 1
     7    2   43 1
     8    3    8 1
     9    3    4 1
    10    3   69 1
    11    4    5 1
    12    4   44 1
    13    4   45 1
    14    5    6 1
    15    5   46 1
    16    5   47 1
    17    6    7 1
    18    6    9 1
    19    7    8 1
    20    7   48 1
    21    7   49 1
    22    8   50 1
    23    8   51 1
    24    9   10 1
    25    9   52 1
    26    9   53 1
    27   10   15 ar
    28   10   11 ar
    29   11   12 ar
    30   11   54 1
    31   12   13 ar
    32   12   55 1
    33   13   14 ar
    34   13   20 1
    35   14   15 ar
    36   14   56 1
    37   15   16 1
    38   16   17 1
    39   16   18 1
    40   16   19 1
    41   20   21 am
    42   20   57 1
    43   21   22 2
    44   21   23 am
    45   23   24 1
    46   23   58 1
    47   24   29 ar
    48   24   25 ar
    49   25   26 ar
    50   25   59 1
    51   26   27 ar
    52   26   60 1
    53   27   28 ar
    54   27   30 1
    55   28   29 ar
    56   28   61 1
    57   29   62 1
    58   30   31 1
    59   31   36 ar
    60   31   32 ar
    61   32   33 ar
    62   32   63 1
    63   33   34 ar
    64   33   37 1
    65   34   35 ar
    66   35   36 ar
    67   35   64 1
    68   37   38 1
    69   37   65 1
    70   38   66 1
    71   38   67 1
    72   38   68 1
@<TRIPOS>MOLECULE
ZINC23247639
   69    72     0     0     0
SMALL
USER_CHARGES
1-[4-[(4-ethylpiperazin-1-yl)methyl]-3-(trifluoromethyl)phenyl]-3-[4-(6-methylaminopyrimidin-4-yl)oxyphenyl]urea
@<TRIPOS>ATOM
      1 C1          8.9417    3.3719    8.2172 C.3       1 <0>        -0.1569
      2 C2         10.1498    2.9102    7.3997 C.3       1 <0>         0.0486
      3 N1          9.9972    3.3533    6.0075 N.3       1 <0>        -0.5379
      4 C3         11.2367    3.1387    5.2477 C.3       1 <0>         0.0250
      5 C4         11.0629    3.6845    3.8284 C.3       1 <0>         0.0004
      6 N2          9.9288    3.0094    3.1822 N.4       1 <0>        -0.4202
      7 C5          8.6893    3.2240    3.9420 C.3       1 <0>        -0.0009
      8 C6          8.8631    2.6781    5.3612 C.3       1 <0>         0.0222
      9 C7          9.7762    3.4524    1.7899 C.3       1 <0>         0.0266
     10 C8          8.7879    2.5601    1.0842 C.ar      1 <0>        -0.1272
     11 C9          7.5022    3.0092    0.8434 C.ar      1 <0>        -0.0630
     12 C10         6.5958    2.1959    0.1923 C.ar      1 <0>        -0.0846
     13 C11         6.9731    0.9214   -0.2106 C.ar      1 <0>         0.2154
     14 C12         8.2646    0.4735    0.0326 C.ar      1 <0>        -0.0955
     15 C13         9.1683    1.2940    0.6793 C.ar      1 <0>        -0.1507
     16 C14        10.5702    0.8086    0.9441 C.3       1 <0>         0.5109
     17 F1         10.7250   -0.4786    0.4184 F         1 <0>        -0.1491
     18 F2         11.4860    1.6739    0.3362 F         1 <0>        -0.1584
     19 F3         10.8008    0.7797    2.3237 F         1 <0>        -0.1724
     20 N3          6.0552    0.0926   -0.8655 N.am      1 <0>        -0.6988
     21 C15         4.7513    0.1311   -0.5266 C.2       1 <0>         0.7114
     22 O1          4.3858    0.8194    0.4067 O.2       1 <0>        -0.5584
     23 N4          3.8526   -0.5934   -1.2222 N.am      1 <0>        -0.6858
     24 C16         2.4863   -0.4790   -0.9335 C.ar      1 <0>         0.1577
     25 C17         1.5516   -0.5518   -1.9576 C.ar      1 <0>        -0.1240
     26 C18         0.2052   -0.4394   -1.6724 C.ar      1 <0>        -0.0926
     27 C19        -0.2137   -0.2543   -0.3628 C.ar      1 <0>         0.0883
     28 C20         0.7198   -0.1815    0.6609 C.ar      1 <0>        -0.0957
     29 C21         2.0665   -0.2932    0.3769 C.ar      1 <0>        -0.1046
     30 O2         -1.5393   -0.1385   -0.0833 O.3       1 <0>        -0.2426
     31 C22        -2.3129   -1.2454   -0.1983 C.ar      1 <0>         0.3832
     32 C23        -3.6894   -1.1637   -0.0277 C.ar      1 <0>        -0.3126
     33 C24        -4.4409   -2.3284   -0.1601 C.ar      1 <0>         0.4635
     34 N5         -3.8165   -3.4721   -0.4341 N.ar      1 <0>        -0.5931
     35 C25        -2.5082   -3.5081   -0.5840 C.ar      1 <0>         0.3762
     36 N6         -1.7644   -2.4263   -0.4707 N.ar      1 <0>        -0.6049
     37 N7         -5.8178   -2.2988   -0.0034 N.pl3     1 <0>        -0.7212
     38 C26        -6.4937   -1.0344    0.2979 C.3       1 <0>         0.0887
     39 H1          9.0560    3.0401    9.2597 H         1 <0>         0.0714
     40 H2          8.0243    2.9380    7.7928 H         1 <0>         0.0562
     41 H3          8.8763    4.4695    8.1868 H         1 <0>         0.0696
     42 H4         11.0672    3.3441    7.8241 H         1 <0>         0.0895
     43 H5         10.2153    1.8126    7.4301 H         1 <0>         0.0455
     44 H6         12.0665    3.6630    5.7442 H         1 <0>         0.1253
     45 H7         11.4577    2.0621    5.2031 H         1 <0>         0.0582
     46 H8         10.8699    4.7665    3.8728 H         1 <0>         0.1369
     47 H9         11.9796    3.4990    3.2494 H         1 <0>         0.1329
     48 H10         8.4684    4.3007    3.9867 H         1 <0>         0.1355
     49 H11         7.8594    2.6998    3.4455 H         1 <0>         0.1312
     50 H12         9.0569    1.5962    5.3178 H         1 <0>         0.0572
     51 H13         7.9470    2.8635    5.9412 H         1 <0>         0.1266
     52 H14         9.4106    4.4897    1.7732 H         1 <0>         0.1472
     53 H15        10.7489    3.3982    1.2791 H         1 <0>         0.1420
     54 H16         7.2082    3.9988    1.1607 H         1 <0>         0.1512
     55 H17         5.5933    2.5489    0.0003 H         1 <0>         0.1583
     56 H18         8.5625   -0.5152   -0.2838 H         1 <0>         0.1556
     57 H19         6.3979   -0.5903   -1.6569 H         1 <0>         0.4440
     58 H20         4.1917   -1.2745   -2.0166 H         1 <0>         0.4371
     59 H21         1.8775   -0.6959   -2.9771 H         1 <0>         0.1338
     60 H22        -0.5220   -0.4960   -2.4689 H         1 <0>         0.1313
     61 H23         0.3932   -0.0371    1.6801 H         1 <0>         0.1341
     62 H24         2.7931   -0.2369    1.1740 H         1 <0>         0.1440
     63 H25        -4.1646   -0.2205    0.1982 H         1 <0>         0.1470
     64 H26        -2.0315   -4.4515   -0.8058 H         1 <0>         0.2001
     65 H27        -6.4030   -3.2246   -0.1053 H         1 <0>         0.4380
     66 H28        -7.5762   -1.2091    0.3856 H         1 <0>         0.0868
     67 H29        -6.3028   -0.3146   -0.5117 H         1 <0>         0.0604
     68 H30        -6.1096   -0.6302    1.2461 H         1 <0>         0.0603
     69 H31        10.1379    1.9295    3.1711 H         1 <0>         0.4253
@<TRIPOS>BOND
     1    1    2 1
     2    1   39 1
     3    1   40 1
     4    1   41 1
     5    2    3 1
     6    2   42 1
     7    2   43 1
     8    3    8 1
     9    3    4 1
    10    4    5 1
    11    4   44 1
    12    4   45 1
    13    5    6 1
    14    5   46 1
    15    5   47 1
    16    6    7 1
    17    6    9 1
    18    6   69 1
    19    7    8 1
    20    7   48 1
    21    7   49 1
    22    8   50 1
    23    8   51 1
    24    9   10 1
    25    9   52 1
    26    9   53 1
    27   10   15 ar
    28   10   11 ar
    29   11   12 ar
    30   11   54 1
    31   12   13 ar
    32   12   55 1
    33   13   14 ar
    34   13   20 1
    35   14   15 ar
    36   14   56 1
    37   15   16 1
    38   16   17 1
    39   16   18 1
    40   16   19 1
    41   20   21 am
    42   20   57 1
    43   21   22 2
    44   21   23 am
    45   23   24 1
    46   23   58 1
    47   24   29 ar
    48   24   25 ar
    49   25   26 ar
    50   25   59 1
    51   26   27 ar
    52   26   60 1
    53   27   28 ar
    54   27   30 1
    55   28   29 ar
    56   28   61 1
    57   29   62 1
    58   30   31 1
    59   31   36 ar
    60   31   32 ar
    61   32   33 ar
    62   32   63 1
    63   33   34 ar
    64   33   37 1
    65   34   35 ar
    66   35   36 ar
    67   35   64 1
    68   37   38 1
    69   37   65 1
    70   38   66 1
    71   38   67 1
    72   38   68 1
@<TRIPOS>MOLECULE
ZINC23247639
   68    71     0     0     0
SMALL
USER_CHARGES
1-[4-[(4-ethylpiperazin-1-yl)methyl]-3-(trifluoromethyl)phenyl]-3-[4-(6-methylaminopyrimidin-4-yl)oxyphenyl]urea
@<TRIPOS>ATOM
      1 C1          8.9417    3.3719    8.2172 C.3       1 <0>        -0.1510
      2 C2         10.1498    2.9102    7.3997 C.3       1 <0>         0.0499
      3 N1          9.9972    3.3533    6.0075 N.3       1 <0>        -0.5402
      4 C3         11.2367    3.1387    5.2477 C.3       1 <0>         0.0569
      5 C4         11.0629    3.6845    3.8284 C.3       1 <0>         0.0590
      6 N2          9.9288    3.0094    3.1822 N.3       1 <0>        -0.5268
      7 C5          8.6893    3.2240    3.9420 C.3       1 <0>         0.0561
      8 C6          8.8631    2.6781    5.3612 C.3       1 <0>         0.0550
      9 C7          9.7762    3.4524    1.7899 C.3       1 <0>         0.0729
     10 C8          8.7879    2.5601    1.0842 C.ar      1 <0>        -0.0447
     11 C9          7.5022    3.0092    0.8434 C.ar      1 <0>        -0.0942
     12 C10         6.5958    2.1959    0.1923 C.ar      1 <0>        -0.0884
     13 C11         6.9731    0.9214   -0.2106 C.ar      1 <0>         0.1720
     14 C12         8.2646    0.4735    0.0326 C.ar      1 <0>        -0.1038
     15 C13         9.1683    1.2940    0.6793 C.ar      1 <0>        -0.1404
     16 C14        10.5702    0.8086    0.9441 C.3       1 <0>         0.5095
     17 F1         10.7250   -0.4786    0.4184 F         1 <0>        -0.1841
     18 F2         11.4860    1.6739    0.3362 F         1 <0>        -0.1795
     19 F3         10.8008    0.7797    2.3237 F         1 <0>        -0.1519
     20 N3          6.0552    0.0926   -0.8655 N.am      1 <0>        -0.6948
     21 C15         4.7513    0.1311   -0.5266 C.2       1 <0>         0.7096
     22 O1          4.3858    0.8194    0.4067 O.2       1 <0>        -0.5587
     23 N4          3.8526   -0.5934   -1.2222 N.am      1 <0>        -0.6930
     24 C16         2.4863   -0.4790   -0.9335 C.ar      1 <0>         0.1697
     25 C17         1.5516   -0.5518   -1.9576 C.ar      1 <0>        -0.1297
     26 C18         0.2052   -0.4394   -1.6724 C.ar      1 <0>        -0.0930
     27 C19        -0.2137   -0.2543   -0.3628 C.ar      1 <0>         0.0783
     28 C20         0.7198   -0.1815    0.6609 C.ar      1 <0>        -0.0936
     29 C21         2.0665   -0.2932    0.3769 C.ar      1 <0>        -0.1059
     30 O2         -1.5393   -0.1385   -0.0833 O.3       1 <0>        -0.2412
     31 C22        -2.3129   -1.2454   -0.1983 C.ar      1 <0>         0.3851
     32 C23        -3.6894   -1.1637   -0.0277 C.ar      1 <0>        -0.3141
     33 C24        -4.4409   -2.3284   -0.1601 C.ar      1 <0>         0.4620
     34 N5         -3.8165   -3.4721   -0.4341 N.ar      1 <0>        -0.5954
     35 C25        -2.5082   -3.5081   -0.5840 C.ar      1 <0>         0.3753
     36 N6         -1.7644   -2.4263   -0.4707 N.ar      1 <0>        -0.6017
     37 N7         -5.8178   -2.2988   -0.0034 N.pl3     1 <0>        -0.7231
     38 C26        -6.4937   -1.0344    0.2979 C.3       1 <0>         0.0898
     39 H1          9.0560    3.0401    9.2597 H         1 <0>         0.0595
     40 H2          8.0243    2.9380    7.7928 H         1 <0>         0.0547
     41 H3          8.8763    4.4695    8.1868 H         1 <0>         0.0631
     42 H4         11.0672    3.3441    7.8241 H         1 <0>         0.0746
     43 H5         10.2153    1.8126    7.4301 H         1 <0>         0.0335
     44 H6         12.0665    3.6630    5.7442 H         1 <0>         0.0800
     45 H7         11.4577    2.0621    5.2031 H         1 <0>         0.0441
     46 H8         10.8699    4.7665    3.8728 H         1 <0>         0.0445
     47 H9         11.9796    3.4990    3.2494 H         1 <0>         0.0809
     48 H10         8.4684    4.3007    3.9867 H         1 <0>         0.0435
     49 H11         7.8594    2.6998    3.4455 H         1 <0>         0.0808
     50 H12         9.0569    1.5962    5.3178 H         1 <0>         0.0425
     51 H13         7.9470    2.8635    5.9412 H         1 <0>         0.0819
     52 H14         9.4106    4.4897    1.7732 H         1 <0>         0.0550
     53 H15        10.7489    3.3982    1.2791 H         1 <0>         0.0962
     54 H16         7.2082    3.9988    1.1607 H         1 <0>         0.1355
     55 H17         5.5933    2.5489    0.0003 H         1 <0>         0.1427
     56 H18         8.5625   -0.5152   -0.2838 H         1 <0>         0.1409
     57 H19         6.3979   -0.5903   -1.6569 H         1 <0>         0.4343
     58 H20         4.1917   -1.2745   -2.0166 H         1 <0>         0.4332
     59 H21         1.8775   -0.6959   -2.9771 H         1 <0>         0.1323
     60 H22        -0.5220   -0.4960   -2.4689 H         1 <0>         0.1282
     61 H23         0.3932   -0.0371    1.6801 H         1 <0>         0.1328
     62 H24         2.7931   -0.2369    1.1740 H         1 <0>         0.1466
     63 H25        -4.1646   -0.2205    0.1982 H         1 <0>         0.1463
     64 H26        -2.0315   -4.4515   -0.8058 H         1 <0>         0.1996
     65 H27        -6.4030   -3.2246   -0.1053 H         1 <0>         0.4362
     66 H28        -7.5762   -1.2091    0.3856 H         1 <0>         0.0851
     67 H29        -6.3028   -0.3146   -0.5117 H         1 <0>         0.0598
     68 H30        -6.1096   -0.6302    1.2461 H         1 <0>         0.0599
@<TRIPOS>BOND
     1    1    2 1
     2    1   39 1
     3    1   40 1
     4    1   41 1
     5    2    3 1
     6    2   42 1
     7    2   43 1
     8    3    8 1
     9    3    4 1
    10    4    5 1
    11    4   44 1
    12    4   45 1
    13    5    6 1
    14    5   46 1
    15    5   47 1
    16    6    7 1
    17    6    9 1
    18    7    8 1
    19    7   48 1
    20    7   49 1
    21    8   50 1
    22    8   51 1
    23    9   10 1
    24    9   52 1
    25    9   53 1
    26   10   15 ar
    27   10   11 ar
    28   11   12 ar
    29   11   54 1
    30   12   13 ar
    31   12   55 1
    32   13   14 ar
    33   13   20 1
    34   14   15 ar
    35   14   56 1
    36   15   16 1
    37   16   17 1
    38   16   18 1
    39   16   19 1
    40   20   21 am
    41   20   57 1
    42   21   22 2
    43   21   23 am
    44   23   24 1
    45   23   58 1
    46   24   29 ar
    47   24   25 ar
    48   25   26 ar
    49   25   59 1
    50   26   27 ar
    51   26   60 1
    52   27   28 ar
    53   27   30 1
    54   28   29 ar
    55   28   61 1
    56   29   62 1
    57   30   31 1
    58   31   36 ar
    59   31   32 ar
    60   32   33 ar
    61   32   63 1
    62   33   34 ar
    63   33   37 1
    64   34   35 ar
    65   35   36 ar
    66   35   64 1
    67   37   38 1
    68   37   65 1
    69   38   66 1
    70   38   67 1
    71   38   68 1
@<TRIPOS>MOLECULE
ZINC35880991
   54    57     0     0     0
SMALL
USER_CHARGES

@<TRIPOS>ATOM
      1 C1          0.2245    1.5009   -0.0088 C.3       1 <0>        -0.1024
      2 C2          0.1797   -0.0055   -0.0120 C.ar      1 <0>        -0.2351
      3 C3         -0.0442   -0.7041   -1.1839 C.ar      1 <0>         0.1907
      4 N1         -0.0778   -2.0274   -1.1532 N.ar      1 <0>        -0.5599
      5 C4          0.0998   -2.6883   -0.0182 C.ar      1 <0>         0.5586
      6 N2          0.3168   -2.0593    1.1262 N.ar      1 <0>        -0.5484
      7 C5          0.3693   -0.7294    1.1692 C.ar      1 <0>         0.3007
      8 C6          0.6187   -0.0273    2.4500 C.2       1 <0>        -0.1552
      9 C7          0.1779   -0.4333    3.7261 C.2       1 <0>        -0.0508
     10 C8          0.6269    0.4961    4.6199 C.2       1 <0>        -0.0603
     11 N3          1.3283    1.4565    3.9260 N.pl3     1 <0>        -0.5287
     12 H1          1.7561    2.2339    4.3179 H         1 <0>         0.4212
     13 C9          1.3297    1.1409    2.6170 C.2       1 <0>         0.0725
     14 C10         0.4005    0.4753    6.0697 C.2       1 <0>         0.5929
     15 O1         -0.2387   -0.4297    6.5728 O.2       1 <0>        -0.5224
     16 N4          0.9007    1.4585    6.8441 N.am      1 <0>        -0.7196
     17 C11         0.6747    1.4377    8.2914 C.3       1 <0>         0.1936
     18 H2          0.6791    0.4066    8.6450 H         1 <0>         0.1151
     19 C12        -0.6784    2.0789    8.6056 C.3       1 <0>         0.0671
     20 O2         -0.6446    3.4620    8.2481 O.3       1 <0>        -0.5679
     21 C13         1.7691    2.2101    8.9818 C.ar      1 <0>        -0.0800
     22 C14         2.2339    3.3908    8.4327 C.ar      1 <0>        -0.0878
     23 C15         3.2376    4.0999    9.0653 C.ar      1 <0>        -0.1063
     24 C16         3.7776    3.6287   10.2474 C.ar      1 <0>        -0.1060
     25 C17         3.3130    2.4475   10.7973 C.ar      1 <0>        -0.0330
     26 C18         2.3039    1.7412   10.1666 C.ar      1 <0>        -0.0995
     27 Cl1         3.9906    1.8551   12.2818 Cl        1 <0>        -0.0646
     28 N5          0.0566   -4.0726   -0.0296 N.pl3     1 <0>        -0.6343
     29 C19        -0.0458   -4.7598   -1.2451 C.ar      1 <0>         0.1751
     30 C20         0.5331   -4.2337   -2.3922 C.ar      1 <0>        -0.0790
     31 C21         0.4313   -4.9133   -3.5903 C.ar      1 <0>        -0.1244
     32 C22        -0.2479   -6.1187   -3.6487 C.ar      1 <0>         0.0911
     33 C23        -0.8262   -6.6460   -2.5066 C.ar      1 <0>        -0.1233
     34 C24        -0.7221   -5.9722   -1.3042 C.ar      1 <0>        -0.0461
     35 Cl2        -1.4417   -6.6366    0.1292 Cl        1 <0>        -0.0497
     36 F1         -0.3467   -6.7811   -4.8221 F         1 <0>        -0.1329
     37 H3          1.2465    1.8343   -0.1885 H         1 <0>         0.0707
     38 H4         -0.4266    1.8854   -0.7938 H         1 <0>         0.0708
     39 H5         -0.1141    1.8724    0.9584 H         1 <0>         0.0741
     40 H6         -0.1905   -0.1760   -2.1146 H         1 <0>         0.1720
     41 H7         -0.4050   -1.3135    3.9537 H         1 <0>         0.1555
     42 H8          1.8052    1.7087    1.8310 H         1 <0>         0.1848
     43 H9          1.4103    2.1799    6.4431 H         1 <0>         0.3965
     44 H10        -1.4599    1.5755    8.0364 H         1 <0>         0.0600
     45 H11        -0.8867    1.9840    9.6713 H         1 <0>         0.0601
     46 H12        -1.4713    3.9331    8.4202 H         1 <0>         0.3826
     47 H13         1.8129    3.7590    7.5088 H         1 <0>         0.1283
     48 H14         3.6003    5.0221    8.6359 H         1 <0>         0.1343
     49 H15         4.5624    4.1824   10.7413 H         1 <0>         0.1350
     50 H16         1.9377    0.8212   10.5978 H         1 <0>         0.1358
     51 H17         0.0974   -4.5661    0.8045 H         1 <0>         0.4273
     52 H18         1.0624   -3.2933   -2.3478 H         1 <0>         0.1555
     53 H19         0.8816   -4.5041   -4.4826 H         1 <0>         0.1456
     54 H20        -1.3555   -7.5862   -2.5544 H         1 <0>         0.1501
@<TRIPOS>BOND
     1    1    2 1
     2    1   37 1
     3    1   38 1
     4    1   39 1
     5    2    7 ar
     6    2    3 ar
     7    3    4 ar
     8    3   40 1
     9    4    5 ar
    10    5    6 ar
    11    5   28 1
    12    6    7 ar
    13    7    8 1
    14    8   13 2
    15    8    9 1
    16    9   10 2
    17    9   41 1
    18   10   11 1
    19   10   14 1
    20   11   12 1
    21   11   13 1
    22   13   42 1
    23   14   15 2
    24   14   16 am
    25   16   17 1
    26   16   43 1
    27   17   18 1
    28   17   19 1
    29   17   21 1
    30   19   20 1
    31   19   44 1
    32   19   45 1
    33   20   46 1
    34   21   26 ar
    35   21   22 ar
    36   22   23 ar
    37   22   47 1
    38   23   24 ar
    39   23   48 1
    40   24   25 ar
    41   24   49 1
    42   25   26 ar
    43   25   27 1
    44   26   50 1
    45   28   29 1
    46   28   51 1
    47   29   34 ar
    48   29   30 ar
    49   30   31 ar
    50   30   52 1
    51   31   32 ar
    52   31   53 1
    53   32   33 ar
    54   32   36 1
    55   33   34 ar
    56   33   54 1
    57   34   35 1
@<TRIPOS>MOLECULE
ZINC44460355
   64    69     0     0     0
SMALL
USER_CHARGES

@<TRIPOS>ATOM
      1 C1          1.0707   -0.4518   -0.6759 C.ar      1 <0>        -0.0879
      2 C2          2.2553    0.2565   -0.6751 C.ar      1 <0>        -0.1143
      3 C3          2.3712    1.4151    0.0815 C.ar      1 <0>         0.1381
      4 C4          1.2952    1.8615    0.8375 C.ar      1 <0>        -0.0884
      5 C5          0.1103    1.1536    0.8370 C.ar      1 <0>        -0.1252
      6 C6         -0.0059   -0.0053    0.0798 C.ar      1 <0>         0.1634
      7 N1         -1.2071   -0.7228    0.0788 N.pl3     1 <0>        -0.6363
      8 C7         -1.1897   -2.1022   -0.0470 C.ar      1 <0>         0.5630
      9 N2         -0.0253   -2.7353   -0.0545 N.ar      1 <0>        -0.5554
     10 C8          0.0333   -4.0520   -0.1727 C.ar      1 <0>         0.1940
     11 C9         -1.1414   -4.7741   -0.2899 C.ar      1 <0>        -0.2635
     12 C10        -2.3536   -4.0795   -0.2788 C.ar      1 <0>         0.2605
     13 N3         -2.3366   -2.7546   -0.1511 N.ar      1 <0>        -0.5539
     14 C11        -3.6399   -4.8077   -0.4019 C.ar      1 <0>         0.0153
     15 C12        -4.8358   -4.1004   -0.5003 C.ar      1 <0>        -0.1596
     16 C13        -6.0358   -4.7861   -0.6157 C.ar      1 <0>         0.2428
     17 C14        -6.0432   -6.1757   -0.6328 C.ar      1 <0>        -0.2206
     18 C15        -4.8551   -6.8784   -0.5346 C.ar      1 <0>         0.1485
     19 C16        -3.6542   -6.2010   -0.4251 C.ar      1 <0>        -0.1837
     20 F1         -4.8678   -8.2293   -0.5513 F         1 <0>        -0.1332
     21 N4         -7.2371   -4.0800   -0.7141 N.pl3     1 <0>        -0.6272
     22 C17        -7.2462   -2.6130   -0.8282 C.3       1 <0>         0.0846
     23 C18        -8.1321   -2.2261   -2.0180 C.3       1 <0>         0.0456
     24 O1         -9.4061   -2.8603   -1.8821 O.3       1 <0>        -0.3776
     25 C19        -9.3540   -4.2888   -1.9030 C.3       1 <0>         0.0454
     26 C20        -8.5305   -4.7818   -0.7130 C.3       1 <0>         0.0829
     27 N5          3.5751    2.1344    0.0826 N.pl3     1 <0>        -0.3263
     28 C21         4.6635    1.8851   -0.6694 C.2       1 <0>         0.2864
     29 N6          5.5751    2.7781   -0.3769 N.2       1 <0>        -0.5628
     30 C22         5.1073    3.6134    0.5559 C.2       1 <0>         0.4846
     31 N7          3.8812    3.2605    0.8640 N.2       1 <0>        -0.3649
     32 N8          5.8060    4.6881    1.1077 N.pl3     1 <0>        -0.5899
     33 C23         5.1927    5.5416    2.1377 C.3       1 <0>         0.1014
     34 C24         6.1679    5.6552    3.3150 C.3       1 <0>         0.0469
     35 O2          7.4474    6.0673    2.8282 O.3       1 <0>        -0.3791
     36 C25         8.0564    5.1409    1.9256 C.3       1 <0>         0.0463
     37 C26         7.1799    4.9975    0.6812 C.3       1 <0>         0.1016
     38 H1          0.9793   -1.3507   -1.2676 H         1 <0>         0.1462
     39 H2          3.0924   -0.0906   -1.2626 H         1 <0>         0.1345
     40 H3          1.3856    2.7624    1.4261 H         1 <0>         0.1411
     41 H4         -0.7263    1.5005    1.4252 H         1 <0>         0.1354
     42 H5         -2.0520   -0.2544    0.1661 H         1 <0>         0.4253
     43 H6          0.9877   -4.5576   -0.1780 H         1 <0>         0.1758
     44 H7         -1.1216   -5.8495   -0.3880 H         1 <0>         0.1518
     45 H8         -4.8287   -3.0205   -0.4865 H         1 <0>         0.1430
     46 H9         -6.9784   -6.7084   -0.7227 H         1 <0>         0.1392
     47 H10        -2.7281   -6.7519   -0.3530 H         1 <0>         0.1407
     48 H11        -7.6481   -2.1762    0.0860 H         1 <0>         0.0755
     49 H12        -6.2313   -2.2512   -0.9932 H         1 <0>         0.0958
     50 H13        -8.2641   -1.1442   -2.0370 H         1 <0>         0.1076
     51 H14        -7.6599   -2.5523   -2.9447 H         1 <0>         0.0570
     52 H15       -10.3651   -4.6909   -1.8393 H         1 <0>         0.1079
     53 H16        -8.8863   -4.6225   -2.8293 H         1 <0>         0.0568
     54 H17        -8.3657   -5.8556   -0.8018 H         1 <0>         0.0942
     55 H18        -9.0639   -4.5670    0.2130 H         1 <0>         0.0759
     56 H19         4.7668    1.0868   -1.3893 H         1 <0>         0.2228
     57 H20         4.9978    6.5317    1.7256 H         1 <0>         0.0743
     58 H21         4.2585    5.0940    2.4768 H         1 <0>         0.0960
     59 H22         5.7949    6.3913    4.0270 H         1 <0>         0.1081
     60 H23         6.2600    4.6865    3.8062 H         1 <0>         0.0556
     61 H24         9.0419    5.5070    1.6380 H         1 <0>         0.1087
     62 H25         8.1553    4.1703    2.4118 H         1 <0>         0.0552
     63 H26         7.5610    4.1899    0.0562 H         1 <0>         0.1016
     64 H27         7.1884    5.9319    0.1200 H         1 <0>         0.0726
@<TRIPOS>BOND
     1    1    6 ar
     2    1    2 ar
     3    1   38 1
     4    2    3 ar
     5    2   39 1
     6    3    4 ar
     7    3   27 1
     8    4    5 ar
     9    4   40 1
    10    5    6 ar
    11    5   41 1
    12    6    7 1
    13    7    8 1
    14    7   42 1
    15    8   13 ar
    16    8    9 ar
    17    9   10 ar
    18   10   11 ar
    19   10   43 1
    20   11   12 ar
    21   11   44 1
    22   12   13 ar
    23   12   14 1
    24   14   19 ar
    25   14   15 ar
    26   15   16 ar
    27   15   45 1
    28   16   17 ar
    29   16   21 1
    30   17   18 ar
    31   17   46 1
    32   18   19 ar
    33   18   20 1
    34   19   47 1
    35   21   26 1
    36   21   22 1
    37   22   23 1
    38   22   48 1
    39   22   49 1
    40   23   24 1
    41   23   50 1
    42   23   51 1
    43   24   25 1
    44   25   26 1
    45   25   52 1
    46   25   53 1
    47   26   54 1
    48   26   55 1
    49   27   31 1
    50   27   28 1
    51   28   29 2
    52   28   56 1
    53   29   30 1
    54   30   31 2
    55   30   32 1
    56   32   37 1
    57   32   33 1
    58   33   34 1
    59   33   57 1
    60   33   58 1
    61   34   35 1
    62   34   59 1
    63   34   60 1
    64   35   36 1
    65   36   37 1
    66   36   61 1
    67   36   62 1
    68   37   63 1
    69   37   64 1
