@<TRIPOS>MOLECULE
ZINC03815700
   43    46     0     0     0
SMALL
USER_CHARGES

@<TRIPOS>ATOM
      1 C1         -0.4417    2.5108    0.1274 C.3       1 <0>        -0.4980
      2 S1         -0.2285    0.7138    0.0013 S.o       1 <0>         1.3317
      3 O1          0.3381    0.2184    1.2066 O.2       1 <0>        -0.8500
      4 C2         -1.8753    0.0872    0.0153 C.ar      1 <0>        -0.4539
      5 C3         -2.4807   -0.2316    1.2179 C.ar      1 <0>        -0.0505
      6 C4         -3.7698   -0.7226    1.2359 C.ar      1 <0>        -0.0905
      7 C5         -4.4635   -0.8973    0.0374 C.ar      1 <0>         0.0183
      8 C6         -3.8471   -0.5733   -1.1722 C.ar      1 <0>        -0.1282
      9 C7         -2.5593   -0.0786   -1.1759 C.ar      1 <0>        -0.0372
     10 C8         -5.8450   -1.4235    0.0492 C.2       1 <0>         0.2539
     11 N1         -6.6187   -1.6414   -1.0552 N.pl3     1 <0>        -0.5494
     12 H1         -6.3641   -1.4808   -1.9773 H         1 <0>         0.4258
     13 C9         -7.8254   -2.1307   -0.6157 C.2       1 <0>         0.0559
     14 C10        -7.7421   -2.1946    0.7659 C.2       1 <0>         0.0600
     15 N2         -6.5217   -1.7612    1.1224 N.2       1 <0>        -0.4460
     16 C11        -8.8052   -2.6624    1.6841 C.ar      1 <0>         0.0397
     17 C12        -9.5683   -3.7960    1.3824 C.ar      1 <0>        -0.1547
     18 C13       -10.5481   -4.1969    2.2660 C.ar      1 <0>         0.1020
     19 N3        -10.7699   -3.5273    3.3814 N.ar      1 <0>        -0.4829
     20 C14       -10.0734   -2.4536    3.7038 C.ar      1 <0>         0.1009
     21 C15        -9.0708   -1.9865    2.8804 C.ar      1 <0>        -0.1469
     22 C16        -8.9814   -2.5126   -1.4503 C.ar      1 <0>        -0.0400
     23 C17       -10.2631   -2.0665   -1.1192 C.ar      1 <0>        -0.0563
     24 C18       -11.3392   -2.4265   -1.9026 C.ar      1 <0>        -0.1471
     25 C19       -11.1511   -3.2299   -3.0163 C.ar      1 <0>         0.1129
     26 C20        -9.8817   -3.6756   -3.3498 C.ar      1 <0>        -0.1491
     27 C21        -8.7972   -3.3169   -2.5775 C.ar      1 <0>        -0.0765
     28 F1        -12.2093   -3.5802   -3.7797 F         1 <0>        -0.1335
     29 H2          0.5355    2.9936    0.1264 H         1 <0>         0.1086
     30 H3         -1.0243    2.8681   -0.7218 H         1 <0>         0.1118
     31 H4         -0.9645    2.7506    1.0533 H         1 <0>         0.0820
     32 H5         -1.9427   -0.0960    2.1446 H         1 <0>         0.1340
     33 H6         -4.2409   -0.9717    2.1752 H         1 <0>         0.1409
     34 H7         -4.3783   -0.7065   -2.1030 H         1 <0>         0.1252
     35 H8         -2.0825    0.1760   -2.1109 H         1 <0>         0.1447
     36 H9         -9.3927   -4.3483    0.4711 H         1 <0>         0.1333
     37 H10       -11.1422   -5.0705    2.0420 H         1 <0>         0.1579
     38 H11       -10.2890   -1.9361    4.6268 H         1 <0>         0.1588
     39 H12        -8.5017   -1.1100    3.1527 H         1 <0>         0.1379
     40 H13       -10.4110   -1.4411   -0.2513 H         1 <0>         0.1357
     41 H14       -12.3306   -2.0822   -1.6477 H         1 <0>         0.1434
     42 H15        -9.7412   -4.3013   -4.2187 H         1 <0>         0.1424
     43 H16        -7.8079   -3.6609   -2.8410 H         1 <0>         0.1331
@<TRIPOS>BOND
     1    1    2 1
     2    1   29 1
     3    1   30 1
     4    1   31 1
     5    2    3 2
     6    2    4 1
     7    4    9 ar
     8    4    5 ar
     9    5    6 ar
    10    5   32 1
    11    6    7 ar
    12    6   33 1
    13    7    8 ar
    14    7   10 1
    15    8    9 ar
    16    8   34 1
    17    9   35 1
    18   10   15 2
    19   10   11 1
    20   11   12 1
    21   11   13 1
    22   13   14 2
    23   13   22 1
    24   14   15 1
    25   14   16 1
    26   16   21 ar
    27   16   17 ar
    28   17   18 ar
    29   17   36 1
    30   18   19 ar
    31   18   37 1
    32   19   20 ar
    33   20   21 ar
    34   20   38 1
    35   21   39 1
    36   22   27 ar
    37   22   23 ar
    38   23   24 ar
    39   23   40 1
    40   24   25 ar
    41   24   41 1
    42   25   26 ar
    43   25   28 1
    44   26   27 ar
    45   26   42 1
    46   27   43 1
@<TRIPOS>MOLECULE
ZINC18274812
   43    46     0     0     0
SMALL
USER_CHARGES

@<TRIPOS>ATOM
      1 C1          0.0458    2.4645   -0.3714 C.3       1 <0>        -0.4977
      2 S1          0.1034    0.6635   -0.1624 S.o       1 <0>         1.3328
      3 O1          0.9995    0.3374    0.8912 O.2       1 <0>        -0.8522
      4 C2          0.9248    0.0922   -1.6127 C.ar      1 <0>        -0.4531
      5 C3          0.1894   -0.2245   -2.7411 C.ar      1 <0>        -0.0385
      6 C4          0.8263   -0.6720   -3.8801 C.ar      1 <0>        -0.0921
      7 C5          2.2157   -0.8050   -3.8925 C.ar      1 <0>         0.0171
      8 C6          2.9515   -0.4838   -2.7508 C.ar      1 <0>        -0.1253
      9 C7          2.3027   -0.0324   -1.6200 C.ar      1 <0>        -0.0497
     10 C8          2.9049   -1.2844   -5.1094 C.2       1 <0>         0.2582
     11 N1          4.2515   -1.4590   -5.2384 N.pl3     1 <0>        -0.5486
     12 H1          4.9216   -1.2936   -4.5568 H         1 <0>         0.4252
     13 C9          4.4814   -1.9147   -6.5171 C.2       1 <0>         0.0337
     14 C10         3.2416   -2.0017   -7.1294 C.2       1 <0>         0.0807
     15 N2          2.3171   -1.6154   -6.2370 N.2       1 <0>        -0.4488
     16 C11         2.9826   -2.4473   -8.5186 C.ar      1 <0>        -0.0206
     17 C12         3.6496   -3.5590   -9.0325 C.ar      1 <0>        -0.0694
     18 C13         3.4051   -3.9700  -10.3265 C.ar      1 <0>        -0.1511
     19 C14         2.4988   -3.2799  -11.1154 C.ar      1 <0>         0.1060
     20 C15         1.8337   -2.1747  -10.6093 C.ar      1 <0>        -0.1526
     21 C16         2.0668   -1.7598   -9.3145 C.ar      1 <0>        -0.0599
     22 F1          2.2634   -3.6856  -12.3824 F         1 <0>        -0.1371
     23 C17         5.7881   -2.2443   -7.1163 C.ar      1 <0>         0.0226
     24 C18         6.1399   -1.7662   -8.3862 C.ar      1 <0>        -0.1423
     25 C19         7.3716   -2.0992   -8.9074 C.ar      1 <0>         0.1081
     26 N3          8.2131   -2.8565   -8.2286 N.ar      1 <0>        -0.4784
     27 C20         7.9224   -3.3278   -7.0303 C.ar      1 <0>         0.1071
     28 C21         6.7158   -3.0398   -6.4296 C.ar      1 <0>        -0.1652
     29 H2          1.0609    2.8540   -0.4489 H         1 <0>         0.0810
     30 H3         -0.5069    2.7075   -1.2790 H         1 <0>         0.1130
     31 H4         -0.4514    2.9143    0.4881 H         1 <0>         0.1088
     32 H5         -0.8856   -0.1215   -2.7301 H         1 <0>         0.1470
     33 H6          0.2512   -0.9192   -4.7602 H         1 <0>         0.1462
     34 H7          4.0268   -0.5845   -2.7539 H         1 <0>         0.1202
     35 H8          2.8713    0.2203   -0.7373 H         1 <0>         0.1322
     36 H9          4.3566   -4.0971   -8.4186 H         1 <0>         0.1287
     37 H10         3.9211   -4.8308  -10.7253 H         1 <0>         0.1387
     38 H11         1.1282   -1.6400  -11.2280 H         1 <0>         0.1401
     39 H12         1.5446   -0.9009   -8.9194 H         1 <0>         0.1377
     40 H13         5.4562   -1.1467   -8.9476 H         1 <0>         0.1400
     41 H14         7.6520   -1.7358   -9.8850 H         1 <0>         0.1626
     42 H15         8.6418   -3.9441   -6.5116 H         1 <0>         0.1610
     43 H16         6.4868   -3.4248   -5.4469 H         1 <0>         0.1340
@<TRIPOS>BOND
     1    1    2 1
     2    1   29 1
     3    1   30 1
     4    1   31 1
     5    2    3 2
     6    2    4 1
     7    4    9 ar
     8    4    5 ar
     9    5    6 ar
    10    5   32 1
    11    6    7 ar
    12    6   33 1
    13    7    8 ar
    14    7   10 1
    15    8    9 ar
    16    8   34 1
    17    9   35 1
    18   10   15 2
    19   10   11 1
    20   11   12 1
    21   11   13 1
    22   13   14 2
    23   13   23 1
    24   14   15 1
    25   14   16 1
    26   16   21 ar
    27   16   17 ar
    28   17   18 ar
    29   17   36 1
    30   18   19 ar
    31   18   37 1
    32   19   20 ar
    33   19   22 1
    34   20   21 ar
    35   20   38 1
    36   21   39 1
    37   23   28 ar
    38   23   24 ar
    39   24   25 ar
    40   24   40 1
    41   25   26 ar
    42   25   41 1
    43   26   27 ar
    44   27   28 ar
    45   27   42 1
    46   28   43 1
@<TRIPOS>MOLECULE
ZINC18274812
   43    46     0     0     0
SMALL
USER_CHARGES

@<TRIPOS>ATOM
      1 C1          0.0761    2.5207   -0.3946 C.3       1 <0>        -0.4977
      2 S1          0.1067    0.7194   -0.1829 S.o       1 <0>         1.3328
      3 O1          0.9925    0.3819    0.8757 O.2       1 <0>        -0.8523
      4 C2          0.9273    0.1342   -1.6283 C.ar      1 <0>        -0.4535
      5 C3          0.1933   -0.1734   -2.7600 C.ar      1 <0>        -0.0382
      6 C4          0.8295   -0.6320   -3.8950 C.ar      1 <0>        -0.0929
      7 C5          2.2169   -0.7850   -3.8999 C.ar      1 <0>         0.0183
      8 C6          2.9514   -0.4724   -2.7550 C.ar      1 <0>        -0.1257
      9 C7          2.3033   -0.0102   -1.6282 C.ar      1 <0>        -0.0496
     10 C8          2.9053   -1.2765   -5.1125 C.2       1 <0>         0.2536
     11 N1          4.2517   -1.4710   -5.2346 N.pl3     1 <0>        -0.5504
     12 H1          4.9205   -1.3136   -4.5499 H         1 <0>         0.4255
     13 C9          4.4817   -1.9314   -6.5089 C.2       1 <0>         0.0556
     14 C10         3.2446   -2.0022   -7.1288 C.2       1 <0>         0.0602
     15 N2          2.3192   -1.6008   -6.2417 N.2       1 <0>        -0.4443
     16 C11         2.9879   -2.4463   -8.5176 C.ar      1 <0>         0.0401
     17 C12         3.6482   -3.5593   -9.0502 C.ar      1 <0>        -0.1549
     18 C13         3.3789   -3.9386  -10.3482 C.ar      1 <0>         0.1021
     19 N3          2.5133   -3.2676  -11.0845 N.ar      1 <0>        -0.4831
     20 C14         1.8693   -2.2129  -10.6212 C.ar      1 <0>         0.1008
     21 C15         2.0741   -1.7682   -9.3321 C.ar      1 <0>        -0.1466
     22 C16         5.7882   -2.2812   -7.1001 C.ar      1 <0>        -0.0406
     23 C17         6.1350   -1.8042   -8.3665 C.ar      1 <0>        -0.0561
     24 C18         7.3568   -2.1344   -8.9137 C.ar      1 <0>        -0.1471
     25 C19         8.2399   -2.9383   -8.2101 C.ar      1 <0>         0.1131
     26 C20         7.9012   -3.4146   -6.9533 C.ar      1 <0>        -0.1492
     27 C21         6.6848   -3.0860   -6.3932 C.ar      1 <0>        -0.0767
     28 F1          9.4352   -3.2593   -8.7516 F         1 <0>        -0.1334
     29 H2          1.0971    2.8954   -0.4674 H         1 <0>         0.0810
     30 H3         -0.4683    2.7703   -1.3054 H         1 <0>         0.1130
     31 H4         -0.4189    2.9788    0.4616 H         1 <0>         0.1087
     32 H5         -0.8802   -0.0546   -2.7549 H         1 <0>         0.1468
     33 H6          0.2554   -0.8725   -4.7775 H         1 <0>         0.1457
     34 H7          4.0251   -0.5889   -2.7522 H         1 <0>         0.1204
     35 H8          2.8708    0.2356   -0.7429 H         1 <0>         0.1321
     36 H9          4.3583   -4.1127   -8.4536 H         1 <0>         0.1329
     37 H10         3.8834   -4.7962  -10.7681 H         1 <0>         0.1577
     38 H11         1.1696   -1.6933  -11.2591 H         1 <0>         0.1590
     39 H12         1.5402   -0.9072   -8.9580 H         1 <0>         0.1385
     40 H13         5.4474   -1.1783   -8.9159 H         1 <0>         0.1360
     41 H14         7.6261   -1.7662   -9.8926 H         1 <0>         0.1436
     42 H15         8.5933   -4.0406   -6.4097 H         1 <0>         0.1423
     43 H16         6.4240   -3.4537   -5.4118 H         1 <0>         0.1327
@<TRIPOS>BOND
     1    1    2 1
     2    1   29 1
     3    1   30 1
     4    1   31 1
     5    2    3 2
     6    2    4 1
     7    4    9 ar
     8    4    5 ar
     9    5    6 ar
    10    5   32 1
    11    6    7 ar
    12    6   33 1
    13    7    8 ar
    14    7   10 1
    15    8    9 ar
    16    8   34 1
    17    9   35 1
    18   10   15 2
    19   10   11 1
    20   11   12 1
    21   11   13 1
    22   13   14 2
    23   13   22 1
    24   14   15 1
    25   14   16 1
    26   16   21 ar
    27   16   17 ar
    28   17   18 ar
    29   17   36 1
    30   18   19 ar
    31   18   37 1
    32   19   20 ar
    33   20   21 ar
    34   20   38 1
    35   21   39 1
    36   22   27 ar
    37   22   23 ar
    38   23   24 ar
    39   23   40 1
    40   24   25 ar
    41   24   41 1
    42   25   26 ar
    43   25   28 1
    44   26   27 ar
    45   26   42 1
    46   27   43 1
@<TRIPOS>MOLECULE
ZINC24044436
   76    80     0     0     0
SMALL
USER_CHARGES
1-[5-tert-butyl-2-(p-tolyl)pyrazol-3-yl]-3-[4-(2-morpholinoethoxy)-1-naphthyl]urea
@<TRIPOS>ATOM
      1 C1          3.3307    9.5387   -0.3298 C.3       1 <0>        -0.1193
      2 C2          2.0898    8.6848   -0.2813 C.ar      1 <0>        -0.0892
      3 C3          0.9612    9.0673   -0.9828 C.ar      1 <0>        -0.0934
      4 C4         -0.1775    8.2868   -0.9403 C.ar      1 <0>        -0.1062
      5 C5         -0.1884    7.1174   -0.1919 C.ar      1 <0>         0.1564
      6 C6          0.9444    6.7392    0.5163 C.ar      1 <0>        -0.1500
      7 C7          2.0821    7.5207    0.4649 C.ar      1 <0>        -0.0924
      8 N1         -1.3424    6.3233   -0.1469 N.pl3     1 <0>        -0.3448
      9 C8         -1.3788    4.9645   -0.0790 C.2       1 <0>         0.3309
     10 C9         -2.6878    4.5925   -0.0483 C.2       1 <0>        -0.2629
     11 C10        -3.4651    5.7529   -0.1047 C.2       1 <0>         0.1115
     12 N2         -2.6643    6.7861   -0.1672 N.2       1 <0>        -0.2779
     13 C11        -4.9712    5.8052   -0.0954 C.3       1 <0>         0.0134
     14 C12        -5.4824    5.5257    1.3193 C.3       1 <0>        -0.1388
     15 C13        -5.4360    7.1933   -0.5406 C.3       1 <0>        -0.1390
     16 C14        -5.5242    4.7499   -1.0553 C.3       1 <0>        -0.1399
     17 N3         -0.2771    4.1104   -0.0417 N.am      1 <0>        -0.6731
     18 C15        -0.4603    2.7771    0.0314 C.2       1 <0>         0.7165
     19 O1         -1.5862    2.3190    0.0649 O.2       1 <0>        -0.5445
     20 N4          0.6045    1.9516    0.0675 N.am      1 <0>        -0.6819
     21 C16         0.4162    0.5655    0.0407 C.ar      1 <0>         0.1254
     22 C17        -0.6813    0.0024    0.6542 C.ar      1 <0>        -0.0743
     23 C18        -0.8835   -1.3742    0.6299 C.ar      1 <0>        -0.2061
     24 C19         0.0048   -2.2051    0.0082 C.ar      1 <0>         0.1395
     25 C20         1.1426   -1.6672   -0.6254 C.ar      1 <0>        -0.0565
     26 C21         1.3517   -0.2661   -0.6096 C.ar      1 <0>        -0.0251
     27 C22         2.4862    0.2686   -1.2409 C.ar      1 <0>        -0.1232
     28 C23         3.3687   -0.5639   -1.8588 C.ar      1 <0>        -0.0971
     29 C24         3.1636   -1.9422   -1.8742 C.ar      1 <0>        -0.1313
     30 C25         2.0750   -2.4951   -1.2724 C.ar      1 <0>        -0.0739
     31 O2         -0.2080   -3.5475    0.0012 O.3       1 <0>        -0.2916
     32 C26        -1.3823   -4.0216    0.6634 C.3       1 <0>         0.0605
     33 C27        -1.4510   -5.5459    0.5508 C.3       1 <0>         0.0539
     34 N5         -0.3065   -6.1409    1.2538 N.3       1 <0>        -0.5287
     35 C28        -0.1978   -7.5776    0.9617 C.3       1 <0>         0.0167
     36 C29         1.0390   -8.1436    1.6645 C.3       1 <0>         0.0615
     37 O3          0.9456   -7.8818    3.0674 O.3       1 <0>        -0.3849
     38 C30         0.8389   -6.4921    3.3879 C.3       1 <0>         0.0625
     39 C31        -0.3999   -5.9094    2.7026 C.3       1 <0>         0.0120
     40 H1          3.1476   10.4156   -0.9682 H         1 <0>         0.0687
     41 H2          4.1639    8.9515   -0.7434 H         1 <0>         0.0732
     42 H3          3.5863    9.8722    0.6868 H         1 <0>         0.0734
     43 H4          0.9703    9.9770   -1.5648 H         1 <0>         0.1335
     44 H5         -1.0587    8.5861   -1.4884 H         1 <0>         0.1355
     45 H6          0.9374    5.8324    1.1029 H         1 <0>         0.1262
     46 H7          2.9651    7.2245    1.0118 H         1 <0>         0.1343
     47 H8         -3.0598    3.5802    0.0092 H         1 <0>         0.1784
     48 H9         -6.5817    5.5639    1.3261 H         1 <0>         0.0656
     49 H10        -5.0849    6.2845    2.0094 H         1 <0>         0.0565
     50 H11        -5.1481    4.5278    1.6395 H         1 <0>         0.0614
     51 H12        -6.5353    7.2315   -0.5338 H         1 <0>         0.0604
     52 H13        -5.0684    7.3943   -1.5577 H         1 <0>         0.0568
     53 H14        -5.0385    7.9519    0.1496 H         1 <0>         0.0614
     54 H15        -6.6235    4.7882   -1.0484 H         1 <0>         0.0647
     55 H16        -5.1900    3.7520   -0.7351 H         1 <0>         0.0637
     56 H17        -5.1566    4.9509   -2.0724 H         1 <0>         0.0570
     57 H18         0.7414    4.5248   -0.0719 H         1 <0>         0.4294
     58 H19         1.6215    2.3677    0.1180 H         1 <0>         0.4280
     59 H20        -1.3959    0.6376    1.1566 H         1 <0>         0.1450
     60 H21        -1.7537   -1.7925    1.1139 H         1 <0>         0.1296
     61 H22         2.6580    1.3348   -1.2361 H         1 <0>         0.1222
     62 H23         4.2405   -0.1501   -2.3437 H         1 <0>         0.1243
     63 H24         3.8790   -2.5810   -2.3706 H         1 <0>         0.1250
     64 H25         1.9286   -3.5650   -1.2926 H         1 <0>         0.1353
     65 H26        -1.3465   -3.7335    1.7244 H         1 <0>         0.0659
     66 H27        -2.2726   -3.5787    0.1931 H         1 <0>         0.0716
     67 H28        -2.3868   -5.9052    1.0039 H         1 <0>         0.0605
     68 H29        -1.4216   -5.8370   -0.5096 H         1 <0>         0.0912
     69 H30        -1.0977   -8.0949    1.3258 H         1 <0>         0.0437
     70 H31        -0.1044   -7.7249   -0.1244 H         1 <0>         0.0891
     71 H32         1.0925   -9.2291    1.4949 H         1 <0>         0.1001
     72 H33         1.9424   -7.6643    1.2595 H         1 <0>         0.0618
     73 H34         0.7475   -6.3731    4.4776 H         1 <0>         0.0994
     74 H35         1.7375   -5.9645    3.0355 H         1 <0>         0.0616
     75 H36        -0.4553   -4.8284    2.8983 H         1 <0>         0.0869
     76 H37        -1.3031   -6.3997    3.0948 H         1 <0>         0.0443
@<TRIPOS>BOND
     1    1    2 1
     2    1   40 1
     3    1   41 1
     4    1   42 1
     5    2    7 ar
     6    2    3 ar
     7    3    4 ar
     8    3   43 1
     9    4    5 ar
    10    4   44 1
    11    5    6 ar
    12    5    8 1
    13    6    7 ar
    14    6   45 1
    15    7   46 1
    16    8   12 1
    17    8    9 1
    18    9   10 2
    19    9   17 1
    20   10   11 1
    21   10   47 1
    22   11   12 2
    23   11   13 1
    24   13   14 1
    25   13   15 1
    26   13   16 1
    27   14   48 1
    28   14   49 1
    29   14   50 1
    30   15   51 1
    31   15   52 1
    32   15   53 1
    33   16   54 1
    34   16   55 1
    35   16   56 1
    36   17   18 am
    37   17   57 1
    38   18   19 2
    39   18   20 am
    40   20   21 1
    41   20   58 1
    42   21   26 ar
    43   21   22 ar
    44   22   23 ar
    45   22   59 1
    46   23   24 ar
    47   23   60 1
    48   24   25 ar
    49   24   31 1
    50   25   30 ar
    51   25   26 ar
    52   26   27 ar
    53   27   28 ar
    54   27   61 1
    55   28   29 ar
    56   28   62 1
    57   29   30 ar
    58   29   63 1
    59   30   64 1
    60   31   32 1
    61   32   33 1
    62   32   65 1
    63   32   66 1
    64   33   34 1
    65   33   67 1
    66   33   68 1
    67   34   39 1
    68   34   35 1
    69   35   36 1
    70   35   69 1
    71   35   70 1
    72   36   37 1
    73   36   71 1
    74   36   72 1
    75   37   38 1
    76   38   39 1
    77   38   73 1
    78   38   74 1
    79   39   75 1
    80   39   76 1
@<TRIPOS>MOLECULE
ZINC26961992
   50    53     0     0     0
SMALL
USER_CHARGES

@<TRIPOS>ATOM
      1 C1          0.4682    0.9662    0.0061 C.3       1 <0>        -0.1654
      2 C2          0.3197   -0.5534    0.1039 C.3       1 <0>         0.1941
      3 H1          0.7517   -0.9010    1.0424 H         1 <0>         0.0884
      4 C3          1.0374   -1.2037   -1.0507 C.ar      1 <0>        -0.0949
      5 C4          0.4392   -1.2547   -2.2959 C.ar      1 <0>        -0.1110
      6 C5          1.0975   -1.8512   -3.3550 C.ar      1 <0>        -0.1148
      7 C6          2.3542   -2.3962   -3.1691 C.ar      1 <0>        -0.1161
      8 C7          2.9528   -2.3443   -1.9241 C.ar      1 <0>        -0.1153
      9 C8          2.2963   -1.7441   -0.8660 C.ar      1 <0>        -0.1079
     10 N1         -1.1007   -0.9093    0.0588 N.pl3     1 <0>        -0.7181
     11 C9         -1.8587   -0.8938    1.2246 C.ar      1 <0>         0.4128
     12 C10        -1.2634   -0.5348    2.4251 C.ar      1 <0>        -0.2331
     13 C11        -2.0404   -0.5245    3.5889 C.ar      1 <0>         0.0676
     14 C12        -3.3949   -0.8804    3.4854 C.ar      1 <0>        -0.2043
     15 C13        -3.9054   -1.2236    2.2545 C.ar      1 <0>         0.1588
     16 N2         -3.1431   -1.2170    1.1753 N.ar      1 <0>        -0.5393
     17 C14        -1.4529   -0.1507    4.8880 C.2       1 <0>         0.0343
     18 C15        -1.5860   -0.8303    6.0840 C.2       1 <0>         0.0852
     19 N3         -0.8938   -0.1528    7.0189 N.2       1 <0>        -0.4715
     20 C16        -0.3392    0.9060    6.4760 C.2       1 <0>         0.2102
     21 N4         -0.6532    0.9475    5.1521 N.pl3     1 <0>        -0.5393
     22 H2         -0.3713    1.6216    4.5141 H         1 <0>         0.4275
     23 S1          0.6596    2.0832    7.3252 S.3       1 <0>        -0.0251
     24 C17         0.7056    1.4701    9.0318 C.3       1 <0>        -0.1283
     25 C18        -2.3530   -2.0792    6.2988 C.ar      1 <0>        -0.0171
     26 C19        -2.2694   -3.1196    5.3735 C.ar      1 <0>        -0.0659
     27 C20        -2.9853   -4.2808    5.5783 C.ar      1 <0>        -0.1511
     28 C21        -3.7868   -4.4146    6.7007 C.ar      1 <0>         0.1044
     29 C22        -3.8736   -3.3837    7.6225 C.ar      1 <0>        -0.1535
     30 C23        -3.1567   -2.2210    7.4299 C.ar      1 <0>        -0.0613
     31 F1         -4.4864   -5.5536    6.8966 F         1 <0>        -0.1381
     32 H3          1.5250    1.2309    0.0397 H         1 <0>         0.0703
     33 H4          0.0362    1.3138   -0.9324 H         1 <0>         0.0646
     34 H5         -0.0509    1.4365    0.8412 H         1 <0>         0.0615
     35 H6         -0.5426   -0.8289   -2.4411 H         1 <0>         0.1211
     36 H7          0.6299   -1.8917   -4.3276 H         1 <0>         0.1250
     37 H8          2.8683   -2.8628   -3.9964 H         1 <0>         0.1243
     38 H9          3.9345   -2.7704   -1.7788 H         1 <0>         0.1255
     39 H10         2.7655   -1.7002    0.1058 H         1 <0>         0.1237
     40 H11        -1.5124   -1.1556   -0.7842 H         1 <0>         0.4061
     41 H12        -0.2174   -0.2681    2.4611 H         1 <0>         0.1301
     42 H13        -4.0276   -0.8851    4.3606 H         1 <0>         0.1354
     43 H14        -4.9463   -1.4985    2.1685 H         1 <0>         0.1611
     44 H15        -0.3081    1.4281    9.4302 H         1 <0>         0.0920
     45 H16         1.1438    0.4722    9.0476 H         1 <0>         0.0920
     46 H17         1.3087    2.1415    9.6430 H         1 <0>         0.1140
     47 H18        -1.6455   -3.0160    4.4981 H         1 <0>         0.1292
     48 H19        -2.9212   -5.0869    4.8624 H         1 <0>         0.1377
     49 H20        -4.5002   -3.4924    8.4954 H         1 <0>         0.1387
     50 H21        -3.2212   -1.4199    8.1515 H         1 <0>         0.1356
@<TRIPOS>BOND
     1    1    2 1
     2    1   32 1
     3    1   33 1
     4    1   34 1
     5    2    3 1
     6    2    4 1
     7    2   10 1
     8    4    9 ar
     9    4    5 ar
    10    5    6 ar
    11    5   35 1
    12    6    7 ar
    13    6   36 1
    14    7    8 ar
    15    7   37 1
    16    8    9 ar
    17    8   38 1
    18    9   39 1
    19   10   11 1
    20   10   40 1
    21   11   16 ar
    22   11   12 ar
    23   12   13 ar
    24   12   41 1
    25   13   14 ar
    26   13   17 1
    27   14   15 ar
    28   14   42 1
    29   15   16 ar
    30   15   43 1
    31   17   21 1
    32   17   18 2
    33   18   19 1
    34   18   25 1
    35   19   20 2
    36   20   21 1
    37   20   23 1
    38   21   22 1
    39   23   24 1
    40   24   44 1
    41   24   45 1
    42   24   46 1
    43   25   30 ar
    44   25   26 ar
    45   26   27 ar
    46   26   47 1
    47   27   28 ar
    48   27   48 1
    49   28   29 ar
    50   28   31 1
    51   29   30 ar
    52   29   49 1
    53   30   50 1
@<TRIPOS>MOLECULE
ZINC26961992
   51    54     0     0     0
SMALL
USER_CHARGES
4-[5-(4-fluorophenyl)-2-methylsulfanyl-3H-imidazol-4-yl]-N-[(1R)-1-phenylethyl]pyridin-2-amine
@<TRIPOS>ATOM
      1 C1         -0.0163    1.0983    0.0045 C.3       1 <0>        -0.1701
      2 C2         -0.7312    1.5882    1.2653 C.3       1 <0>         0.1891
      3 H1         -0.2051    1.2555    2.1722 H         1 <0>         0.1065
      4 C3         -2.1453    1.0675    1.2754 C.ar      1 <0>        -0.1093
      5 C4         -3.1199    1.6991    0.5256 C.ar      1 <0>        -0.1178
      6 C5         -4.4161    1.2188    0.5314 C.ar      1 <0>        -0.1110
      7 C6         -4.7398    0.1123    1.2942 C.ar      1 <0>        -0.1054
      8 C7         -3.7663   -0.5161    2.0482 C.ar      1 <0>        -0.1079
      9 C8         -2.4692   -0.0384    2.0389 C.ar      1 <0>        -0.1012
     10 N1         -0.7502    3.0531    1.2779 N.pl3     1 <0>        -0.7067
     11 C9          0.3374    3.7582    1.7817 C.ar      1 <0>         0.4634
     12 C10         1.4363    3.0667    2.2705 C.ar      1 <0>        -0.1784
     13 C11         2.5222    3.7916    2.7739 C.ar      1 <0>         0.1698
     14 C12         2.4476    5.1938    2.7603 C.ar      1 <0>        -0.1565
     15 C13         1.3193    5.7998    2.2570 C.ar      1 <0>         0.1735
     16 N2          0.3146    5.0834    1.7847 N.ar      1 <0>        -0.5315
     17 C14         3.7124    3.1019    3.3036 C.2       1 <0>         0.0038
     18 C15         5.0339    3.4094    3.0408 C.2       1 <0>         0.0682
     19 N3          5.8003    2.5361    3.7207 N.pl3     1 <0>        -0.5271
     20 C16         5.0349    1.7014    4.3846 C.2       1 <0>         0.2004
     21 N4          3.7294    2.0174    4.1632 N.2       1 <0>        -0.4299
     22 H2          6.8965    2.6020    3.6586 H         1 <0>         0.4587
     23 S1          5.6069    0.3852    5.4068 S.3       1 <0>         0.0435
     24 C17         7.3948    0.6006    5.2254 C.3       1 <0>        -0.1849
     25 C18         5.5197    4.5033    2.1680 C.ar      1 <0>        -0.0492
     26 C19         4.8145    4.8429    1.0135 C.ar      1 <0>        -0.0704
     27 C20         5.2681    5.8657    0.2068 C.ar      1 <0>        -0.1461
     28 C21         6.4283    6.5483    0.5359 C.ar      1 <0>         0.1201
     29 C22         7.1353    6.2110    1.6790 C.ar      1 <0>        -0.1408
     30 C23         6.6871    5.1932    2.4949 C.ar      1 <0>        -0.0760
     31 F1          6.8718    7.5453   -0.2606 F         1 <0>        -0.1276
     32 H3          1.0159    1.4784   -0.0029 H         1 <0>         0.0664
     33 H4         -0.5488    1.4658   -0.8852 H         1 <0>         0.0725
     34 H5         -0.0021   -0.0016   -0.0050 H         1 <0>         0.0878
     35 H6         -2.8679    2.5658   -0.0674 H         1 <0>         0.1174
     36 H7         -5.1765    1.7096   -0.0579 H         1 <0>         0.1292
     37 H8         -5.7530   -0.2614    1.3009 H         1 <0>         0.1303
     38 H9         -4.0192   -1.3806    2.6442 H         1 <0>         0.1318
     39 H10        -1.7087   -0.5294    2.6280 H         1 <0>         0.1289
     40 H11        -1.6247    3.5952    0.8889 H         1 <0>         0.4406
     41 H12         1.4610    2.0670    2.2669 H         1 <0>         0.1601
     42 H13         3.2008    5.7510    3.1099 H         1 <0>         0.1576
     43 H14         1.2523    6.7975    2.2414 H         1 <0>         0.1830
     44 H15         7.9182   -0.1642    5.8179 H         1 <0>         0.1312
     45 H16         7.6816    1.6008    5.5822 H         1 <0>         0.0906
     46 H17         7.6710    0.4962    4.1658 H         1 <0>         0.0907
     47 H18         3.9128    4.3084    0.7537 H         1 <0>         0.1291
     48 H19         4.7203    6.1324   -0.6849 H         1 <0>         0.1446
     49 H20         8.0391    6.7459    1.9312 H         1 <0>         0.1477
     50 H21         7.2392    4.9307    3.3852 H         1 <0>         0.1348
     51 H22        -0.5592    5.6193    1.3857 H         1 <0>         0.4765
@<TRIPOS>BOND
     1    1    2 1
     2    1   32 1
     3    1   33 1
     4    1   34 1
     5    2    3 1
     6    2    4 1
     7    2   10 1
     8    4    9 ar
     9    4    5 ar
    10    5    6 ar
    11    5   35 1
    12    6    7 ar
    13    6   36 1
    14    7    8 ar
    15    7   37 1
    16    8    9 ar
    17    8   38 1
    18    9   39 1
    19   10   11 1
    20   10   40 1
    21   11   16 ar
    22   11   12 ar
    23   12   13 ar
    24   12   41 1
    25   13   14 ar
    26   13   17 1
    27   14   15 ar
    28   14   42 1
    29   15   16 ar
    30   15   43 1
    31   16   51 1
    32   17   21 1
    33   17   18 2
    34   18   25 1
    35   18   19 1
    36   19   22 1
    37   19   20 1
    38   20   23 1
    39   20   21 2
    40   23   24 1
    41   24   44 1
    42   24   45 1
    43   24   46 1
    44   25   30 ar
    45   25   26 ar
    46   26   27 ar
    47   26   47 1
    48   27   28 ar
    49   27   48 1
    50   28   29 ar
    51   28   31 1
    52   29   30 ar
    53   29   49 1
    54   30   50 1
@<TRIPOS>MOLECULE
ZINC13524440
   50    53     0     0     0
SMALL
USER_CHARGES

@<TRIPOS>ATOM
      1 C1          0.2281    2.1476   -0.1663 C.3       1 <0>        -0.1660
      2 C2          0.0458    0.6303   -0.0915 C.3       1 <0>         0.1951
      3 H1          0.5097    0.2531    0.8198 H         1 <0>         0.0869
      4 C3         -1.4248    0.3010   -0.0800 C.ar      1 <0>        -0.0948
      5 C4         -2.1395    0.2887   -1.2632 C.ar      1 <0>        -0.1109
      6 C5         -3.4884   -0.0134   -1.2526 C.ar      1 <0>        -0.1146
      7 C6         -4.1225   -0.3035   -0.0590 C.ar      1 <0>        -0.1163
      8 C7         -3.4075   -0.2919    1.1240 C.ar      1 <0>        -0.1154
      9 C8         -2.0576    0.0059    1.1129 C.ar      1 <0>        -0.1085
     10 N1          0.6772    0.0047   -1.2561 N.pl3     1 <0>        -0.7183
     11 C9          2.0358   -0.2915   -1.2350 C.ar      1 <0>         0.4128
     12 C10         2.7847    0.0037   -0.1051 C.ar      1 <0>        -0.2331
     13 C11         4.1505   -0.3008   -0.1005 C.ar      1 <0>         0.0676
     14 C12         4.7018   -0.8947   -1.2474 C.ar      1 <0>        -0.2044
     15 C13         3.8867   -1.1537   -2.3255 C.ar      1 <0>         0.1589
     16 N2          2.5995   -0.8575   -2.2926 N.ar      1 <0>        -0.5393
     17 C14         4.9879   -0.0058    1.0761 C.2       1 <0>         0.0343
     18 C15         6.2179    0.6243    1.0810 C.2       1 <0>         0.0854
     19 N3          6.6369    0.6939    2.3584 N.2       1 <0>        -0.4716
     20 C16         5.7419    0.1454    3.1467 C.2       1 <0>         0.2104
     21 N4          4.6963   -0.2991    2.3969 N.pl3     1 <0>        -0.5395
     22 H2          3.8979   -0.7405    2.7263 H         1 <0>         0.4274
     23 S1          5.8704    0.0121    4.8989 S.3       1 <0>        -0.0253
     24 C17         7.4652    0.7870    5.2822 C.3       1 <0>        -0.1282
     25 C18         6.9449    1.1311   -0.1060 C.ar      1 <0>        -0.0171
     26 C19         6.2592    1.8254   -1.1026 C.ar      1 <0>        -0.0658
     27 C20         6.9408    2.2958   -2.2058 C.ar      1 <0>        -0.1511
     28 C21         8.3042    2.0791   -2.3251 C.ar      1 <0>         0.1044
     29 C22         8.9897    1.3894   -1.3380 C.ar      1 <0>        -0.1535
     30 C23         8.3183    0.9205   -0.2279 C.ar      1 <0>        -0.0613
     31 F1          8.9672    2.5413   -3.4077 F         1 <0>        -0.1381
     32 H3          1.2918    2.3857   -0.1746 H         1 <0>         0.0637
     33 H4         -0.2358    2.5248   -1.0776 H         1 <0>         0.0645
     34 H5         -0.2417    2.6131    0.7002 H         1 <0>         0.0699
     35 H6         -1.6442    0.5153   -2.1957 H         1 <0>         0.1214
     36 H7         -4.0470   -0.0224   -2.1769 H         1 <0>         0.1251
     37 H8         -5.1765   -0.5387   -0.0507 H         1 <0>         0.1244
     38 H9         -3.9029   -0.5183    2.0566 H         1 <0>         0.1254
     39 H10        -1.4982    0.0112    2.0368 H         1 <0>         0.1234
     40 H11         0.1477   -0.2030   -2.0418 H         1 <0>         0.4061
     41 H12         2.3214    0.4612    0.7565 H         1 <0>         0.1301
     42 H13         5.7519   -1.1445   -1.2831 H         1 <0>         0.1354
     43 H14         4.3048   -1.6100   -3.2106 H         1 <0>         0.1611
     44 H15         8.2629    0.2492    4.7699 H         1 <0>         0.0920
     45 H16         7.4543    1.8247    4.9490 H         1 <0>         0.0920
     46 H17         7.6366    0.7526    6.3581 H         1 <0>         0.1140
     47 H18         5.1965    1.9943   -1.0108 H         1 <0>         0.1293
     48 H19         6.4108    2.8336   -2.9780 H         1 <0>         0.1377
     49 H20        10.0522    1.2223   -1.4358 H         1 <0>         0.1387
     50 H21         8.8543    0.3872    0.5433 H         1 <0>         0.1356
@<TRIPOS>BOND
     1    1    2 1
     2    1   32 1
     3    1   33 1
     4    1   34 1
     5    2    3 1
     6    2    4 1
     7    2   10 1
     8    4    9 ar
     9    4    5 ar
    10    5    6 ar
    11    5   35 1
    12    6    7 ar
    13    6   36 1
    14    7    8 ar
    15    7   37 1
    16    8    9 ar
    17    8   38 1
    18    9   39 1
    19   10   11 1
    20   10   40 1
    21   11   16 ar
    22   11   12 ar
    23   12   13 ar
    24   12   41 1
    25   13   14 ar
    26   13   17 1
    27   14   15 ar
    28   14   42 1
    29   15   16 ar
    30   15   43 1
    31   17   21 1
    32   17   18 2
    33   18   19 1
    34   18   25 1
    35   19   20 2
    36   20   21 1
    37   20   23 1
    38   21   22 1
    39   23   24 1
    40   24   44 1
    41   24   45 1
    42   24   46 1
    43   25   30 ar
    44   25   26 ar
    45   26   27 ar
    46   26   47 1
    47   27   28 ar
    48   27   48 1
    49   28   29 ar
    50   28   31 1
    51   29   30 ar
    52   29   49 1
    53   30   50 1
@<TRIPOS>MOLECULE
ZINC13524440
   52    55     0     0     0
SMALL
USER_CHARGES
4-[5-(4-fluorophenyl)-2-methylsulfanyl-3H-imidazol-4-yl]-N-[(1S)-1-phenylethyl]pyridin-2-amine
@<TRIPOS>ATOM
      1 C1         -0.0187    1.5258    0.0104 C.3       1 <0>        -0.1730
      2 C2          0.0021   -0.0041    0.0020 C.3       1 <0>         0.1815
      3 H1          0.5123   -0.3556   -0.8948 H         1 <0>         0.1071
      4 C3          0.7309   -0.5033    1.2229 C.ar      1 <0>        -0.1248
      5 C4          0.0843   -0.5479    2.4439 C.ar      1 <0>        -0.1169
      6 C5          0.7515   -1.0099    3.5629 C.ar      1 <0>        -0.1073
      7 C6          2.0684   -1.4184    3.4629 C.ar      1 <0>        -0.0969
      8 C7          2.7165   -1.3693    2.2429 C.ar      1 <0>        -0.1065
      9 C8          2.0479   -0.9113    1.1230 C.ar      1 <0>        -0.1000
     10 N1         -1.3723   -0.5112    0.0124 N.pl3     1 <0>        -0.6770
     11 C9         -2.0724   -0.6469   -1.1814 C.ar      1 <0>         0.4713
     12 C10        -1.4619   -0.2998   -2.3779 C.ar      1 <0>        -0.1919
     13 C11        -2.1802   -0.4430   -3.5702 C.ar      1 <0>         0.1294
     14 C12        -3.4938   -0.9344   -3.4984 C.ar      1 <0>        -0.1627
     15 C13        -4.0231   -1.2549   -2.2693 C.ar      1 <0>         0.1840
     16 C14        -1.5748   -0.0871   -4.8661 C.2       1 <0>         0.0516
     17 C15        -1.6250   -0.8236   -6.0345 C.2       1 <0>         0.1735
     18 C16        -0.4795    0.9723   -6.4651 C.cat     1 <0>         0.3018
     19 N2         -0.8477    1.0540   -5.1572 N.pl3     1 <0>        -0.4963
     20 H2         -0.6331    1.7987   -4.5253 H         1 <0>         0.4778
     21 S1          0.4693    2.1755   -7.3351 S.3       1 <0>         0.1422
     22 C17         0.5418    1.3979   -8.9679 C.3       1 <0>        -0.2002
     23 C18        -2.3024   -2.1284   -6.2166 C.ar      1 <0>        -0.1029
     24 C19        -2.3209   -3.0582   -5.1771 C.ar      1 <0>        -0.0511
     25 C20        -2.9563   -4.2703   -5.3502 C.ar      1 <0>        -0.1479
     26 C21        -3.5676   -4.5684   -6.5575 C.ar      1 <0>         0.1561
     27 C22        -3.5477   -3.6500   -7.5949 C.ar      1 <0>        -0.1420
     28 C23        -2.9187   -2.4334   -7.4300 C.ar      1 <0>        -0.0522
     29 F1         -4.1845   -5.7588   -6.7239 F         1 <0>        -0.1133
     30 H3          1.0039    1.9031    0.0027 H         1 <0>         0.0938
     31 H4         -0.5459    1.8868   -0.8726 H         1 <0>         0.0631
     32 H5         -0.5289    1.8773    0.9072 H         1 <0>         0.0781
     33 H6         -0.9433   -0.2249    2.5228 H         1 <0>         0.1169
     34 H7          0.2450   -1.0486    4.5160 H         1 <0>         0.1332
     35 H8          2.5907   -1.7762    4.3378 H         1 <0>         0.1349
     36 H9          3.7453   -1.6884    2.1647 H         1 <0>         0.1350
     37 H10         2.5544   -0.8726    0.1699 H         1 <0>         0.1272
     38 H11        -1.7940   -0.7522    0.8520 H         1 <0>         0.4253
     39 H12        -0.4490    0.0749   -2.3888 H         1 <0>         0.1840
     40 H13        -4.0810   -1.0589   -4.3962 H         1 <0>         0.1895
     41 H14        -5.0327   -1.6333   -2.2076 H         1 <0>         0.2091
     42 H15         1.0273    0.4255   -8.8861 H         1 <0>         0.1122
     43 H16        -0.4694    1.2678   -9.3536 H         1 <0>         0.1121
     44 H17         1.1110    2.0322   -9.6475 H         1 <0>         0.1578
     45 H18        -1.8415   -2.8282   -4.2370 H         1 <0>         0.1352
     46 H19        -2.9744   -4.9894   -4.5447 H         1 <0>         0.1552
     47 H20        -4.0253   -3.8871   -8.5341 H         1 <0>         0.1588
     48 H21        -2.9032   -1.7184   -8.2394 H         1 <0>         0.1414
     49 N3         -3.3473   -1.1319   -1.0925 N.ar      1 <0>        -0.5350
     50 H22        -3.7704   -1.3882   -0.1927 H         1 <0>         0.4774
     51 N4         -0.9473   -0.1425   -6.9781 N.pl3     1 <0>        -0.5003
     52 H23        -0.8163   -0.4480   -7.9496 H         1 <0>         0.4816
@<TRIPOS>BOND
     1    1    2 1
     2    1   30 1
     3    1   31 1
     4    1   32 1
     5    2    3 1
     6    2    4 1
     7    2   10 1
     8    4    9 ar
     9    4    5 ar
    10    5    6 ar
    11    5   33 1
    12    6    7 ar
    13    6   34 1
    14    7    8 ar
    15    7   35 1
    16    8    9 ar
    17    8   36 1
    18    9   37 1
    19   10   11 1
    20   10   38 1
    21   11   12 ar
    22   11   49 ar
    23   12   13 ar
    24   12   39 1
    25   13   14 ar
    26   13   16 1
    27   14   15 ar
    28   14   40 1
    29   15   41 1
    30   15   49 ar
    31   16   19 1
    32   16   17 2
    33   17   23 1
    34   17   51 1
    35   18   19 1
    36   18   21 1
    37   18   51 2
    38   19   20 1
    39   21   22 1
    40   22   42 1
    41   22   43 1
    42   22   44 1
    43   23   28 ar
    44   23   24 ar
    45   24   25 ar
    46   24   45 1
    47   25   26 ar
    48   25   46 1
    49   26   27 ar
    50   26   29 1
    51   27   28 ar
    52   27   47 1
    53   28   48 1
    54   49   50 1
    55   51   52 1
@<TRIPOS>MOLECULE
ZINC13524440
   51    54     0     0     0
SMALL
USER_CHARGES

@<TRIPOS>ATOM
      1 C1         -0.0187    1.5258    0.0104 C.3       1 <0>        -0.1715
      2 C2          0.0021   -0.0041    0.0020 C.3       1 <0>         0.1865
      3 H1         -1.0205   -0.3814    0.0098 H         1 <0>         0.1064
      4 C3          0.7074   -0.4901   -1.2379 C.ar      1 <0>        -0.1149
      5 C4          2.0889   -0.5108   -1.2839 C.ar      1 <0>        -0.1167
      6 C5          2.7359   -0.9566   -2.4212 C.ar      1 <0>        -0.1103
      7 C6          2.0015   -1.3821   -3.5123 C.ar      1 <0>        -0.1029
      8 C7          0.6201   -1.3622   -3.4659 C.ar      1 <0>        -0.1081
      9 C8         -0.0269   -0.9205   -2.3270 C.ar      1 <0>        -0.1005
     10 N1          0.7106   -0.4894    1.1889 N.pl3     1 <0>        -0.6936
     11 C9          0.0302   -0.6380    2.3925 C.ar      1 <0>         0.4592
     12 C10        -1.3208   -0.3299    2.4593 C.ar      1 <0>        -0.2124
     13 C11        -1.9905   -0.4851    3.6782 C.ar      1 <0>         0.1633
     14 C12        -1.2581   -0.9485    4.7832 C.ar      1 <0>        -0.1597
     15 C13         0.0799   -1.2310    4.6296 C.ar      1 <0>         0.1581
     16 N2          0.6785   -1.0777    3.4617 N.ar      1 <0>        -0.5109
     17 C14        -3.4253   -0.1703    3.7990 C.2       1 <0>        -0.0390
     18 C15        -4.3905   -0.9314    4.4309 C.2       1 <0>         0.1454
     19 N3         -5.5650   -0.2848    4.3107 N.2       1 <0>        -0.4754
     20 H2         -3.6682    1.6800    2.8150 H         1 <0>         0.4318
     21 C16        -5.3877    0.8313    3.6427 C.2       1 <0>         0.2477
     22 N4         -4.0737    0.9493    3.3076 N.pl3     1 <0>        -0.5381
     23 S1         -6.6499    1.9957    3.2480 S.3       1 <0>         0.0004
     24 C17        -8.1512    1.2767    3.9690 C.3       1 <0>        -0.1340
     25 C18        -4.1719   -2.2261    5.1167 C.ar      1 <0>        -0.0424
     26 C19        -3.2271   -3.1271    4.6258 C.ar      1 <0>        -0.0778
     27 C20        -3.0269   -4.3313    5.2682 C.ar      1 <0>        -0.1536
     28 C21        -3.7628   -4.6466    6.3992 C.ar      1 <0>         0.1194
     29 C22        -4.7029   -3.7550    6.8905 C.ar      1 <0>        -0.1479
     30 C23        -4.9060   -2.5456    6.2587 C.ar      1 <0>        -0.0478
     31 F1         -3.5634   -5.8274    7.0246 F         1 <0>        -0.1302
     32 H3          1.0039    1.9031    0.0027 H         1 <0>         0.0735
     33 H4         -0.5459    1.8868   -0.8726 H         1 <0>         0.0891
     34 H5         -0.5289    1.8773    0.9072 H         1 <0>         0.0654
     35 H6          2.6626   -0.1783   -0.4315 H         1 <0>         0.1170
     36 H7          3.8152   -0.9721   -2.4575 H         1 <0>         0.1303
     37 H8          2.5070   -1.7297   -4.4012 H         1 <0>         0.1316
     38 H9          0.0463   -1.6944   -4.3185 H         1 <0>         0.1328
     39 H10        -1.1062   -0.9085   -2.2894 H         1 <0>         0.1283
     40 H11         1.6544   -0.7070    1.1351 H         1 <0>         0.4190
     41 H12        -1.8469    0.0243    1.5851 H         1 <0>         0.1751
     42 H13        -1.7387   -1.0812    5.7412 H         1 <0>         0.1829
     43 H14         0.6485   -1.5873    5.4757 H         1 <0>         0.2123
     44 H15        -8.3381    0.3008    3.5208 H         1 <0>         0.0966
     45 H16        -8.0192    1.1631    5.0450 H         1 <0>         0.0967
     46 H17        -8.9986    1.9341    3.7743 H         1 <0>         0.1216
     47 H18        -2.6535   -2.8825    3.7439 H         1 <0>         0.1240
     48 H19        -2.2955   -5.0296    4.8888 H         1 <0>         0.1413
     49 H20        -5.2745   -4.0055    7.7719 H         1 <0>         0.1463
     50 H21        -5.6355   -1.8493    6.6452 H         1 <0>         0.1430
     51 H22         1.6220   -1.2894    3.3855 H         1 <0>         0.4428
@<TRIPOS>BOND
     1    1    2 1
     2    1   32 1
     3    1   33 1
     4    1   34 1
     5    2    3 1
     6    2    4 1
     7    2   10 1
     8    4    9 ar
     9    4    5 ar
    10    5    6 ar
    11    5   35 1
    12    6    7 ar
    13    6   36 1
    14    7    8 ar
    15    7   37 1
    16    8    9 ar
    17    8   38 1
    18    9   39 1
    19   10   11 1
    20   10   40 1
    21   11   16 ar
    22   11   12 ar
    23   12   13 ar
    24   12   41 1
    25   13   14 ar
    26   13   17 1
    27   14   15 ar
    28   14   42 1
    29   15   16 ar
    30   15   43 1
    31   16   51 1
    32   17   18 2
    33   17   22 1
    34   18   19 1
    35   18   25 1
    36   19   21 2
    37   20   22 1
    38   21   23 1
    39   21   22 1
    40   23   24 1
    41   24   44 1
    42   24   45 1
    43   24   46 1
    44   25   30 ar
    45   25   26 ar
    46   26   27 ar
    47   26   47 1
    48   27   28 ar
    49   27   48 1
    50   28   29 ar
    51   28   31 1
    52   29   30 ar
    53   29   49 1
    54   30   50 1
@<TRIPOS>MOLECULE
ZINC13524440
   51    54     0     0     0
SMALL
USER_CHARGES

@<TRIPOS>ATOM
      1 C1         -0.0187    1.5258    0.0104 C.3       1 <0>        -0.1711
      2 C2          0.0021   -0.0041    0.0020 C.3       1 <0>         0.1873
      3 H1         -1.0205   -0.3814    0.0098 H         1 <0>         0.1071
      4 C3          0.7074   -0.4901   -1.2379 C.ar      1 <0>        -0.1125
      5 C4          2.0889   -0.5108   -1.2839 C.ar      1 <0>        -0.1169
      6 C5          2.7359   -0.9566   -2.4212 C.ar      1 <0>        -0.1108
      7 C6          2.0015   -1.3821   -3.5123 C.ar      1 <0>        -0.1044
      8 C7          0.6201   -1.3622   -3.4659 C.ar      1 <0>        -0.1087
      9 C8         -0.0269   -0.9205   -2.3270 C.ar      1 <0>        -0.1009
     10 N1          0.7106   -0.4894    1.1889 N.pl3     1 <0>        -0.6952
     11 C9          0.0303   -0.6380    2.3924 C.ar      1 <0>         0.4533
     12 C10        -1.3217   -0.3297    2.4595 C.ar      1 <0>        -0.1886
     13 C11        -1.9904   -0.4845    3.6757 C.ar      1 <0>         0.1710
     14 C12        -1.2607   -0.9470    4.7796 C.ar      1 <0>        -0.1679
     15 C13         0.0783   -1.2302    4.6282 C.ar      1 <0>         0.1524
     16 N2          0.6781   -1.0775    3.4614 N.ar      1 <0>        -0.5105
     17 C14        -3.4313   -0.1681    3.7960 C.2       1 <0>         0.0127
     18 C15        -4.3471   -0.8280    4.5924 C.2       1 <0>         0.0997
     19 N3         -5.5607   -0.2002    4.3916 N.pl3     1 <0>        -0.5360
     20 H2         -6.4045   -0.4313    4.8105 H         1 <0>         0.4371
     21 C16        -5.3512    0.8046    3.4956 C.2       1 <0>         0.2243
     22 N4         -4.0854    0.8200    3.1524 N.2       1 <0>        -0.4621
     23 S1         -6.5841    1.9124    2.8979 S.3       1 <0>        -0.0025
     24 C17        -5.6842    2.9944    1.7532 C.3       1 <0>        -0.1330
     25 C18        -4.0814   -1.9761    5.4808 C.ar      1 <0>        -0.0611
     26 C19        -3.2994   -3.0435    5.0326 C.ar      1 <0>        -0.0647
     27 C20        -3.0542   -4.1133    5.8674 C.ar      1 <0>        -0.1498
     28 C21        -3.5822   -4.1312    7.1487 C.ar      1 <0>         0.1249
     29 C22        -4.3588   -3.0752    7.5991 C.ar      1 <0>        -0.1446
     30 C23        -4.6061   -1.9973    6.7754 C.ar      1 <0>        -0.0661
     31 F1         -3.3394   -5.1824    7.9619 F         1 <0>        -0.1269
     32 H3          1.0039    1.9031    0.0027 H         1 <0>         0.0710
     33 H4         -0.5459    1.8868   -0.8726 H         1 <0>         0.0875
     34 H5         -0.5289    1.8773    0.9072 H         1 <0>         0.0697
     35 H6          2.6626   -0.1783   -0.4315 H         1 <0>         0.1171
     36 H7          3.8152   -0.9721   -2.4575 H         1 <0>         0.1296
     37 H8          2.5070   -1.7297   -4.4012 H         1 <0>         0.1307
     38 H9          0.0463   -1.6944   -4.3185 H         1 <0>         0.1320
     39 H10        -1.1062   -0.9085   -2.2894 H         1 <0>         0.1284
     40 H11         1.6544   -0.7070    1.1351 H         1 <0>         0.4175
     41 H12        -1.8477    0.0244    1.5853 H         1 <0>         0.1802
     42 H13        -1.7427   -1.0791    5.7371 H         1 <0>         0.1779
     43 H14         0.6456   -1.5869    5.4752 H         1 <0>         0.2092
     44 H15        -6.3722    3.7242    1.3264 H         1 <0>         0.1200
     45 H16        -4.8915    3.5138    2.2916 H         1 <0>         0.0934
     46 H17        -5.2482    2.3952    0.9539 H         1 <0>         0.0928
     47 H18        -2.8880   -3.0310    4.0341 H         1 <0>         0.1331
     48 H19        -2.4498   -4.9390    5.5220 H         1 <0>         0.1462
     49 H20        -4.7679   -3.0949    8.5984 H         1 <0>         0.1484
     50 H21        -5.2077   -1.1729    7.1290 H         1 <0>         0.1384
     51 H22         1.6217   -1.2894    3.3859 H         1 <0>         0.4413
@<TRIPOS>BOND
     1    1    2 1
     2    1   32 1
     3    1   33 1
     4    1   34 1
     5    2    3 1
     6    2    4 1
     7    2   10 1
     8    4    9 ar
     9    4    5 ar
    10    5    6 ar
    11    5   35 1
    12    6    7 ar
    13    6   36 1
    14    7    8 ar
    15    7   37 1
    16    8    9 ar
    17    8   38 1
    18    9   39 1
    19   10   11 1
    20   10   40 1
    21   11   16 ar
    22   11   12 ar
    23   12   13 ar
    24   12   41 1
    25   13   14 ar
    26   13   17 1
    27   14   15 ar
    28   14   42 1
    29   15   16 ar
    30   15   43 1
    31   16   51 1
    32   17   22 1
    33   17   18 2
    34   18   19 1
    35   18   25 1
    36   19   20 1
    37   19   21 1
    38   21   22 2
    39   21   23 1
    40   23   24 1
    41   24   44 1
    42   24   45 1
    43   24   46 1
    44   25   30 ar
    45   25   26 ar
    46   26   27 ar
    47   26   47 1
    48   27   28 ar
    49   27   48 1
    50   28   29 ar
    51   28   31 1
    52   29   30 ar
    53   29   49 1
    54   30   50 1
@<TRIPOS>MOLECULE
ZINC13493055
   37    40     0     0     0
SMALL
USER_CHARGES
5-(2,6-dichlorophenyl)-2-(2,4-difluorophenyl)sulfanyl-pyrimido[6,1-f]pyridazin-6-one
@<TRIPOS>ATOM
      1 C1          0.7819    4.3410    0.0524 C.ar      1 <0>        -0.0865
      2 C2         -0.4275    5.0027   -0.0644 C.ar      1 <0>        -0.1052
      3 C3         -1.6103    4.2903   -0.0692 C.ar      1 <0>        -0.0078
      4 C4         -1.5836    2.8981    0.0381 C.ar      1 <0>        -0.0051
      5 C5         -0.3594    2.2372    0.1611 C.ar      1 <0>        -0.0079
      6 C6          0.8156    2.9624    0.1649 C.ar      1 <0>        -0.1052
      7 Cl1        -0.3147    0.5075    0.3018 Cl        1 <0>        -0.0496
      8 C7         -2.8461    2.1276    0.0266 C.2       1 <0>        -0.1962
      9 C8         -3.3978    1.6608   -1.1750 C.2       1 <0>         0.1634
     10 C9         -2.7630    1.9018   -2.4066 C.2       1 <0>        -0.0494
     11 C10        -3.3310    1.4261   -3.5469 C.2       1 <0>        -0.1079
     12 C11        -4.5373    0.6985   -3.4809 C.2       1 <0>         0.1181
     13 N1         -5.1260    0.4712   -2.3297 N.2       1 <0>        -0.2574
     14 N2         -4.5673    0.9472   -1.1371 N.pl3     1 <0>        -0.3270
     15 C12        -5.1778    0.7109    0.0511 C.2       1 <0>         0.4228
     16 N3         -4.6823    1.1412    1.1775 N.2       1 <0>        -0.5427
     17 C13        -3.5381    1.8434    1.2263 C.2       1 <0>         0.5151
     18 O1         -3.0989    2.2338    2.2995 O.2       1 <0>        -0.4890
     19 S1         -5.2649    0.0865   -4.9643 S.3       1 <0>         0.1498
     20 C14        -6.6196   -0.8905   -4.4031 C.ar      1 <0>        -0.2138
     21 C15        -7.9169   -0.4067   -4.5085 C.ar      1 <0>         0.0058
     22 C16        -8.9776   -1.1741   -4.0680 C.ar      1 <0>        -0.1725
     23 C17        -8.7491   -2.4257   -3.5211 C.ar      1 <0>         0.1750
     24 C18        -7.4569   -2.9119   -3.4142 C.ar      1 <0>        -0.2011
     25 C19        -6.3919   -2.1502   -3.8590 C.ar      1 <0>         0.1941
     26 F1         -5.1316   -2.6265   -3.7599 F         1 <0>        -0.1130
     27 F2         -9.7887   -3.1735   -3.0908 F         1 <0>        -0.1191
     28 Cl2        -3.1267    5.1227   -0.2165 Cl        1 <0>        -0.0501
     29 H1          1.7040    4.9031    0.0556 H         1 <0>         0.1468
     30 H2         -0.4464    6.0789   -0.1525 H         1 <0>         0.1450
     31 H3          1.7632    2.4523    0.2554 H         1 <0>         0.1450
     32 H4         -1.8394    2.4601   -2.4465 H         1 <0>         0.1694
     33 H5         -2.8589    1.6049   -4.5017 H         1 <0>         0.1688
     34 H6         -6.1009    0.1504    0.0642 H         1 <0>         0.2171
     35 H7         -8.0965    0.5691   -4.9351 H         1 <0>         0.1572
     36 H8         -9.9865   -0.7976   -4.1504 H         1 <0>         0.1548
     37 H9         -7.2812   -3.8884   -2.9877 H         1 <0>         0.1586
@<TRIPOS>BOND
     1    1    6 ar
     2    1    2 ar
     3    1   29 1
     4    2    3 ar
     5    2   30 1
     6    3    4 ar
     7    3   28 1
     8    4    5 ar
     9    4    8 1
    10    5    6 ar
    11    5    7 1
    12    6   31 1
    13    8   17 1
    14    8    9 2
    15    9   14 1
    16    9   10 1
    17   10   11 2
    18   10   32 1
    19   11   12 1
    20   11   33 1
    21   12   13 2
    22   12   19 1
    23   13   14 1
    24   14   15 1
    25   15   16 2
    26   15   34 1
    27   16   17 1
    28   17   18 2
    29   19   20 1
    30   20   25 ar
    31   20   21 ar
    32   21   22 ar
    33   21   35 1
    34   22   23 ar
    35   22   36 1
    36   23   24 ar
    37   23   27 1
    38   24   25 ar
    39   24   37 1
    40   25   26 1
@<TRIPOS>MOLECULE
ZINC01493878
   48    50     0     0     0
SMALL
USER_CHARGES

@<TRIPOS>ATOM
      1 C1         -1.0955   -5.0083   -6.9234 C.3       1 <0>         0.0847
      2 N1         -1.5520   -4.3038   -5.7228 N.am      1 <0>        -0.7137
      3 C2         -1.8827   -5.0004   -4.6175 C.2       1 <0>         0.5696
      4 O1         -1.8023   -6.2129   -4.6168 O.2       1 <0>        -0.5284
      5 C3         -2.3445   -4.2878   -3.4031 C.ar      1 <0>         0.1129
      6 C4         -2.6788   -5.0128   -2.2640 C.ar      1 <0>        -0.1883
      7 C5         -3.1110   -4.3279   -1.1310 C.ar      1 <0>         0.1595
      8 C6         -3.1903   -2.9389   -1.1877 C.ar      1 <0>        -0.1766
      9 C7         -2.8404   -2.2885   -2.3571 C.ar      1 <0>         0.1349
     10 N2         -2.4302   -2.9626   -3.4105 N.ar      1 <0>        -0.4815
     11 O2         -3.4471   -4.9979    0.0005 O.3       1 <0>        -0.2437
     12 C8         -3.4462   -6.3570   -0.0383 C.ar      1 <0>         0.0568
     13 C9         -2.2447   -7.0505   -0.0178 C.ar      1 <0>        -0.1074
     14 C10        -2.2431   -8.4307   -0.0577 C.ar      1 <0>        -0.1009
     15 C11        -3.4442   -9.1246   -0.1179 C.ar      1 <0>         0.1671
     16 C12        -4.6464   -8.4301   -0.1379 C.ar      1 <0>        -0.1272
     17 C13        -4.6469   -7.0500   -0.0928 C.ar      1 <0>        -0.0940
     18 N3         -3.4432  -10.5252   -0.1588 N.am      1 <0>        -0.6776
     19 C14        -2.5108  -11.2187    0.5239 C.2       1 <0>         0.7077
     20 O3         -1.6217  -10.6297    1.1080 O.2       1 <0>        -0.5493
     21 N4         -2.5639  -12.5649    0.5593 N.am      1 <0>        -0.6795
     22 C15        -1.6655  -13.2800    1.3600 C.ar      1 <0>         0.1700
     23 C16        -1.2529  -12.7583    2.5792 C.ar      1 <0>        -0.0742
     24 C17        -0.3670  -13.4659    3.3674 C.ar      1 <0>        -0.0871
     25 C18         0.1097  -14.6941    2.9434 C.ar      1 <0>        -0.0077
     26 C19        -0.2993  -15.2159    1.7290 C.ar      1 <0>        -0.1564
     27 C20        -1.1898  -14.5147    0.9394 C.ar      1 <0>        -0.0879
     28 C21         0.2222  -16.5533    1.2702 C.3       1 <0>         0.5112
     29 F1         -0.3299  -16.8663    0.0234 F         1 <0>        -0.1743
     30 F2          1.6160  -16.4983    1.1626 F         1 <0>        -0.1671
     31 F3         -0.1354  -17.5367    2.1987 F         1 <0>        -0.1677
     32 Cl1         1.2234  -15.5812    3.9366 Cl        1 <0>        -0.0394
     33 H1         -0.8760   -4.2843   -7.7081 H         1 <0>         0.0803
     34 H2         -0.1948   -5.5764   -6.6909 H         1 <0>         0.0631
     35 H3         -1.8761   -5.6883   -7.2645 H         1 <0>         0.0629
     36 H4         -1.6162   -3.3359   -5.7233 H         1 <0>         0.4141
     37 H5         -2.6047   -6.0902   -2.2584 H         1 <0>         0.1546
     38 H6         -3.5217   -2.3755   -0.3280 H         1 <0>         0.1523
     39 H7         -2.9005   -1.2112   -2.4052 H         1 <0>         0.1747
     40 H8         -1.3104   -6.5106    0.0290 H         1 <0>         0.1364
     41 H9         -1.3078   -8.9704   -0.0424 H         1 <0>         0.1514
     42 H10        -5.5809   -8.9693   -0.1851 H         1 <0>         0.1386
     43 H11        -5.5820   -6.5098   -0.1039 H         1 <0>         0.1400
     44 H12        -4.1137  -10.9957   -0.6785 H         1 <0>         0.4131
     45 H13        -3.2246  -13.0383    0.0299 H         1 <0>         0.4146
     46 H14        -1.6244  -11.7997    2.9103 H         1 <0>         0.1546
     47 H15        -0.0456  -13.0604    4.3154 H         1 <0>         0.1524
     48 H16        -1.5123  -14.9245   -0.0064 H         1 <0>         0.1525
@<TRIPOS>BOND
     1    1    2 1
     2    1   33 1
     3    1   34 1
     4    1   35 1
     5    2    3 am
     6    2   36 1
     7    3    4 2
     8    3    5 1
     9    5   10 ar
    10    5    6 ar
    11    6    7 ar
    12    6   37 1
    13    7    8 ar
    14    7   11 1
    15    8    9 ar
    16    8   38 1
    17    9   10 ar
    18    9   39 1
    19   11   12 1
    20   12   17 ar
    21   12   13 ar
    22   13   14 ar
    23   13   40 1
    24   14   15 ar
    25   14   41 1
    26   15   16 ar
    27   15   18 1
    28   16   17 ar
    29   16   42 1
    30   17   43 1
    31   18   19 am
    32   18   44 1
    33   19   20 2
    34   19   21 am
    35   21   22 1
    36   21   45 1
    37   22   27 ar
    38   22   23 ar
    39   23   24 ar
    40   23   46 1
    41   24   25 ar
    42   24   47 1
    43   25   26 ar
    44   25   32 1
    45   26   27 ar
    46   26   28 1
    47   27   48 1
    48   28   29 1
    49   28   30 1
    50   28   31 1
@<TRIPOS>MOLECULE
ZINC21982951
   60    63     0     0     0
SMALL
USER_CHARGES

@<TRIPOS>ATOM
      1 C1         -2.0700    1.6928    0.2333 C.3       1 <0>        -0.1170
      2 C2         -1.6482    0.2604    0.0301 C.ar      1 <0>        -0.0813
      3 C3         -1.8479   -0.3525   -1.1919 C.ar      1 <0>        -0.1034
      4 C4         -1.4615   -1.6665   -1.3798 C.ar      1 <0>        -0.0990
      5 C5         -0.8738   -2.3725   -0.3459 C.ar      1 <0>        -0.1046
      6 C6         -0.6714   -1.7660    0.8791 C.ar      1 <0>        -0.0220
      7 C7         -1.0534   -0.4428    1.0688 C.ar      1 <0>         0.1347
      8 N1         -0.8441    0.1769    2.3055 N.am      1 <0>        -0.6659
      9 C8         -1.2819   -0.4110    3.4365 C.2       1 <0>         0.6018
     10 O1         -1.7689   -1.5261    3.3939 O.2       1 <0>        -0.4722
     11 C9         -1.1720    0.2905    4.7149 C.2       1 <0>        -0.2635
     12 C10        -1.5472   -0.1201    5.9866 C.2       1 <0>         0.1512
     13 N2         -1.3262    0.7270    6.9599 N.2       1 <0>        -0.5510
     14 C11        -0.7756    1.9070    6.7361 C.2       1 <0>         0.2513
     15 S1         -0.5107    1.9100    5.0742 S.3       1 <0>         0.2445
     16 N3         -0.4817    2.8997    7.6498 N.pl3     1 <0>        -0.5870
     17 C12        -0.6908    2.6801    9.0050 C.ar      1 <0>         0.4543
     18 C13        -1.0534    1.4192    9.4679 C.ar      1 <0>        -0.2926
     19 C14        -1.2512    1.2508   10.8352 C.ar      1 <0>         0.4935
     20 N4         -1.0875    2.2952   11.6453 N.ar      1 <0>        -0.5328
     21 C15        -0.7435    3.4737   11.1677 C.ar      1 <0>         0.4541
     22 N5         -0.5417    3.6719    9.8809 N.ar      1 <0>        -0.5672
     23 C16        -0.5694    4.6273   12.1217 C.3       1 <0>        -0.1251
     24 N6         -1.6138    0.0143   11.3464 N.pl3     1 <0>        -0.5370
     25 C17        -2.0559   -0.1253   12.7422 C.3       1 <0>         0.1090
     26 C18        -3.3866   -0.8852   12.7576 C.3       1 <0>         0.0383
     27 N7         -3.2335   -2.1493   12.0251 N.3       1 <0>        -0.5289
     28 C19        -2.9165   -1.9105   10.6107 C.3       1 <0>         0.0343
     29 C20        -1.5725   -1.1917   10.5056 C.3       1 <0>         0.1057
     30 C21        -4.4334   -2.9856   12.1619 C.3       1 <0>         0.0545
     31 C22        -4.1483   -4.3816   11.6043 C.3       1 <0>         0.0776
     32 O2         -3.1500   -5.0191   12.4038 O.3       1 <0>        -0.5606
     33 Cl1         0.0658   -2.6526    2.1768 Cl        1 <0>        -0.0453
     34 H1         -1.2464    2.3553   -0.0328 H         1 <0>         0.0773
     35 H2         -2.9308    1.9112   -0.3987 H         1 <0>         0.0785
     36 H3         -2.3379    1.8478    1.2784 H         1 <0>         0.0640
     37 H4         -2.3069    0.1956   -2.0014 H         1 <0>         0.1372
     38 H5         -1.6193   -2.1430   -2.3361 H         1 <0>         0.1391
     39 H6         -0.5731   -3.3989   -0.4959 H         1 <0>         0.1403
     40 H7         -0.3838    1.0296    2.3489 H         1 <0>         0.4083
     41 H8         -1.9972   -1.0858    6.1634 H         1 <0>         0.2027
     42 H9         -0.1293    3.7505    7.3451 H         1 <0>         0.4460
     43 H10        -1.1784    0.5927    8.7841 H         1 <0>         0.2218
     44 H11         0.4644    4.6619   12.4652 H         1 <0>         0.1245
     45 H12        -0.8146    5.5596   11.6130 H         1 <0>         0.1071
     46 H13        -1.2322    4.4948   12.9768 H         1 <0>         0.1273
     47 H14        -1.3096   -0.6823   13.3087 H         1 <0>         0.0989
     48 H15        -2.1929    0.8619   13.1834 H         1 <0>         0.1094
     49 H16        -3.6740   -1.0944   13.7880 H         1 <0>         0.1036
     50 H17        -4.1569   -0.2794   12.2806 H         1 <0>         0.0428
     51 H18        -2.8631   -2.8634   10.0841 H         1 <0>         0.1043
     52 H19        -3.6935   -1.2904   10.1636 H         1 <0>         0.0450
     53 H20        -1.3900   -0.9091    9.4688 H         1 <0>         0.1029
     54 H21        -0.7788   -1.8532   10.8529 H         1 <0>         0.1042
     55 H22        -4.7041   -3.0633   13.2149 H         1 <0>         0.0912
     56 H23        -5.2561   -2.5340   11.6075 H         1 <0>         0.0533
     57 H24        -5.0627   -4.9745   11.6240 H         1 <0>         0.0547
     58 H25        -3.7921   -4.2970   10.5776 H         1 <0>         0.0454
     59 H26        -2.9188   -5.9101   12.1076 H         1 <0>         0.3805
     60 H27        -0.2852    4.5531    9.5669 H         1 <0>         0.4414
@<TRIPOS>BOND
     1    1    2 1
     2    1   34 1
     3    1   35 1
     4    1   36 1
     5    2    7 ar
     6    2    3 ar
     7    3    4 ar
     8    3   37 1
     9    4    5 ar
    10    4   38 1
    11    5    6 ar
    12    5   39 1
    13    6    7 ar
    14    6   33 1
    15    7    8 1
    16    8    9 am
    17    8   40 1
    18    9   10 2
    19    9   11 1
    20   11   15 1
    21   11   12 2
    22   12   13 1
    23   12   41 1
    24   13   14 2
    25   14   15 1
    26   14   16 1
    27   16   17 1
    28   16   42 1
    29   17   22 ar
    30   17   18 ar
    31   18   19 ar
    32   18   43 1
    33   19   20 ar
    34   19   24 1
    35   20   21 ar
    36   21   22 ar
    37   21   23 1
    38   22   60 1
    39   23   44 1
    40   23   45 1
    41   23   46 1
    42   24   29 1
    43   24   25 1
    44   25   26 1
    45   25   47 1
    46   25   48 1
    47   26   27 1
    48   26   49 1
    49   26   50 1
    50   27   28 1
    51   27   30 1
    52   28   29 1
    53   28   51 1
    54   28   52 1
    55   29   53 1
    56   29   54 1
    57   30   31 1
    58   30   55 1
    59   30   56 1
    60   31   32 1
    61   31   57 1
    62   31   58 1
    63   32   59 1
@<TRIPOS>MOLECULE
ZINC21982951
   60    63     0     0     0
SMALL
USER_CHARGES

@<TRIPOS>ATOM
      1 C1          3.2739    6.6585    1.8418 C.3       1 <0>        -0.1168
      2 C2          2.5810    7.9910    1.9663 C.ar      1 <0>        -0.0823
      3 C3          2.8983    9.0189    1.0995 C.ar      1 <0>        -0.1038
      4 C4          2.2635   10.2419    1.2126 C.ar      1 <0>        -0.1008
      5 C5          1.3088   10.4411    2.1933 C.ar      1 <0>        -0.1049
      6 C6          0.9869    9.4175    3.0639 C.ar      1 <0>        -0.0226
      7 C7          1.6192    8.1849    2.9486 C.ar      1 <0>         0.1373
      8 N1          1.2913    7.1440    3.8238 N.am      1 <0>        -0.6678
      9 C8          1.3128    7.3511    5.1554 C.2       1 <0>         0.6036
     10 O1          1.5184    8.4680    5.5945 O.2       1 <0>        -0.4759
     11 C9          1.0891    6.2346    6.0728 C.2       1 <0>        -0.2694
     12 C10         1.0619    6.2190    7.4604 C.2       1 <0>         0.1522
     13 N2          0.8357    5.0596    8.0247 N.2       1 <0>        -0.5060
     14 C11         0.6446    3.9678    7.3056 C.2       1 <0>         0.2464
     15 S1          0.7674    4.5141    5.7185 S.3       1 <0>         0.2029
     16 N3          0.3973    2.6842    7.7505 N.pl3     1 <0>        -0.5650
     17 C12         0.2197    2.4414    9.1063 C.ar      1 <0>         0.4999
     18 C13        -0.1342    1.1736    9.5555 C.ar      1 <0>        -0.3181
     19 C14        -0.3003    0.9817   10.9244 C.ar      1 <0>         0.4940
     20 N4         -0.1157    2.0114   11.7481 N.ar      1 <0>        -0.5712
     21 C15         0.2193    3.1978   11.2829 C.ar      1 <0>         0.4509
     22 N5          0.3911    3.4178    9.9956 N.ar      1 <0>        -0.4879
     23 C16         0.4179    4.3344   12.2523 C.3       1 <0>        -0.1253
     24 N6         -0.6531   -0.2629   11.4224 N.pl3     1 <0>        -0.5744
     25 C17        -0.9639   -0.4449   12.8484 C.3       1 <0>         0.1013
     26 C18        -2.3114   -1.1652   12.9649 C.3       1 <0>         0.0387
     27 N7         -2.2712   -2.4031   12.1749 N.3       1 <0>        -0.5277
     28 C19        -2.0835   -2.1176   10.7462 C.3       1 <0>         0.0305
     29 C20        -0.7325   -1.4351   10.5377 C.3       1 <0>         0.1149
     30 C21        -3.4796   -3.2085   12.3965 C.3       1 <0>         0.0543
     31 C22        -3.2958   -4.5889   11.7629 C.3       1 <0>         0.0774
     32 O2         -2.2472   -5.2869   12.4378 O.3       1 <0>        -0.5615
     33 Cl1        -0.2110    9.6681    4.2952 Cl        1 <0>        -0.0453
     34 H1          2.7121    6.0191    1.1609 H         1 <0>         0.0767
     35 H2          4.2810    6.8077    1.4524 H         1 <0>         0.0779
     36 H3          3.3298    6.1850    2.8220 H         1 <0>         0.0648
     37 H4          3.6435    8.8670    0.3327 H         1 <0>         0.1365
     38 H5          2.5139   11.0437    0.5337 H         1 <0>         0.1383
     39 H6          0.8148   11.3976    2.2790 H         1 <0>         0.1396
     40 H7          1.0484    6.2731    3.4723 H         1 <0>         0.4083
     41 H8          1.2191    7.1147    8.0430 H         1 <0>         0.1979
     42 H9          0.3477    1.9521    7.1161 H         1 <0>         0.4525
     43 H10        -0.2767    0.3593    8.8606 H         1 <0>         0.1835
     44 H11         1.4596    4.3615   12.5720 H         1 <0>         0.1250
     45 H12         0.1626    5.2758   11.7656 H         1 <0>         0.1301
     46 H13        -0.2249    4.1881   13.1203 H         1 <0>         0.1049
     47 H14        -0.1857   -1.0458   13.3190 H         1 <0>         0.1119
     48 H15        -1.0251    0.5276   13.3369 H         1 <0>         0.0843
     49 H16        -2.5057   -1.4068   14.0099 H         1 <0>         0.1076
     50 H17        -3.1034   -0.5184   12.5874 H         1 <0>         0.0465
     51 H18        -2.1124   -3.0499   10.1822 H         1 <0>         0.1076
     52 H19        -2.8786   -1.4576   10.3996 H         1 <0>         0.0467
     53 H20        -0.6409   -1.1170    9.4992 H         1 <0>         0.1034
     54 H21         0.0684   -2.1330   10.7819 H         1 <0>         0.1075
     55 H22        -3.6507   -3.3200   13.4672 H         1 <0>         0.0925
     56 H23        -4.3362   -2.7111   11.9416 H         1 <0>         0.0553
     57 H24        -4.2233   -5.1548   11.8494 H         1 <0>         0.0565
     58 H25        -3.0370   -4.4741   10.7103 H         1 <0>         0.0456
     59 H26        -2.0752   -6.1719   12.0881 H         1 <0>         0.3821
     60 H27        -0.2297    1.8867   12.7033 H         1 <0>         0.4392
@<TRIPOS>BOND
     1    1    2 1
     2    1   34 1
     3    1   35 1
     4    1   36 1
     5    2    7 ar
     6    2    3 ar
     7    3    4 ar
     8    3   37 1
     9    4    5 ar
    10    4   38 1
    11    5    6 ar
    12    5   39 1
    13    6    7 ar
    14    6   33 1
    15    7    8 1
    16    8    9 am
    17    8   40 1
    18    9   10 2
    19    9   11 1
    20   11   15 1
    21   11   12 2
    22   12   13 1
    23   12   41 1
    24   13   14 2
    25   14   15 1
    26   14   16 1
    27   16   17 1
    28   16   42 1
    29   17   18 ar
    30   17   22 ar
    31   18   43 1
    32   18   19 ar
    33   19   24 1
    34   19   20 ar
    35   20   60 1
    36   20   21 ar
    37   21   23 1
    38   21   22 ar
    39   23   44 1
    40   23   45 1
    41   23   46 1
    42   24   29 1
    43   24   25 1
    44   25   26 1
    45   25   47 1
    46   25   48 1
    47   26   27 1
    48   26   49 1
    49   26   50 1
    50   27   28 1
    51   27   30 1
    52   28   29 1
    53   28   51 1
    54   28   52 1
    55   29   53 1
    56   29   54 1
    57   30   31 1
    58   30   55 1
    59   30   56 1
    60   31   32 1
    61   31   57 1
    62   31   58 1
    63   32   59 1
@<TRIPOS>MOLECULE
ZINC21982951
   59    62     0     0     0
SMALL
USER_CHARGES

@<TRIPOS>ATOM
      1 C1          3.4106    6.6420    1.8847 C.3       1 <0>        -0.1165
      2 C2          2.6976    7.9659    1.9845 C.ar      1 <0>        -0.0852
      3 C3          3.0204    8.9921    1.1176 C.ar      1 <0>        -0.1055
      4 C4          2.3672   10.2073    1.2080 C.ar      1 <0>        -0.1070
      5 C5          1.3885   10.4004    2.1660 C.ar      1 <0>        -0.1064
      6 C6          1.0609    9.3785    3.0365 C.ar      1 <0>        -0.0243
      7 C7          1.7118    8.1536    2.9438 C.ar      1 <0>         0.1460
      8 N1          1.3783    7.1144    3.8189 N.am      1 <0>        -0.6734
      9 C8          1.3676    7.3308    5.1492 C.2       1 <0>         0.6131
     10 O1          1.5489    8.4533    5.5848 O.2       1 <0>        -0.4899
     11 C9          1.1384    6.2176    6.0693 C.2       1 <0>        -0.3092
     12 C10         1.0807    6.2111    7.4561 C.2       1 <0>         0.1722
     13 N2          0.8573    5.0526    8.0233 N.2       1 <0>        -0.5180
     14 C11         0.6966    3.9535    7.3079 C.2       1 <0>         0.3121
     15 S1          0.8472    4.4907    5.7202 S.3       1 <0>         0.1340
     16 N3          0.4564    2.6698    7.7563 N.pl3     1 <0>        -0.5904
     17 C12         0.2490    2.4343    9.1091 C.ar      1 <0>         0.4412
     18 C13        -0.1036    1.1661    9.5586 C.ar      1 <0>        -0.3412
     19 C14        -0.3003    0.9817   10.9244 C.ar      1 <0>         0.4686
     20 N4         -0.1450    2.0186   11.7452 N.ar      1 <0>        -0.5923
     21 C15         0.1898    3.2050   11.2799 C.ar      1 <0>         0.3946
     22 N5          0.3901    3.4182    9.9956 N.ar      1 <0>        -0.5459
     23 C16         0.3546    4.3498   12.2460 C.3       1 <0>        -0.0834
     24 N6         -0.6531   -0.2629   11.4224 N.pl3     1 <0>        -0.5966
     25 C17        -1.0693   -0.4249   12.8237 C.3       1 <0>         0.1300
     26 C18        -2.3993   -1.1856   12.8517 C.3       1 <0>         0.0401
     27 N7         -2.2595   -2.4378   12.0965 N.3       1 <0>        -0.5276
     28 C19        -1.9688   -2.1765   10.6804 C.3       1 <0>         0.0363
     29 C20        -0.6270   -1.4554   10.5619 C.3       1 <0>         0.1269
     30 C21        -3.4565   -3.2768   12.2420 C.3       1 <0>         0.0537
     31 C22        -3.1814   -4.6636   11.6572 C.3       1 <0>         0.0792
     32 O2         -2.1684   -5.3132   12.4279 O.3       1 <0>        -0.5589
     33 Cl1        -0.1672    9.6214    4.2392 Cl        1 <0>        -0.0433
     34 H1          2.8725    5.9906    1.1961 H         1 <0>         0.0754
     35 H2          4.4240    6.8020    1.5166 H         1 <0>         0.0754
     36 H3          3.4510    6.1760    2.8692 H         1 <0>         0.0676
     37 H4          3.7844    8.8450    0.3685 H         1 <0>         0.1337
     38 H5          2.6220   11.0077    0.5292 H         1 <0>         0.1350
     39 H6          0.8801   11.3508    2.2339 H         1 <0>         0.1371
     40 H7          1.1547    6.2381    3.4683 H         1 <0>         0.4085
     41 H8          1.2132    7.1127    8.0357 H         1 <0>         0.1884
     42 H9          0.4325    1.9325    7.1264 H         1 <0>         0.4387
     43 H10        -0.2220    0.3459    8.8660 H         1 <0>         0.1413
     44 H11         1.3882    4.3890   12.5900 H         1 <0>         0.0870
     45 H12         0.1021    5.2855   11.7470 H         1 <0>         0.0890
     46 H13        -0.3072    4.2031   13.0995 H         1 <0>         0.0846
     47 H14        -0.3126   -0.9904   13.3674 H         1 <0>         0.0744
     48 H15        -1.1984    0.5551   13.2831 H         1 <0>         0.1008
     49 H16        -2.6676   -1.4113   13.8837 H         1 <0>         0.0903
     50 H17        -3.1785   -0.5727   12.3986 H         1 <0>         0.0372
     51 H18        -1.9249   -3.1208   10.1378 H         1 <0>         0.0905
     52 H19        -2.7540   -1.5497   10.2576 H         1 <0>         0.0380
     53 H20        -0.4638   -1.1563    9.5265 H         1 <0>         0.0877
     54 H21         0.1731   -2.1219   10.8840 H         1 <0>         0.0802
     55 H22        -3.7077   -3.3713   13.2985 H         1 <0>         0.0861
     56 H23        -4.2894   -2.8169   11.7102 H         1 <0>         0.0487
     57 H24        -4.0952   -5.2572   11.6843 H         1 <0>         0.0498
     58 H25        -2.8443   -4.5626   10.6256 H         1 <0>         0.0451
     59 H26        -1.9426   -6.1994   12.1134 H         1 <0>         0.3762
@<TRIPOS>BOND
     1    1    2 1
     2    1   34 1
     3    1   35 1
     4    1   36 1
     5    2    7 ar
     6    2    3 ar
     7    3    4 ar
     8    3   37 1
     9    4    5 ar
    10    4   38 1
    11    5    6 ar
    12    5   39 1
    13    6    7 ar
    14    6   33 1
    15    7    8 1
    16    8    9 am
    17    8   40 1
    18    9   10 2
    19    9   11 1
    20   11   15 1
    21   11   12 2
    22   12   13 1
    23   12   41 1
    24   13   14 2
    25   14   15 1
    26   14   16 1
    27   16   17 1
    28   16   42 1
    29   17   18 ar
    30   17   22 ar
    31   18   43 1
    32   18   19 ar
    33   19   24 1
    34   19   20 ar
    35   20   21 ar
    36   21   23 1
    37   21   22 ar
    38   23   44 1
    39   23   45 1
    40   23   46 1
    41   24   29 1
    42   24   25 1
    43   25   26 1
    44   25   47 1
    45   25   48 1
    46   26   27 1
    47   26   49 1
    48   26   50 1
    49   27   28 1
    50   27   30 1
    51   28   29 1
    52   28   51 1
    53   28   52 1
    54   29   53 1
    55   29   54 1
    56   30   31 1
    57   30   55 1
    58   30   56 1
    59   31   32 1
    60   31   57 1
    61   31   58 1
    62   32   59 1
@<TRIPOS>MOLECULE
ZINC21982951
   61    64     0     0     0
SMALL
USER_CHARGES

@<TRIPOS>ATOM
      1 C1          3.2770    6.6581    1.8427 C.3       1 <0>        -0.1166
      2 C2          2.5837    7.9904    1.9667 C.ar      1 <0>        -0.0814
      3 C3          2.9012    9.0183    1.0999 C.ar      1 <0>        -0.1028
      4 C4          2.2660   10.2411    1.2125 C.ar      1 <0>        -0.0975
      5 C5          1.3108   10.4402    2.1928 C.ar      1 <0>        -0.1039
      6 C6          0.9888    9.4167    3.0634 C.ar      1 <0>        -0.0218
      7 C7          1.6215    8.1842    2.9485 C.ar      1 <0>         0.1327
      8 N1          1.2933    7.1433    3.8237 N.am      1 <0>        -0.6648
      9 C8          1.3141    7.3507    5.1552 C.2       1 <0>         0.5983
     10 O1          1.5193    8.4677    5.5943 O.2       1 <0>        -0.4690
     11 C9          1.0903    6.2342    6.0727 C.2       1 <0>        -0.2500
     12 C10         1.0624    6.2188    7.4604 C.2       1 <0>         0.1439
     13 N2          0.8362    5.0594    8.0246 N.2       1 <0>        -0.4984
     14 C11         0.6458    3.9675    7.3056 C.2       1 <0>         0.2172
     15 S1          0.7692    4.5136    5.7185 S.3       1 <0>         0.2242
     16 N3          0.3986    2.6839    7.7506 N.pl3     1 <0>        -0.5513
     17 C12         0.2203    2.4413    9.1063 C.ar      1 <0>         0.5098
     18 C13        -0.1335    1.1734    9.5556 C.ar      1 <0>        -0.3097
     19 C14        -0.3003    0.9817   10.9244 C.ar      1 <0>         0.4927
     20 N4         -0.1163    2.0116   11.7481 N.ar      1 <0>        -0.5695
     21 C15         0.2187    3.1980   11.2828 C.ar      1 <0>         0.4589
     22 N5          0.3911    3.4178    9.9956 N.ar      1 <0>        -0.4762
     23 C16         0.4165    4.3348   12.2521 C.3       1 <0>        -0.1303
     24 N6         -0.6531   -0.2629   11.4224 N.pl3     1 <0>        -0.6123
     25 C17        -0.9643   -0.4465   12.8484 C.3       1 <0>         0.0782
     26 C18        -2.3027   -1.1838   12.9625 C.3       1 <0>        -0.0204
     27 N7         -2.2406   -2.4311   12.1903 N.4       1 <0>        -0.3852
     28 C19        -2.0770   -2.1279   10.7629 C.3       1 <0>        -0.0304
     29 C20        -0.7330   -1.4363   10.5388 C.3       1 <0>         0.0932
     30 C21        -3.4827   -3.1900   12.3886 C.3       1 <0>        -0.0061
     31 C22        -3.3702   -4.5448   11.6865 C.3       1 <0>         0.0434
     32 O2         -2.3479   -5.3224   12.3128 O.3       1 <0>        -0.5819
     33 Cl1        -0.2098    9.6671    4.2940 Cl        1 <0>        -0.0466
     34 H1          2.7157    6.0184    1.1617 H         1 <0>         0.0770
     35 H2          4.2843    6.8074    1.4538 H         1 <0>         0.0791
     36 H3          3.3325    6.1847    2.8230 H         1 <0>         0.0631
     37 H4          3.6468    8.8665    0.3335 H         1 <0>         0.1380
     38 H5          2.5166   11.0428    0.5336 H         1 <0>         0.1401
     39 H6          0.8165   11.3966    2.2780 H         1 <0>         0.1410
     40 H7          1.0508    6.2723    3.4722 H         1 <0>         0.4077
     41 H8          1.2191    7.1146    8.0429 H         1 <0>         0.2016
     42 H9          0.3494    1.9517    7.1163 H         1 <0>         0.4545
     43 H10        -0.2756    0.3590    8.8607 H         1 <0>         0.1860
     44 H11         1.4581    4.3621   12.5724 H         1 <0>         0.1309
     45 H12         0.1613    5.2760   11.7653 H         1 <0>         0.1358
     46 H13        -0.2267    4.1885   13.1199 H         1 <0>         0.1083
     47 H14        -0.1795   -1.0367   13.3215 H         1 <0>         0.1249
     48 H15        -1.0392    0.5259   13.3352 H         1 <0>         0.1232
     49 H16        -2.5028   -1.4138   14.0090 H         1 <0>         0.1602
     50 H17        -3.0999   -0.5526   12.5701 H         1 <0>         0.1410
     51 H18        -2.1110   -3.0537   10.1885 H         1 <0>         0.1585
     52 H19        -2.8811   -1.4682   10.4370 H         1 <0>         0.1418
     53 H20        -0.6550   -1.1179    9.4992 H         1 <0>         0.1416
     54 H21         0.0756   -2.1281   10.7747 H         1 <0>         0.1211
     55 H22        -3.6469   -3.3459   13.4548 H         1 <0>         0.1465
     56 H23        -4.3202   -2.6321   11.9697 H         1 <0>         0.1464
     57 H24        -4.3221   -5.0710   11.7578 H         1 <0>         0.1026
     58 H25        -3.1180   -4.3904   10.6374 H         1 <0>         0.0719
     59 H26        -2.2211   -6.1961   11.9183 H         1 <0>         0.4154
     60 H27        -0.2308    1.8869   12.7032 H         1 <0>         0.4393
     61 H28        -1.4578   -2.9831   12.5075 H         1 <0>         0.4359
@<TRIPOS>BOND
     1    1    2 1
     2    1   34 1
     3    1   35 1
     4    1   36 1
     5    2    7 ar
     6    2    3 ar
     7    3    4 ar
     8    3   37 1
     9    4    5 ar
    10    4   38 1
    11    5    6 ar
    12    5   39 1
    13    6    7 ar
    14    6   33 1
    15    7    8 1
    16    8    9 am
    17    8   40 1
    18    9   10 2
    19    9   11 1
    20   11   15 1
    21   11   12 2
    22   12   13 1
    23   12   41 1
    24   13   14 2
    25   14   15 1
    26   14   16 1
    27   16   17 1
    28   16   42 1
    29   17   18 ar
    30   17   22 ar
    31   18   43 1
    32   18   19 ar
    33   19   24 1
    34   19   20 ar
    35   20   60 1
    36   20   21 ar
    37   21   23 1
    38   21   22 ar
    39   23   44 1
    40   23   45 1
    41   23   46 1
    42   24   29 1
    43   24   25 1
    44   25   26 1
    45   25   47 1
    46   25   48 1
    47   26   27 1
    48   26   49 1
    49   26   50 1
    50   27   28 1
    51   27   30 1
    52   27   61 1
    53   28   29 1
    54   28   51 1
    55   28   52 1
    56   29   53 1
    57   29   54 1
    58   30   31 1
    59   30   55 1
    60   30   56 1
    61   31   32 1
    62   31   57 1
    63   31   58 1
    64   32   59 1
@<TRIPOS>MOLECULE
ZINC03814434
   62    69     0     0     0
SMALL
USER_CHARGES

@<TRIPOS>ATOM
      1 C1         -0.1295    1.5952   -0.2973 C.3       1 <0>        -0.1687
      2 C2         -0.0862    0.0696   -0.1900 C.3       1 <0>         0.3342
      3 C3          0.5692   -0.4501   -1.4637 C.3       1 <0>         0.0405
      4 H1          1.4796    0.1159   -1.6612 H         1 <0>         0.1372
      5 C4          0.9167   -1.9328   -1.2889 C.3       1 <0>        -0.0061
      6 H2          1.3963   -2.3075   -2.1932 H         1 <0>         0.1555
      7 C5          1.8785   -2.0596   -0.1021 C.3       1 <0>        -0.1827
      8 C6          1.2061   -1.5198    1.1541 C.3       1 <0>         0.2999
      9 H3          1.9797   -1.4243    1.9161 H         1 <0>         0.1550
     10 O1          0.6555   -0.2442    0.9666 O.3       1 <0>        -0.3234
     11 N1          0.2189   -2.4746    1.6600 N.pl3     1 <0>        -0.5366
     12 C7          0.4705   -3.5508    2.4739 C.ar      1 <0>         0.1469
     13 C8          1.6649   -4.0152    3.0240 C.ar      1 <0>        -0.1522
     14 C9          1.5948   -5.1456    3.8201 C.ar      1 <0>        -0.0582
     15 C10         0.4006   -5.7997    4.0696 C.ar      1 <0>        -0.1457
     16 C11        -0.7984   -5.3597    3.5358 C.ar      1 <0>        -0.0280
     17 C12        -0.7487   -4.2198    2.7307 C.ar      1 <0>        -0.1131
     18 C13        -1.7893   -3.4830    2.0197 C.ar      1 <0>         0.0276
     19 C14        -1.1442   -2.4197    1.3841 C.ar      1 <0>         0.0376
     20 C15        -1.8806   -1.5095    0.6175 C.ar      1 <0>         0.0894
     21 N2         -1.4718   -0.3951   -0.1095 N.pl3     1 <0>        -0.5183
     22 C16        -2.5611    0.1913   -0.7090 C.ar      1 <0>         0.1618
     23 C17        -2.6521    1.3277   -1.5118 C.ar      1 <0>        -0.1305
     24 C18        -3.9109    1.6745   -1.9733 C.ar      1 <0>        -0.0737
     25 C19        -5.0393    0.9368   -1.6616 C.ar      1 <0>        -0.1358
     26 C20        -4.9745   -0.1955   -0.8662 C.ar      1 <0>        -0.0503
     27 C21        -3.7147   -0.5596   -0.3919 C.ar      1 <0>        -0.1042
     28 C22        -3.2693   -1.6660    0.4845 C.ar      1 <0>        -0.0360
     29 C23        -3.9084   -2.7313    1.1102 C.ar      1 <0>        -0.0288
     30 C24        -3.1873   -3.6421    1.8754 C.ar      1 <0>        -0.1255
     31 C25        -4.1221   -4.6480    2.4030 C.2       1 <0>         0.5632
     32 O2         -3.8062   -5.5851    3.1110 O.2       1 <0>        -0.5106
     33 N3         -5.3744   -4.3851    1.9926 N.am      1 <0>        -0.7162
     34 C26        -5.3495   -3.1771    1.1601 C.3       1 <0>         0.1358
     35 N4         -0.3067   -2.7008   -1.0216 N.4       1 <0>        -0.5252
     36 C27         0.0145   -4.1336   -0.9773 C.3       1 <0>        -0.0497
     37 O3         -0.3340   -0.2979   -2.5607 O.3       1 <0>        -0.3614
     38 C28         0.3101   -0.0933   -3.8198 C.3       1 <0>         0.0162
     39 H4          0.8261    2.0094    0.0240 H         1 <0>         0.0984
     40 H5         -0.3202    1.8814   -1.3317 H         1 <0>         0.1036
     41 H6         -0.9255    1.9818    0.3392 H         1 <0>         0.0921
     42 H7          2.1370   -3.1081    0.0458 H         1 <0>         0.1233
     43 H8          2.7835   -1.4869   -0.3048 H         1 <0>         0.1455
     44 H9          2.6036   -3.5149    2.8368 H         1 <0>         0.1365
     45 H10         2.5026   -5.5304    4.2610 H         1 <0>         0.1359
     46 H11         0.4045   -6.6780    4.6980 H         1 <0>         0.1352
     47 H12        -1.7278   -5.8736    3.7323 H         1 <0>         0.1600
     48 H13        -1.7792    1.9122   -1.7624 H         1 <0>         0.1440
     49 H14        -4.0153    2.5500   -2.5970 H         1 <0>         0.1336
     50 H15        -5.9967    1.2527   -2.0488 H         1 <0>         0.1332
     51 H16        -5.8575   -0.7687   -0.6249 H         1 <0>         0.1415
     52 H17        -6.1628   -4.9065    2.2103 H         1 <0>         0.4348
     53 H18        -5.9671   -2.3994    1.6094 H         1 <0>         0.1115
     54 H19        -5.7060   -3.4063    0.1559 H         1 <0>         0.1103
     55 H20        -0.6958   -2.4158   -0.1353 H         1 <0>         0.4186
     56 H21         0.4349   -4.4415   -1.9347 H         1 <0>         0.1256
     57 H22         0.7403   -4.3189   -0.1854 H         1 <0>         0.1191
     58 H23        -0.8932   -4.7035   -0.7789 H         1 <0>         0.1256
     59 H24         0.9168    0.8112   -3.7748 H         1 <0>         0.0633
     60 H25         0.9482   -0.9479   -4.0446 H         1 <0>         0.0514
     61 H26        -0.4433    0.0130   -4.6003 H         1 <0>         0.1100
     62 H27        -0.9785   -2.5293   -1.7546 H         1 <0>         0.4274
@<TRIPOS>BOND
     1    1    2 1
     2    1   39 1
     3    1   40 1
     4    1   41 1
     5    2   10 1
     6    2   21 1
     7    2    3 1
     8    3    4 1
     9    3    5 1
    10    3   37 1
    11    5    6 1
    12    5    7 1
    13    5   35 1
    14    7    8 1
    15    7   42 1
    16    7   43 1
    17    8    9 1
    18    8   10 1
    19    8   11 1
    20   11   19 1
    21   11   12 1
    22   12   17 ar
    23   12   13 ar
    24   13   14 ar
    25   13   44 1
    26   14   15 ar
    27   14   45 1
    28   15   16 ar
    29   15   46 1
    30   16   17 ar
    31   16   47 1
    32   17   18 1
    33   18   30 ar
    34   18   19 ar
    35   19   20 ar
    36   20   28 ar
    37   20   21 1
    38   21   22 1
    39   22   27 ar
    40   22   23 ar
    41   23   24 ar
    42   23   48 1
    43   24   25 ar
    44   24   49 1
    45   25   26 ar
    46   25   50 1
    47   26   27 ar
    48   26   51 1
    49   27   28 1
    50   28   29 ar
    51   29   34 1
    52   29   30 ar
    53   30   31 1
    54   31   32 2
    55   31   33 am
    56   33   34 1
    57   33   52 1
    58   34   53 1
    59   34   54 1
    60   35   36 1
    61   35   55 1
    62   35   62 1
    63   36   56 1
    64   36   57 1
    65   36   58 1
    66   37   38 1
    67   38   59 1
    68   38   60 1
    69   38   61 1
@<TRIPOS>MOLECULE
ZINC00598626
   42    45     0     0     0
SMALL
USER_CHARGES

@<TRIPOS>ATOM
      1 C1         -0.0417    1.7893   -0.5853 C.3       1 <0>        -0.1469
      2 S1         -0.0337   -0.0217   -0.6900 S.3       1 <0>        -0.1088
      3 C2         -1.7286   -0.4668   -0.5054 C.ar      1 <0>        -0.0711
      4 C3         -2.6920    0.5230   -0.3352 C.ar      1 <0>        -0.1322
      5 C4         -4.0173    0.1780   -0.1907 C.ar      1 <0>        -0.0512
      6 C5         -4.3944   -1.1669   -0.2156 C.ar      1 <0>        -0.0283
      7 C6         -3.4251   -2.1583   -0.3871 C.ar      1 <0>        -0.0875
      8 C7         -2.1019   -1.8072   -0.5359 C.ar      1 <0>        -0.0959
      9 C8         -5.8150   -1.5401   -0.0604 C.2       1 <0>         0.2718
     10 N1         -6.3029   -2.8144   -0.0623 N.pl3     1 <0>        -0.5512
     11 H1         -5.7861   -3.6289   -0.1646 H         1 <0>         0.4246
     12 C9         -7.6676   -2.7271    0.1082 C.2       1 <0>         0.0281
     13 C10        -7.9630   -1.3777    0.2093 C.2       1 <0>         0.0812
     14 N2         -6.8103   -0.6977    0.1074 N.2       1 <0>        -0.4568
     15 C11        -9.3096   -0.7903    0.4019 C.ar      1 <0>        -0.0195
     16 C12       -10.1978   -1.3607    1.3132 C.ar      1 <0>        -0.0698
     17 C13       -11.4504   -0.8102    1.4890 C.ar      1 <0>        -0.1512
     18 C14       -11.8268    0.3073    0.7613 C.ar      1 <0>         0.1049
     19 C15       -10.9480    0.8774   -0.1457 C.ar      1 <0>        -0.1528
     20 C16        -9.6908    0.3381   -0.3236 C.ar      1 <0>        -0.0605
     21 F1        -13.0548    0.8426    0.9365 F         1 <0>        -0.1375
     22 C17        -8.6238   -3.8479    0.1700 C.ar      1 <0>         0.0251
     23 C18        -9.8070   -3.8283   -0.5817 C.ar      1 <0>        -0.1433
     24 C19       -10.6718   -4.8977   -0.4936 C.ar      1 <0>         0.1077
     25 N3        -10.3986   -5.9287    0.2843 N.ar      1 <0>        -0.4795
     26 C20        -9.2966   -5.9881    1.0087 C.ar      1 <0>         0.1065
     27 C21        -8.3727   -4.9660    0.9777 C.ar      1 <0>        -0.1658
     28 H2          0.9765    2.1638   -0.6901 H         1 <0>         0.1122
     29 H3         -0.6626    2.1966   -1.3833 H         1 <0>         0.0868
     30 H4         -0.4440    2.0956    0.3803 H         1 <0>         0.0868
     31 H5         -2.3999    1.5625   -0.3161 H         1 <0>         0.1318
     32 H6         -4.7645    0.9465   -0.0579 H         1 <0>         0.1427
     33 H7         -3.7137   -3.1989   -0.4063 H         1 <0>         0.1241
     34 H8         -1.3526   -2.5729   -0.6723 H         1 <0>         0.1354
     35 H9         -9.9056   -2.2322    1.8803 H         1 <0>         0.1288
     36 H10       -12.1390   -1.2512    2.1945 H         1 <0>         0.1384
     37 H11       -11.2460    1.7481   -0.7108 H         1 <0>         0.1395
     38 H12        -9.0046    0.7862   -1.0270 H         1 <0>         0.1374
     39 H13       -10.0374   -2.9879   -1.2198 H         1 <0>         0.1395
     40 H14       -11.5859   -4.8922   -1.0687 H         1 <0>         0.1619
     41 H15        -9.1147   -6.8516    1.6314 H         1 <0>         0.1604
     42 H16        -7.4713   -5.0234    1.5698 H         1 <0>         0.1341
@<TRIPOS>BOND
     1    1    2 1
     2    1   28 1
     3    1   29 1
     4    1   30 1
     5    2    3 1
     6    3    8 ar
     7    3    4 ar
     8    4    5 ar
     9    4   31 1
    10    5    6 ar
    11    5   32 1
    12    6    7 ar
    13    6    9 1
    14    7    8 ar
    15    7   33 1
    16    8   34 1
    17    9   14 2
    18    9   10 1
    19   10   11 1
    20   10   12 1
    21   12   13 2
    22   12   22 1
    23   13   14 1
    24   13   15 1
    25   15   20 ar
    26   15   16 ar
    27   16   17 ar
    28   16   35 1
    29   17   18 ar
    30   17   36 1
    31   18   19 ar
    32   18   21 1
    33   19   20 ar
    34   19   37 1
    35   20   38 1
    36   22   27 ar
    37   22   23 ar
    38   23   24 ar
    39   23   39 1
    40   24   25 ar
    41   24   40 1
    42   25   26 ar
    43   26   27 ar
    44   26   41 1
    45   27   42 1
@<TRIPOS>MOLECULE
ZINC08536493
   41    44     0     0     0
SMALL
USER_CHARGES

@<TRIPOS>ATOM
      1 C1         -0.0079    1.3561    0.4129 C.ar      1 <0>        -0.0129
      2 C2          1.1782    2.0448    0.5411 C.ar      1 <0>        -0.1931
      3 C3          2.3882    1.3592    0.5177 C.ar      1 <0>         0.2775
      4 C4          2.4048   -0.0233    0.3653 C.ar      1 <0>        -0.1922
      5 C5          1.2221   -0.7177    0.2370 C.ar      1 <0>        -0.0156
      6 C6          0.0054   -0.0321    0.2597 C.ar      1 <0>        -0.1720
      7 C7         -1.2648   -0.7738    0.1224 C.cat     1 <0>         0.4164
      8 N1         -2.5101   -0.2166    0.1241 N.pl3     1 <0>        -0.5153
      9 H1         -2.7192    0.7263    0.2146 H         1 <0>         0.4618
     10 C8         -3.4153   -1.2445   -0.0276 C.2       1 <0>         0.1113
     11 C9         -2.6717   -2.4095   -0.1174 C.2       1 <0>         0.1070
     12 N2         -1.3749   -2.0752   -0.0265 N.pl3     1 <0>        -0.4811
     13 C10        -3.2108   -3.7790   -0.2885 C.ar      1 <0>        -0.0834
     14 C11        -4.1843   -4.0319   -1.2545 C.ar      1 <0>        -0.0440
     15 C12        -4.6833   -5.3085   -1.4099 C.ar      1 <0>        -0.1472
     16 C13        -4.2187   -6.3388   -0.6082 C.ar      1 <0>         0.1406
     17 C14        -3.2515   -6.0925    0.3530 C.ar      1 <0>        -0.1480
     18 C15        -2.7422   -4.8203    0.5121 C.ar      1 <0>        -0.0613
     19 F1         -4.7106   -7.5874   -0.7639 F         1 <0>        -0.1219
     20 C16        -4.8842   -1.1274   -0.0828 C.ar      1 <0>        -0.0164
     21 C17        -5.7038   -1.9725    0.6784 C.ar      1 <0>        -0.1305
     22 C18        -7.0718   -1.8273    0.5961 C.ar      1 <0>         0.1162
     23 N3         -7.6108   -0.9098   -0.1850 N.ar      1 <0>        -0.4597
     24 C19        -6.8767   -0.0937   -0.9183 C.ar      1 <0>         0.1155
     25 C20        -5.5005   -0.1640   -0.8936 C.ar      1 <0>        -0.1494
     26 N4          3.5870    2.0593    0.6468 N.pl3     1 <0>        -0.8472
     27 H2         -0.9473    1.8886    0.4352 H         1 <0>         0.1311
     28 H3          1.1685    3.1183    0.6595 H         1 <0>         0.1440
     29 H4          3.3459   -0.5527    0.3471 H         1 <0>         0.1443
     30 H5          1.2357   -1.7911    0.1184 H         1 <0>         0.1312
     31 H6         -4.5473   -3.2294   -1.8796 H         1 <0>         0.1396
     32 H7         -5.4375   -5.5053   -2.1575 H         1 <0>         0.1517
     33 H8         -2.8927   -6.8986    0.9757 H         1 <0>         0.1517
     34 H9         -1.9849   -4.6303    1.2583 H         1 <0>         0.1388
     35 H10        -5.2699   -2.7259    1.3191 H         1 <0>         0.1452
     36 H11        -7.7119   -2.4735    1.1786 H         1 <0>         0.1709
     37 H12        -7.3612    0.6419   -1.5432 H         1 <0>         0.1703
     38 H13        -4.9062    0.5100   -1.4927 H         1 <0>         0.1417
     39 H14         3.5766    3.0234    0.7528 H         1 <0>         0.4117
     40 H15         4.4314    1.5822    0.6306 H         1 <0>         0.4117
     41 H16        -0.6328   -2.6987   -0.0629 H         1 <0>         0.4608
@<TRIPOS>BOND
     1    1    6 ar
     2    1    2 ar
     3    1   27 1
     4    2    3 ar
     5    2   28 1
     6    3    4 ar
     7    3   26 1
     8    4    5 ar
     9    4   29 1
    10    5    6 ar
    11    5   30 1
    12    6    7 1
    13    7   12 2
    14    7    8 1
    15    8    9 1
    16    8   10 1
    17   10   11 2
    18   10   20 1
    19   11   12 1
    20   11   13 1
    21   12   41 1
    22   13   18 ar
    23   13   14 ar
    24   14   15 ar
    25   14   31 1
    26   15   16 ar
    27   15   32 1
    28   16   17 ar
    29   16   19 1
    30   17   18 ar
    31   17   33 1
    32   18   34 1
    33   20   25 ar
    34   20   21 ar
    35   21   22 ar
    36   21   35 1
    37   22   23 ar
    38   22   36 1
    39   23   24 ar
    40   24   25 ar
    41   24   37 1
    42   25   38 1
    43   26   39 1
    44   26   40 1
@<TRIPOS>MOLECULE
ZINC08536493
   40    43     0     0     0
SMALL
USER_CHARGES

@<TRIPOS>ATOM
      1 C1         -0.0188    1.3841   -0.2168 C.ar      1 <0>        -0.0195
      2 C2          1.1596    2.0832   -0.3581 C.ar      1 <0>        -0.1985
      3 C3          2.3583    1.4001   -0.5350 C.ar      1 <0>         0.2332
      4 C4          2.3713    0.0096   -0.5694 C.ar      1 <0>        -0.1972
      5 C5          1.1963   -0.6953   -0.4282 C.ar      1 <0>        -0.0543
      6 C6         -0.0091   -0.0122   -0.2509 C.ar      1 <0>        -0.0892
      7 C7         -1.2710   -0.7651   -0.0991 C.2       1 <0>         0.2885
      8 N1         -1.3872   -2.1245   -0.1099 N.pl3     1 <0>        -0.5554
      9 H1         -0.6653   -2.7634   -0.2175 H         1 <0>         0.4228
     10 C8         -2.7223   -2.4194    0.0611 C.2       1 <0>         0.0177
     11 C9         -3.3794   -1.2053    0.1714 C.2       1 <0>         0.0813
     12 N2         -2.4602   -0.2322    0.0735 N.2       1 <0>        -0.4660
     13 C10        -4.8357   -1.0148    0.3678 C.ar      1 <0>        -0.0172
     14 C11        -5.5297   -1.8147    1.2750 C.ar      1 <0>        -0.0706
     15 C12        -6.8855   -1.6336    1.4544 C.ar      1 <0>        -0.1514
     16 C13        -7.5576   -0.6587    0.7348 C.ar      1 <0>         0.1033
     17 C14        -6.8724    0.1386   -0.1679 C.ar      1 <0>        -0.1529
     18 C15        -5.5155   -0.0311   -0.3499 C.ar      1 <0>        -0.0611
     19 F1         -8.8855   -0.4854    0.9134 F         1 <0>        -0.1382
     20 C16        -3.3308   -3.7616    0.1153 C.ar      1 <0>         0.0289
     21 C17        -4.4745   -4.0654   -0.6364 C.ar      1 <0>        -0.1448
     22 C18        -5.0093   -5.3330   -0.5555 C.ar      1 <0>         0.1071
     23 N3         -4.4600   -6.2530    0.2156 N.ar      1 <0>        -0.4812
     24 C19        -3.3834   -6.0097    0.9397 C.ar      1 <0>         0.1059
     25 C20        -2.7786   -4.7716    0.9156 C.ar      1 <0>        -0.1673
     26 N4          3.5492    2.1106   -0.6787 N.pl3     1 <0>        -0.8715
     27 H2         -0.9486    1.9149   -0.0753 H         1 <0>         0.1381
     28 H3          1.1528    3.1628   -0.3318 H         1 <0>         0.1283
     29 H4          3.3035   -0.5180   -0.7073 H         1 <0>         0.1262
     30 H5          1.2069   -1.7749   -0.4554 H         1 <0>         0.1168
     31 H6         -5.0067   -2.5751    1.8361 H         1 <0>         0.1285
     32 H7         -7.4239   -2.2529    2.1565 H         1 <0>         0.1377
     33 H8         -7.4007    0.8969   -0.7267 H         1 <0>         0.1390
     34 H9         -4.9814    0.5941   -1.0501 H         1 <0>         0.1375
     35 H10        -4.9296   -3.3176   -1.2689 H         1 <0>         0.1390
     36 H11        -5.8902   -5.5770   -1.1307 H         1 <0>         0.1612
     37 H12        -2.9685   -6.7931    1.5567 H         1 <0>         0.1595
     38 H13        -1.8953   -4.5811    1.5070 H         1 <0>         0.1335
     39 H14         3.5413    3.0803   -0.6552 H         1 <0>         0.4016
     40 H15         4.3857    1.6352   -0.8021 H         1 <0>         0.4006
@<TRIPOS>BOND
     1    1    6 ar
     2    1    2 ar
     3    1   27 1
     4    2    3 ar
     5    2   28 1
     6    3    4 ar
     7    3   26 1
     8    4    5 ar
     9    4   29 1
    10    5    6 ar
    11    5   30 1
    12    6    7 1
    13    7   12 2
    14    7    8 1
    15    8    9 1
    16    8   10 1
    17   10   11 2
    18   10   20 1
    19   11   12 1
    20   11   13 1
    21   13   18 ar
    22   13   14 ar
    23   14   15 ar
    24   14   31 1
    25   15   16 ar
    26   15   32 1
    27   16   17 ar
    28   16   19 1
    29   17   18 ar
    30   17   33 1
    31   18   34 1
    32   20   25 ar
    33   20   21 ar
    34   21   22 ar
    35   21   35 1
    36   22   23 ar
    37   22   36 1
    38   23   24 ar
    39   24   25 ar
    40   24   37 1
    41   25   38 1
    42   26   39 1
    43   26   40 1
@<TRIPOS>MOLECULE
ZINC08536493
   40    43     0     0     0
SMALL
USER_CHARGES

@<TRIPOS>ATOM
      1 C1         -0.0258    1.3856   -0.2606 C.ar      1 <0>        -0.0205
      2 C2          1.1509    2.0854   -0.4136 C.ar      1 <0>        -0.1981
      3 C3          2.3512    1.4027   -0.5801 C.ar      1 <0>         0.2326
      4 C4          2.3676    0.0120   -0.5928 C.ar      1 <0>        -0.1970
      5 C5          1.1943   -0.6936   -0.4409 C.ar      1 <0>        -0.0548
      6 C6         -0.0126   -0.0110   -0.2730 C.ar      1 <0>        -0.0878
      7 C7         -1.2727   -0.7646   -0.1087 C.2       1 <0>         0.2841
      8 N1         -1.3857   -2.1260   -0.0982 N.pl3     1 <0>        -0.5569
      9 H1         -0.6621   -2.7646   -0.1961 H         1 <0>         0.4231
     10 C8         -2.7174   -2.4218    0.0775 C.2       1 <0>         0.0396
     11 C9         -3.3790   -1.2086    0.1693 C.2       1 <0>         0.0607
     12 N2         -2.4622   -0.2327    0.0562 N.2       1 <0>        -0.4616
     13 C10        -4.8347   -1.0205    0.3630 C.ar      1 <0>         0.0429
     14 C11        -5.5481   -1.8143    1.2683 C.ar      1 <0>        -0.1558
     15 C12        -6.9028   -1.6054    1.4174 C.ar      1 <0>         0.1009
     16 N3         -7.5254   -0.6731    0.7211 N.ar      1 <0>        -0.4849
     17 C13        -6.8906    0.0969   -0.1426 C.ar      1 <0>         0.0997
     18 C14        -5.5343   -0.0402   -0.3498 C.ar      1 <0>        -0.1475
     19 C15        -3.3218   -3.7663    0.1528 C.ar      1 <0>        -0.0335
     20 C16        -4.4618   -4.0656   -0.5971 C.ar      1 <0>        -0.0589
     21 C17        -5.0218   -5.3234   -0.5230 C.ar      1 <0>        -0.1470
     22 C18        -4.4557   -6.2900    0.2934 C.ar      1 <0>         0.1090
     23 C19        -3.3249   -5.9987    1.0401 C.ar      1 <0>        -0.1492
     24 C20        -2.7527   -4.7462    0.9698 C.ar      1 <0>        -0.0791
     25 F1         -5.0087   -7.5207    0.3620 F         1 <0>        -0.1349
     26 N4          3.5405    2.1140   -0.7351 N.pl3     1 <0>        -0.8718
     27 H2         -0.9569    1.9162   -0.1269 H         1 <0>         0.1377
     28 H3          1.1413    3.1653   -0.4045 H         1 <0>         0.1282
     29 H4          3.3012   -0.5153   -0.7223 H         1 <0>         0.1261
     30 H5          1.2076   -1.7735   -0.4512 H         1 <0>         0.1170
     31 H6         -5.0451   -2.5794    1.8411 H         1 <0>         0.1325
     32 H7         -7.4621   -2.2132    2.1133 H         1 <0>         0.1567
     33 H8         -7.4400    0.8476   -0.6912 H         1 <0>         0.1579
     34 H9         -5.0203    0.5964   -1.0548 H         1 <0>         0.1382
     35 H10        -4.9039   -3.3131   -1.2333 H         1 <0>         0.1352
     36 H11        -5.9033   -5.5559   -1.1020 H         1 <0>         0.1421
     37 H12        -2.8887   -6.7556    1.6751 H         1 <0>         0.1409
     38 H13        -1.8688   -4.5218    1.5484 H         1 <0>         0.1324
     39 H14         3.5301    3.0839   -0.7267 H         1 <0>         0.4015
     40 H15         4.3781    1.6389   -0.8514 H         1 <0>         0.4005
@<TRIPOS>BOND
     1    1    6 ar
     2    1    2 ar
     3    1   27 1
     4    2    3 ar
     5    2   28 1
     6    3    4 ar
     7    3   26 1
     8    4    5 ar
     9    4   29 1
    10    5    6 ar
    11    5   30 1
    12    6    7 1
    13    7   12 2
    14    7    8 1
    15    8    9 1
    16    8   10 1
    17   10   11 2
    18   10   19 1
    19   11   12 1
    20   11   13 1
    21   13   18 ar
    22   13   14 ar
    23   14   15 ar
    24   14   31 1
    25   15   16 ar
    26   15   32 1
    27   16   17 ar
    28   17   18 ar
    29   17   33 1
    30   18   34 1
    31   19   24 ar
    32   19   20 ar
    33   20   21 ar
    34   20   35 1
    35   21   22 ar
    36   21   36 1
    37   22   23 ar
    38   22   25 1
    39   23   24 ar
    40   23   37 1
    41   24   38 1
    42   26   39 1
    43   26   40 1
@<TRIPOS>MOLECULE
ZINC14951176
   39    42     0     0     0
SMALL
USER_CHARGES

@<TRIPOS>ATOM
      1 C1          0.2405    1.0255    0.8302 C.ar      1 <0>        -0.0645
      2 C2          1.4224    1.7334    0.7710 C.ar      1 <0>        -0.1488
      3 C3          2.3671    1.4303   -0.1967 C.ar      1 <0>         0.1270
      4 C4          2.1300    0.4154   -1.1103 C.ar      1 <0>        -0.1484
      5 C5          0.9516   -0.2992   -1.0607 C.ar      1 <0>        -0.0503
      6 C6         -0.0037    0.0016   -0.0874 C.ar      1 <0>        -0.0633
      7 C7         -1.2678   -0.7602   -0.0291 C.2       1 <0>         0.1046
      8 C8         -1.3961   -2.1162   -0.0863 C.2       1 <0>         0.0796
      9 N1         -2.7456   -2.4073    0.0017 N.pl3     1 <0>        -0.5519
     10 C9         -3.4195   -1.2472    0.1100 C.2       1 <0>         0.4661
     11 C10        -4.8730   -1.1131    0.2269 C.2       1 <0>        -0.2712
     12 C11        -5.4545    0.1603    0.3285 C.2       1 <0>        -0.0131
     13 C12        -6.8063    0.2847    0.4372 C.2       1 <0>        -0.2432
     14 C13        -7.6177   -0.8599    0.4477 C.2       1 <0>         0.3274
     15 O1         -8.9418   -0.7377    0.5542 O.2       1 <0>        -0.6199
     16 C14        -7.0368   -2.1329    0.3456 C.2       1 <0>        -0.2432
     17 C15        -5.6854   -2.2577    0.2315 C.2       1 <0>        -0.0132
     18 N2         -2.5363   -0.2302    0.0993 N.pl3     1 <0>        -0.5537
     19 C16        -0.2980   -3.0933   -0.2185 C.ar      1 <0>         0.0029
     20 C17         0.8460   -3.0046    0.5859 C.ar      1 <0>        -0.1375
     21 C18         1.8471   -3.9391    0.4288 C.ar      1 <0>         0.1110
     22 N3          1.7384   -4.9058   -0.4634 N.ar      1 <0>        -0.4697
     23 C19         0.6787   -5.0262   -1.2411 C.ar      1 <0>         0.1111
     24 C20        -0.3725   -4.1394   -1.1479 C.ar      1 <0>        -0.1541
     25 F1          3.5233    2.1271   -0.2501 F         1 <0>        -0.1285
     26 H1         -0.4930    1.2596    1.5875 H         1 <0>         0.1388
     27 H2          1.6122    2.5258    1.4800 H         1 <0>         0.1474
     28 H3          2.8693    0.1839   -1.8628 H         1 <0>         0.1469
     29 H4          0.7677   -1.0896   -1.7733 H         1 <0>         0.1375
     30 H5         -3.1383   -3.2941   -0.0126 H         1 <0>         0.4530
     31 H6         -4.8300    1.0414    0.3209 H         1 <0>         0.1049
     32 H7         -7.2538    1.2645    0.5158 H         1 <0>         0.1221
     33 H8         -7.6616   -3.0138    0.3533 H         1 <0>         0.1221
     34 H9         -5.2386   -3.2374    0.1489 H         1 <0>         0.1046
     35 H10        -2.7542    0.7126    0.1673 H         1 <0>         0.4532
     36 H11         0.9421   -2.2159    1.3174 H         1 <0>         0.1420
     37 H12         2.7328   -3.8793    1.0439 H         1 <0>         0.1658
     38 H13         0.6328   -5.8333   -1.9573 H         1 <0>         0.1659
     39 H14        -1.2383   -4.2467   -1.7845 H         1 <0>         0.1405
@<TRIPOS>BOND
     1    1    6 ar
     2    1    2 ar
     3    1   26 1
     4    2    3 ar
     5    2   27 1
     6    3    4 ar
     7    3   25 1
     8    4    5 ar
     9    4   28 1
    10    5    6 ar
    11    5   29 1
    12    6    7 1
    13    7   18 1
    14    7    8 2
    15    8    9 1
    16    8   19 1
    17    9   10 1
    18    9   30 1
    19   10   11 2
    20   10   18 1
    21   11   17 1
    22   11   12 1
    23   12   13 2
    24   12   31 1
    25   13   14 1
    26   13   32 1
    27   14   15 2
    28   14   16 1
    29   16   17 2
    30   16   33 1
    31   17   34 1
    32   18   35 1
    33   19   24 ar
    34   19   20 ar
    35   20   21 ar
    36   20   36 1
    37   21   22 ar
    38   21   37 1
    39   22   23 ar
    40   23   24 ar
    41   23   38 1
    42   24   39 1
@<TRIPOS>MOLECULE
ZINC14951176
   40    43     0     0     0
SMALL
USER_CHARGES

@<TRIPOS>ATOM
      1 C1          0.2405    1.0255    0.8302 C.ar      1 <0>        -0.0528
      2 C2          1.4224    1.7334    0.7710 C.ar      1 <0>        -0.1439
      3 C3          2.3671    1.4303   -0.1967 C.ar      1 <0>         0.1411
      4 C4          2.1300    0.4154   -1.1103 C.ar      1 <0>        -0.1508
      5 C5          0.9516   -0.2992   -1.0607 C.ar      1 <0>        -0.0597
      6 C6         -0.0037    0.0016   -0.0874 C.ar      1 <0>        -0.0905
      7 C7         -1.2678   -0.7602   -0.0291 C.2       1 <0>         0.1717
      8 C8         -1.3961   -2.1162   -0.0863 C.2       1 <0>         0.0049
      9 N1         -2.7456   -2.4073    0.0017 N.pl3     1 <0>        -0.5619
     10 C9         -3.4195   -1.2472    0.1100 C.2       1 <0>         0.4672
     11 C10        -4.8730   -1.1131    0.2269 C.2       1 <0>        -0.2599
     12 C11        -5.6849   -2.2580    0.2378 C.2       1 <0>        -0.0193
     13 C12        -7.0367   -2.1330    0.3465 C.2       1 <0>        -0.2271
     14 C13        -7.6177   -0.8599    0.4475 C.2       1 <0>         0.3291
     15 O1         -8.9418   -0.7377    0.5539 O.2       1 <0>        -0.5899
     16 C14        -6.8064    0.2847    0.4370 C.2       1 <0>        -0.2265
     17 C15        -5.4541    0.1600    0.3338 C.2       1 <0>        -0.0193
     18 N2         -2.5363   -0.2302    0.0993 N.pl3     1 <0>        -0.5609
     19 C16        -0.2980   -3.0933   -0.2185 C.ar      1 <0>         0.1131
     20 C17         0.8460   -3.0046    0.5859 C.ar      1 <0>        -0.1113
     21 C18         1.8471   -3.9391    0.4288 C.ar      1 <0>         0.1475
     22 N3          1.7384   -4.9058   -0.4634 N.ar      1 <0>        -0.4453
     23 C19         0.6789   -5.0260   -1.2413 C.ar      1 <0>         0.1502
     24 C20        -0.3725   -4.1394   -1.1479 C.ar      1 <0>        -0.1247
     25 F1          3.5233    2.1271   -0.2501 F         1 <0>        -0.1206
     26 H1         -0.4930    1.2596    1.5875 H         1 <0>         0.1448
     27 H2          1.6122    2.5258    1.4800 H         1 <0>         0.1545
     28 H3          2.8693    0.1839   -1.8628 H         1 <0>         0.1503
     29 H4          0.7677   -1.0896   -1.7733 H         1 <0>         0.1343
     30 H5         -3.1383   -3.2941   -0.0126 H         1 <0>         0.4541
     31 H6         -5.2377   -3.2379    0.1597 H         1 <0>         0.1066
     32 H7         -7.6615   -3.0138    0.3545 H         1 <0>         0.1278
     33 H8         -7.2539    1.2645    0.5152 H         1 <0>         0.1286
     34 H9         -4.8293    1.0409    0.3299 H         1 <0>         0.1087
     35 H10        -2.7542    0.7126    0.1673 H         1 <0>         0.4588
     36 H11         0.9421   -2.2159    1.3174 H         1 <0>         0.1893
     37 H12         2.7328   -3.8793    1.0439 H         1 <0>         0.2181
     38 H13         0.6331   -5.8328   -1.9578 H         1 <0>         0.2182
     39 H14        -1.2383   -4.2467   -1.7845 H         1 <0>         0.1884
     40 H15         2.4602   -5.5480   -0.5503 H         1 <0>         0.4572
@<TRIPOS>BOND
     1    1    6 ar
     2    1    2 ar
     3    1   26 1
     4    2    3 ar
     5    2   27 1
     6    3    4 ar
     7    3   25 1
     8    4    5 ar
     9    4   28 1
    10    5    6 ar
    11    5   29 1
    12    6    7 1
    13    7   18 1
    14    7    8 2
    15    8    9 1
    16    8   19 1
    17    9   10 1
    18    9   30 1
    19   10   11 2
    20   10   18 1
    21   11   17 1
    22   11   12 1
    23   12   13 2
    24   12   31 1
    25   13   14 1
    26   13   32 1
    27   14   15 2
    28   14   16 1
    29   16   17 2
    30   16   33 1
    31   17   34 1
    32   18   35 1
    33   19   24 ar
    34   19   20 ar
    35   20   21 ar
    36   20   36 1
    37   21   22 ar
    38   21   37 1
    39   22   23 ar
    40   22   40 1
    41   23   24 ar
    42   23   38 1
    43   24   39 1
@<TRIPOS>MOLECULE
ZINC14951176
   39    42     0     0     0
SMALL
USER_CHARGES

@<TRIPOS>ATOM
      1 C1         -0.0169    1.3921    0.0097 C.ar      1 <0>        -0.0566
      2 C2          1.1683    2.0955    0.0022 C.ar      1 <0>        -0.1420
      3 C3          2.3804    1.4175   -0.0135 C.ar      1 <0>         0.1205
      4 C4          2.4035    0.0288   -0.0217 C.ar      1 <0>        -0.1413
      5 C5          1.2227   -0.6820   -0.0137 C.ar      1 <0>        -0.0915
      6 C6          0.0021   -0.0041    0.0020 C.ar      1 <0>        -0.0305
      7 C7         -1.2663   -0.7622    0.0101 C.2       1 <0>         0.2668
      8 N1         -2.4688   -0.2344    0.0239 N.2       1 <0>        -0.4516
      9 H1         -0.6429   -2.7598   -0.0166 H         1 <0>         0.4248
     10 C8         -3.3891   -1.2133    0.0276 C.2       1 <0>         0.0607
     11 C9         -2.7170   -2.4244    0.0153 C.2       1 <0>         0.0509
     12 N2         -1.3752   -2.1239   -0.0017 N.pl3     1 <0>        -0.5528
     13 C10        -3.3214   -3.7709    0.0147 C.ar      1 <0>        -0.0389
     14 C11        -4.3834   -4.0632    0.8738 C.ar      1 <0>        -0.0572
     15 C12        -4.9440   -5.3230    0.8688 C.ar      1 <0>        -0.1473
     16 C13        -4.4555   -6.2985    0.0139 C.ar      1 <0>         0.1118
     17 C14        -3.4017   -6.0145   -0.8405 C.ar      1 <0>        -0.1493
     18 C15        -2.8374   -4.7564   -0.8492 C.ar      1 <0>        -0.0780
     19 F1         -5.0084   -7.5311    0.0136 F         1 <0>        -0.1337
     20 C16        -4.8582   -1.0303    0.0430 C.ar      1 <0>         0.0400
     21 C17        -5.7004   -1.9173   -0.6371 C.ar      1 <0>        -0.1586
     22 C18        -7.0629   -1.7095   -0.5964 C.ar      1 <0>         0.1014
     23 N3         -7.5737   -0.6921    0.0713 N.ar      1 <0>        -0.4840
     24 C19        -6.8154    0.1672    0.7258 C.ar      1 <0>         0.1006
     25 C20        -5.4433    0.0310    0.7427 C.ar      1 <0>        -0.1465
     26 O1          3.5463    2.1144   -0.0214 O.3       1 <0>        -0.4977
     27 H2         -0.9589    1.9200    0.0260 H         1 <0>         0.1437
     28 H3          1.1545    3.1754    0.0081 H         1 <0>         0.1381
     29 H4          3.3480   -0.4948   -0.0346 H         1 <0>         0.1359
     30 H5          1.2415   -1.7618   -0.0204 H         1 <0>         0.1230
     31 H6         -4.7644   -3.3041    1.5409 H         1 <0>         0.1365
     32 H7         -5.7651   -5.5501    1.5325 H         1 <0>         0.1435
     33 H8         -3.0248   -6.7788   -1.5040 H         1 <0>         0.1419
     34 H9         -2.0195   -4.5348   -1.5187 H         1 <0>         0.1326
     35 H10        -5.2894   -2.7518   -1.1857 H         1 <0>         0.1340
     36 H11        -7.7211   -2.3883   -1.1184 H         1 <0>         0.1574
     37 H12        -7.2760    0.9856    1.2591 H         1 <0>         0.1586
     38 H13        -4.8292    0.7351    1.2845 H         1 <0>         0.1395
     39 H14         3.8927    2.3115    0.8597 H         1 <0>         0.3954
@<TRIPOS>BOND
     1    1    6 ar
     2    1    2 ar
     3    1   27 1
     4    2    3 ar
     5    2   28 1
     6    3    4 ar
     7    3   26 1
     8    4    5 ar
     9    4   29 1
    10    5    6 ar
    11    5   30 1
    12    6    7 1
    13    7    8 2
    14    7   12 1
    15    8   10 1
    16    9   12 1
    17   10   20 1
    18   10   11 2
    19   11   13 1
    20   11   12 1
    21   13   18 ar
    22   13   14 ar
    23   14   15 ar
    24   14   31 1
    25   15   16 ar
    26   15   32 1
    27   16   17 ar
    28   16   19 1
    29   17   18 ar
    30   17   33 1
    31   18   34 1
    32   20   25 ar
    33   20   21 ar
    34   21   22 ar
    35   21   35 1
    36   22   23 ar
    37   22   36 1
    38   23   24 ar
    39   24   25 ar
    40   24   37 1
    41   25   38 1
    42   26   39 1
@<TRIPOS>MOLECULE
ZINC14951176
   40    43     0     0     0
SMALL
USER_CHARGES

@<TRIPOS>ATOM
      1 C1         -0.0079    1.3560    0.4128 C.ar      1 <0>        -0.0502
      2 C2          1.1789    2.0446    0.5411 C.ar      1 <0>        -0.1379
      3 C3          2.3872    1.3600    0.5181 C.ar      1 <0>         0.1743
      4 C4          2.4048   -0.0205    0.3656 C.ar      1 <0>        -0.1372
      5 C5          1.2223   -0.7164    0.2363 C.ar      1 <0>        -0.0529
      6 C6          0.0054   -0.0319    0.2597 C.ar      1 <0>        -0.1114
      7 C7         -1.2648   -0.7743    0.1224 C.cat     1 <0>         0.3974
      8 N1         -2.5103   -0.2175    0.1240 N.pl3     1 <0>        -0.5055
      9 H1         -2.7195    0.7253    0.2141 H         1 <0>         0.4639
     10 C8         -3.4150   -1.2456   -0.0267 C.2       1 <0>         0.1188
     11 C9         -2.6710   -2.4104   -0.1160 C.2       1 <0>         0.1124
     12 N2         -1.3744   -2.0755   -0.0265 N.pl3     1 <0>        -0.4709
     13 C10        -3.2098   -3.7802   -0.2862 C.ar      1 <0>        -0.0876
     14 C11        -4.1834   -4.0340   -1.2519 C.ar      1 <0>        -0.0424
     15 C12        -4.6816   -5.3110   -1.4069 C.ar      1 <0>        -0.1470
     16 C13        -4.2164   -6.3406   -0.6047 C.ar      1 <0>         0.1433
     17 C14        -3.2491   -6.0935    0.3562 C.ar      1 <0>        -0.1478
     18 C15        -2.7406   -4.8209    0.5148 C.ar      1 <0>        -0.0599
     19 F1         -4.7080   -7.5895   -0.7596 F         1 <0>        -0.1208
     20 C16        -4.8840   -1.1288   -0.0821 C.ar      1 <0>        -0.0205
     21 C17        -5.7034   -1.9735    0.6798 C.ar      1 <0>        -0.1289
     22 C18        -7.0715   -1.8287    0.5974 C.ar      1 <0>         0.1171
     23 N3         -7.6107   -0.9116   -0.1841 N.ar      1 <0>        -0.4578
     24 C19        -6.8767   -0.0959   -0.9180 C.ar      1 <0>         0.1165
     25 C20        -5.5005   -0.1662   -0.8936 C.ar      1 <0>        -0.1481
     26 O1          3.5548    2.0423    0.6448 O.3       1 <0>        -0.4899
     27 H2         -0.9472    1.8885    0.4352 H         1 <0>         0.1371
     28 H3          1.1694    3.1181    0.6592 H         1 <0>         0.1540
     29 H4          3.3464   -0.5492    0.3479 H         1 <0>         0.1543
     30 H5          1.2369   -1.7897    0.1170 H         1 <0>         0.1372
     31 H6         -4.5471   -3.2320   -1.8771 H         1 <0>         0.1402
     32 H7         -5.4356   -5.5085   -2.1544 H         1 <0>         0.1527
     33 H8         -2.8897   -6.8992    0.9791 H         1 <0>         0.1527
     34 H9         -1.9838   -4.6301    1.2612 H         1 <0>         0.1391
     35 H10        -5.2693   -2.7263    1.3211 H         1 <0>         0.1460
     36 H11        -7.7114   -2.4748    1.1801 H         1 <0>         0.1719
     37 H12        -7.3614    0.6395   -1.5430 H         1 <0>         0.1713
     38 H13        -4.9063    0.5074   -1.4932 H         1 <0>         0.1422
     39 H14         3.8545    2.1428    1.5587 H         1 <0>         0.4115
     40 H15        -0.6320   -2.6987   -0.0633 H         1 <0>         0.4629
@<TRIPOS>BOND
     1    1    6 ar
     2    1    2 ar
     3    1   27 1
     4    2    3 ar
     5    2   28 1
     6    3    4 ar
     7    3   26 1
     8    4    5 ar
     9    4   29 1
    10    5    6 ar
    11    5   30 1
    12    6    7 1
    13    7   12 2
    14    7    8 1
    15    8    9 1
    16    8   10 1
    17   10   11 2
    18   10   20 1
    19   11   12 1
    20   11   13 1
    21   12   40 1
    22   13   18 ar
    23   13   14 ar
    24   14   15 ar
    25   14   31 1
    26   15   16 ar
    27   15   32 1
    28   16   17 ar
    29   16   19 1
    30   17   18 ar
    31   17   33 1
    32   18   34 1
    33   20   25 ar
    34   20   21 ar
    35   21   22 ar
    36   21   35 1
    37   22   23 ar
    38   22   36 1
    39   23   24 ar
    40   24   25 ar
    41   24   37 1
    42   25   38 1
    43   26   39 1
@<TRIPOS>MOLECULE
ZINC14951176
   40    43     0     0     0
SMALL
USER_CHARGES

@<TRIPOS>ATOM
      1 C1         -0.0268    1.3873   -0.2487 C.ar      1 <0>        -0.0533
      2 C2          1.1507    2.0881   -0.3954 C.ar      1 <0>        -0.1372
      3 C3          2.3508    1.4075   -0.5560 C.ar      1 <0>         0.1741
      4 C4          2.3694    0.0187   -0.5693 C.ar      1 <0>        -0.1379
      5 C5          1.1963   -0.6894   -0.4227 C.ar      1 <0>        -0.0501
      6 C6         -0.0123   -0.0089   -0.2611 C.ar      1 <0>        -0.1113
      7 C7         -1.2726   -0.7643   -0.1040 C.cat     1 <0>         0.3964
      8 N1         -1.3739   -2.1224    0.0021 N.pl3     1 <0>        -0.5087
      9 H1         -0.6406   -2.7573   -0.0113 H         1 <0>         0.4641
     10 C8         -2.7098   -2.4213    0.1324 C.2       1 <0>         0.1445
     11 C9         -3.3862   -1.2129    0.1003 C.2       1 <0>         0.0865
     12 N2         -2.4734   -0.2367   -0.0386 N.pl3     1 <0>        -0.4668
     13 C10        -4.8514   -1.0295    0.2063 C.ar      1 <0>        -0.0181
     14 C11        -5.5878   -1.6830    1.2008 C.ar      1 <0>        -0.1314
     15 C12        -6.9507   -1.4834    1.2636 C.ar      1 <0>         0.1177
     16 N3         -7.5598   -0.6900    0.4025 N.ar      1 <0>        -0.4587
     17 C13        -6.9031   -0.0552   -0.5501 C.ar      1 <0>         0.1173
     18 C14        -5.5375   -0.1932   -0.6817 C.ar      1 <0>        -0.1516
     19 C15        -3.3053   -3.7640    0.2776 C.ar      1 <0>        -0.0905
     20 C16        -4.4063   -4.1307   -0.5000 C.ar      1 <0>        -0.0398
     21 C17        -4.9583   -5.3865   -0.3599 C.ar      1 <0>        -0.1481
     22 C18        -4.4232   -6.2840    0.5507 C.ar      1 <0>         0.1454
     23 C19        -3.3311   -5.9257    1.3253 C.ar      1 <0>        -0.1491
     24 C20        -2.7664   -4.6752    1.1893 C.ar      1 <0>        -0.0562
     25 F1         -4.9685   -7.5129    0.6840 F         1 <0>        -0.1204
     26 O1          3.5092    2.1019   -0.7007 O.3       1 <0>        -0.4899
     27 H2         -0.9590    1.9172   -0.1198 H         1 <0>         0.1369
     28 H3          1.1404    3.1680   -0.3860 H         1 <0>         0.1542
     29 H4          3.3045   -0.5068   -0.6950 H         1 <0>         0.1540
     30 H5          1.2115   -1.7693   -0.4335 H         1 <0>         0.1375
     31 H6         -5.0961   -2.3342    1.9084 H         1 <0>         0.1454
     32 H7         -7.5277   -1.9833    2.0275 H         1 <0>         0.1715
     33 H8         -7.4422    0.5842   -1.2336 H         1 <0>         0.1711
     34 H9         -5.0059    0.3326   -1.4610 H         1 <0>         0.1417
     35 H10        -4.8245   -3.4319   -1.2094 H         1 <0>         0.1408
     36 H11        -5.8095   -5.6711   -0.9606 H         1 <0>         0.1531
     37 H12        -2.9189   -6.6290    2.0337 H         1 <0>         0.1530
     38 H13        -1.9125   -4.3987    1.7900 H         1 <0>         0.1398
     39 H14         3.9581    2.2964    0.1334 H         1 <0>         0.4114
     40 H15        -2.6712    0.7118   -0.0857 H         1 <0>         0.4627
@<TRIPOS>BOND
     1    1    6 ar
     2    1    2 ar
     3    1   27 1
     4    2    3 ar
     5    2   28 1
     6    3    4 ar
     7    3   26 1
     8    4    5 ar
     9    4   29 1
    10    5    6 ar
    11    5   30 1
    12    6    7 1
    13    7   12 2
    14    7    8 1
    15    8    9 1
    16    8   10 1
    17   10   11 2
    18   10   19 1
    19   11   12 1
    20   11   13 1
    21   12   40 1
    22   13   18 ar
    23   13   14 ar
    24   14   15 ar
    25   14   31 1
    26   15   16 ar
    27   15   32 1
    28   16   17 ar
    29   17   18 ar
    30   17   33 1
    31   18   34 1
    32   19   24 ar
    33   19   20 ar
    34   20   21 ar
    35   20   35 1
    36   21   22 ar
    37   21   36 1
    38   22   23 ar
    39   22   25 1
    40   23   24 ar
    41   23   37 1
    42   24   38 1
    43   26   39 1
@<TRIPOS>MOLECULE
ZINC00600292
   36    38     0     0     0
SMALL
USER_CHARGES

@<TRIPOS>ATOM
      1 C1         -0.7597    1.4203   -0.5114 C.3       1 <0>         0.0216
      2 O1         -0.7395   -0.0086   -0.5175 O.3       1 <0>        -0.3000
      3 C2          0.0525   -0.6108   -1.4443 C.ar      1 <0>         0.1111
      4 C3          0.7838    0.1546   -2.3077 C.ar      1 <0>        -0.1487
      5 C4          1.6000   -0.4644   -3.2619 C.ar      1 <0>        -0.1822
      6 C5          1.6631   -1.8785   -3.3272 C.ar      1 <0>         0.2014
      7 C6          0.9050   -2.6434   -2.4324 C.ar      1 <0>        -0.1835
      8 C7          0.1140   -2.0102   -1.4994 C.ar      1 <0>         0.1637
      9 O2         -0.6184   -2.7498   -0.6264 O.3       1 <0>        -0.2972
     10 C8         -0.5133   -4.1710   -0.7327 C.3       1 <0>         0.0200
     11 N1          2.4537   -2.4467   -4.2512 N.ar      1 <0>        -0.5411
     12 C9          3.1528   -1.7038   -5.0759 C.ar      1 <0>         0.3436
     13 N2          3.1258   -0.3808   -5.0518 N.ar      1 <0>        -0.5800
     14 C10         2.3778    0.2817   -4.1791 C.ar      1 <0>         0.4633
     15 N3          2.3588    1.6620   -4.1660 N.pl3     1 <0>        -0.6410
     16 C11         3.0379    2.3798   -5.1546 C.ar      1 <0>         0.1586
     17 C12         3.6582    3.5824   -4.8396 C.ar      1 <0>        -0.1318
     18 C13         4.3288    4.2892   -5.8181 C.ar      1 <0>        -0.0924
     19 C14         4.3832    3.8017   -7.1112 C.ar      1 <0>        -0.1057
     20 C15         3.7663    2.6047   -7.4288 C.ar      1 <0>        -0.0712
     21 C16         3.0988    1.8895   -6.4525 C.ar      1 <0>        -0.0819
     22 Br1         3.8425    1.9431   -9.1987 Br        1 <0>        -0.0435
     23 H1          0.2462    1.7971   -0.3263 H         1 <0>         0.0571
     24 H2         -1.1115    1.7828   -1.4772 H         1 <0>         0.0575
     25 H3         -1.4293    1.7708    0.2741 H         1 <0>         0.1071
     26 H4          0.7324    1.2321   -2.2545 H         1 <0>         0.1391
     27 H5          0.9434   -3.7220   -2.4708 H         1 <0>         0.1564
     28 H6         -1.1468   -4.6395    0.0204 H         1 <0>         0.1075
     29 H7         -0.8353   -4.4858   -1.7253 H         1 <0>         0.0624
     30 H8          0.5224   -4.4716   -0.5744 H         1 <0>         0.0623
     31 H9          3.7787   -2.1938   -5.8070 H         1 <0>         0.1983
     32 H10         1.8741    2.1338   -3.4707 H         1 <0>         0.4207
     33 H11         3.6157    3.9643   -3.8302 H         1 <0>         0.1312
     34 H12         4.8111    5.2240   -5.5735 H         1 <0>         0.1372
     35 H13         4.9081    4.3567   -7.8747 H         1 <0>         0.1349
     36 H14         2.6210    0.9530   -6.6997 H         1 <0>         0.1453
@<TRIPOS>BOND
     1    1    2 1
     2    1   23 1
     3    1   24 1
     4    1   25 1
     5    2    3 1
     6    3    8 ar
     7    3    4 ar
     8    4    5 ar
     9    4   26 1
    10    5   14 ar
    11    5    6 ar
    12    6    7 ar
    13    6   11 ar
    14    7    8 ar
    15    7   27 1
    16    8    9 1
    17    9   10 1
    18   10   28 1
    19   10   29 1
    20   10   30 1
    21   11   12 ar
    22   12   13 ar
    23   12   31 1
    24   13   14 ar
    25   14   15 1
    26   15   16 1
    27   15   32 1
    28   16   21 ar
    29   16   17 ar
    30   17   18 ar
    31   17   33 1
    32   18   19 ar
    33   18   34 1
    34   19   20 ar
    35   19   35 1
    36   20   21 ar
    37   20   22 1
    38   21   36 1
@<TRIPOS>MOLECULE
ZINC02046959
   40    42     0     0     0
SMALL
USER_CHARGES
6,7-dimethoxy-N-(3-methylsulfanylphenyl)-quinazolin-4-amine
@<TRIPOS>ATOM
      1 C1         -0.1077    7.8040   -0.3055 C.3       1 <0>         0.0217
      2 O1          1.1553    7.1530   -0.1534 O.3       1 <0>        -0.3004
      3 C2          1.1387    5.8025    0.0051 C.ar      1 <0>         0.1100
      4 C3         -0.0548    5.1380    0.0127 C.ar      1 <0>        -0.1478
      5 C4         -0.0731    3.7478    0.1763 C.ar      1 <0>        -0.1829
      6 C5          1.1437    3.0387    0.3330 C.ar      1 <0>         0.2015
      7 C6          2.3553    3.7401    0.3222 C.ar      1 <0>        -0.1837
      8 C7          2.3464    5.1078    0.1596 C.ar      1 <0>         0.1634
      9 O2          3.5206    5.7908    0.1483 O.3       1 <0>        -0.2974
     10 C8          4.7172    5.0267    0.3103 C.3       1 <0>         0.0201
     11 N1          1.0979    1.7062    0.4886 N.ar      1 <0>        -0.5424
     12 C9         -0.0528    1.0766    0.4950 C.ar      1 <0>         0.3434
     13 N2         -1.2131    1.6960    0.3473 N.ar      1 <0>        -0.5784
     14 C10        -1.2817    3.0117    0.1919 C.ar      1 <0>         0.4637
     15 N3         -2.4994    3.6452    0.0437 N.pl3     1 <0>        -0.6399
     16 C11        -3.6722    2.8912   -0.0547 C.ar      1 <0>         0.1712
     17 C12        -4.8639    3.3879    0.4602 C.ar      1 <0>        -0.1533
     18 C13        -6.0237    2.6435    0.3636 C.ar      1 <0>        -0.0781
     19 C14        -6.0036    1.4032   -0.2447 C.ar      1 <0>        -0.1502
     20 C15        -4.8153    0.9003   -0.7618 C.ar      1 <0>        -0.0638
     21 C16        -3.6491    1.6486   -0.6713 C.ar      1 <0>        -0.0915
     22 S1         -4.7906   -0.6813   -1.5380 S.3       1 <0>        -0.1098
     23 C17        -6.5082   -1.2533   -1.4234 C.3       1 <0>        -0.1461
     24 H1          0.0481    8.8764   -0.4230 H         1 <0>         0.1068
     25 H2         -0.6147    7.4118   -1.1871 H         1 <0>         0.0574
     26 H3         -0.7197    7.6203    0.5775 H         1 <0>         0.0571
     27 H4         -0.9798    5.6824   -0.1075 H         1 <0>         0.1390
     28 H5          3.2903    3.2125    0.4404 H         1 <0>         0.1561
     29 H6          4.6897    4.5073    1.2682 H         1 <0>         0.0621
     30 H7          4.7947    4.2976   -0.4963 H         1 <0>         0.0622
     31 H8          5.5799    5.6923    0.2825 H         1 <0>         0.1072
     32 H9         -0.0532    0.0041    0.6221 H         1 <0>         0.1981
     33 H10        -2.5410    4.6137    0.0077 H         1 <0>         0.4199
     34 H11        -4.8832    4.3569    0.9367 H         1 <0>         0.1269
     35 H12        -6.9483    3.0322    0.7643 H         1 <0>         0.1305
     36 H13        -6.9121    0.8240   -0.3188 H         1 <0>         0.1244
     37 H14        -2.7254    1.2625   -1.0764 H         1 <0>         0.1442
     38 H15        -7.1604   -0.5512   -1.9427 H         1 <0>         0.0840
     39 H16        -6.5948   -2.2378   -1.8832 H         1 <0>         0.1100
     40 H17        -6.8016   -1.3147   -0.3754 H         1 <0>         0.0847
@<TRIPOS>BOND
     1    1    2 1
     2    1   24 1
     3    1   25 1
     4    1   26 1
     5    2    3 1
     6    3    8 ar
     7    3    4 ar
     8    4    5 ar
     9    4   27 1
    10    5   14 ar
    11    5    6 ar
    12    6    7 ar
    13    6   11 ar
    14    7    8 ar
    15    7   28 1
    16    8    9 1
    17    9   10 1
    18   10   29 1
    19   10   30 1
    20   10   31 1
    21   11   12 ar
    22   12   13 ar
    23   12   32 1
    24   13   14 ar
    25   14   15 1
    26   15   16 1
    27   15   33 1
    28   16   21 ar
    29   16   17 ar
    30   17   18 ar
    31   17   34 1
    32   18   19 ar
    33   18   35 1
    34   19   20 ar
    35   19   36 1
    36   20   21 ar
    37   20   22 1
    38   21   37 1
    39   22   23 1
    40   23   38 1
    41   23   39 1
    42   23   40 1
@<TRIPOS>MOLECULE
ZINC01842518
   33    36     0     0     0
SMALL
USER_CHARGES

@<TRIPOS>ATOM
      1 C1         -0.0168    1.3906    0.0097 C.ar      1 <0>        -0.0576
      2 C2          1.1696    2.0942    0.0021 C.ar      1 <0>        -0.1524
      3 C3          2.3789    1.4178   -0.0135 C.ar      1 <0>         0.1071
      4 C4          2.4029    0.0323   -0.0212 C.ar      1 <0>        -0.1512
      5 C5          1.2219   -0.6804   -0.0133 C.ar      1 <0>        -0.0708
      6 C6          0.0021   -0.0041    0.0020 C.ar      1 <0>        -0.0212
      7 C7         -1.2691   -0.7645    0.0106 C.2       1 <0>         0.0918
      8 C8         -1.5034   -1.9635   -0.6274 C.2       1 <0>         0.0463
      9 N1         -2.8269   -2.3250   -0.3430 N.pl3     1 <0>        -0.4886
     10 C9         -3.3214   -1.3119    0.4240 C.2       1 <0>         0.2223
     11 N2         -2.4003   -0.4118    0.6471 N.2       1 <0>        -0.4307
     12 S1         -5.0256   -1.7190    0.7465 S.3       1 <0>        -0.0192
     13 C10        -5.2050   -3.0786   -0.4836 C.3       1 <0>        -0.1022
     14 C11        -3.7129   -3.4534   -0.6476 C.3       1 <0>         0.0895
     15 C12        -0.5450   -2.7206   -1.4519 C.ar      1 <0>         0.0245
     16 C13        -0.4069   -4.1087   -1.3057 C.ar      1 <0>        -0.1658
     17 C14         0.5014   -4.7760   -2.0981 C.ar      1 <0>         0.1073
     18 N3          1.2350   -4.1271   -2.9835 N.ar      1 <0>        -0.4792
     19 C15         1.1373   -2.8214   -3.1539 C.ar      1 <0>         0.1083
     20 C16         0.2509   -2.0745   -2.4090 C.ar      1 <0>        -0.1450
     21 F1          3.5382    2.1113   -0.0217 F         1 <0>        -0.1366
     22 H1         -0.9588    1.9187    0.0260 H         1 <0>         0.1400
     23 H2          1.1560    3.1741    0.0081 H         1 <0>         0.1409
     24 H3          3.3479   -0.4904   -0.0337 H         1 <0>         0.1394
     25 H4          1.2416   -1.7602   -0.0196 H         1 <0>         0.1295
     26 H5         -5.7834   -3.9093   -0.0792 H         1 <0>         0.1459
     27 H6         -5.6312   -2.7170   -1.4193 H         1 <0>         0.1183
     28 H7         -3.5385   -3.7740   -1.6747 H         1 <0>         0.1080
     29 H8         -3.4787   -4.2794    0.0239 H         1 <0>         0.1062
     30 H9         -1.0031   -4.6460   -0.5830 H         1 <0>         0.1316
     31 H10         0.6152   -5.8449   -1.9932 H         1 <0>         0.1606
     32 H11         1.7578   -2.3326   -3.8904 H         1 <0>         0.1629
     33 H12         0.1731   -1.0076   -2.5571 H         1 <0>         0.1404
@<TRIPOS>BOND
     1    1    6 ar
     2    1    2 ar
     3    1   22 1
     4    2    3 ar
     5    2   23 1
     6    3    4 ar
     7    3   21 1
     8    4    5 ar
     9    4   24 1
    10    5    6 ar
    11    5   25 1
    12    6    7 1
    13    7   11 1
    14    7    8 2
    15    8    9 1
    16    8   15 1
    17    9   14 1
    18    9   10 1
    19   10   11 2
    20   10   12 1
    21   12   13 1
    22   13   14 1
    23   13   26 1
    24   13   27 1
    25   14   28 1
    26   14   29 1
    27   15   20 ar
    28   15   16 ar
    29   16   17 ar
    30   16   30 1
    31   17   18 ar
    32   17   31 1
    33   18   19 ar
    34   19   20 ar
    35   19   32 1
    36   20   33 1
@<TRIPOS>MOLECULE
ZINC00020049
   30    32     0     0     0
SMALL
USER_CHARGES

@<TRIPOS>ATOM
      1 C1         -0.2351    1.4762    0.2627 C.3       1 <0>        -0.0607
      2 C2         -0.0905   -0.0161    0.1104 C.2       1 <0>         0.2067
      3 N1         -1.0736   -0.8694    0.1143 N.2       1 <0>        -0.4711
      4 C3         -0.5744   -2.1125   -0.0448 C.2       1 <0>         0.0651
      5 C4          0.7962   -1.9867   -0.1499 C.2       1 <0>        -0.0129
      6 O1          1.0684   -0.6664   -0.0552 O.3       1 <0>        -0.1869
      7 C5          1.7711   -3.0778   -0.3349 C.ar      1 <0>         0.0315
      8 C6          1.5676   -4.0694   -1.3044 C.ar      1 <0>        -0.1391
      9 C7          2.5049   -5.0706   -1.4426 C.ar      1 <0>         0.1070
     10 N2          3.5805   -5.1029   -0.6782 N.ar      1 <0>        -0.4757
     11 C8          3.8113   -4.1897    0.2465 C.ar      1 <0>         0.1053
     12 C9          2.9303   -3.1492    0.4498 C.ar      1 <0>        -0.1513
     13 C10        -1.3501   -3.3737   -0.0964 C.ar      1 <0>        -0.0200
     14 C11        -0.8963   -4.5030    0.5846 C.ar      1 <0>        -0.0956
     15 C12        -1.6231   -5.6748    0.5327 C.ar      1 <0>        -0.1177
     16 C13        -2.7994   -5.7309   -0.1933 C.ar      1 <0>        -0.1081
     17 C14        -3.2544   -4.6141   -0.8712 C.ar      1 <0>        -0.1195
     18 C15        -2.5398   -3.4347   -0.8215 C.ar      1 <0>        -0.0866
     19 H1          0.7488    1.9430    0.2174 H         1 <0>         0.0913
     20 H2         -0.8590    1.8648   -0.5422 H         1 <0>         0.1016
     21 H3         -0.6997    1.7001    1.2229 H         1 <0>         0.1017
     22 H4          0.6897   -4.0495   -1.9331 H         1 <0>         0.1397
     23 H5          2.3570   -5.8395   -2.1864 H         1 <0>         0.1643
     24 H6          4.7051   -4.2561    0.8490 H         1 <0>         0.1636
     25 H7          3.1280   -2.4030    1.2051 H         1 <0>         0.1397
     26 H8          0.0222   -4.4606    1.1511 H         1 <0>         0.1191
     27 H9         -1.2728   -6.5500    1.0597 H         1 <0>         0.1272
     28 H10        -3.3646   -6.6504   -0.2312 H         1 <0>         0.1263
     29 H11        -4.1730   -4.6642   -1.4369 H         1 <0>         0.1281
     30 H12        -2.8986   -2.5621   -1.3469 H         1 <0>         0.1269
@<TRIPOS>BOND
     1    1    2 1
     2    1   19 1
     3    1   20 1
     4    1   21 1
     5    2    6 1
     6    2    3 2
     7    3    4 1
     8    4    5 2
     9    4   13 1
    10    5    6 1
    11    5    7 1
    12    7   12 ar
    13    7    8 ar
    14    8    9 ar
    15    8   22 1
    16    9   10 ar
    17    9   23 1
    18   10   11 ar
    19   11   12 ar
    20   11   24 1
    21   12   25 1
    22   13   18 ar
    23   13   14 ar
    24   14   15 ar
    25   14   26 1
    26   15   16 ar
    27   15   27 1
    28   16   17 ar
    29   16   28 1
    30   17   18 ar
    31   17   29 1
    32   18   30 1
@<TRIPOS>MOLECULE
ZINC00164635
   20    21     0     0     0
SMALL
USER_CHARGES

@<TRIPOS>ATOM
      1 C1         -0.0167    1.3786    0.0096 C.ar      1 <0>        -0.1396
      2 C2          1.1697    2.0894    0.0021 C.ar      1 <0>        -0.0890
      3 C3          2.3777    1.4203   -0.0133 C.ar      1 <0>        -0.1515
      4 C4          2.3998    0.0318   -0.0210 C.ar      1 <0>         0.1574
      5 C5          1.2069   -0.6787   -0.0131 C.ar      1 <0>        -0.1251
      6 C6          0.0021   -0.0041    0.0020 C.ar      1 <0>        -0.0834
      7 C7          1.2313   -2.1851   -0.0207 C.3       1 <0>        -0.0782
      8 C8          2.4276   -2.6727   -0.8388 C.3       1 <0>        -0.1392
      9 C9          3.6725   -1.9432   -0.4112 C.2       1 <0>         0.5206
     10 O1          4.7362   -2.5258   -0.4048 O.2       1 <0>        -0.5260
     11 N1          3.6193   -0.6519   -0.0361 N.am      1 <0>        -0.6650
     12 H1         -0.9598    1.9045    0.0260 H         1 <0>         0.1271
     13 H2          1.1514    3.1692    0.0079 H         1 <0>         0.1292
     14 H3          3.3038    1.9760   -0.0196 H         1 <0>         0.1287
     15 H4         -0.9259   -0.5565    0.0079 H         1 <0>         0.1302
     16 H5          1.3171   -2.5520    1.0021 H         1 <0>         0.0839
     17 H6          0.3098   -2.5610   -0.4652 H         1 <0>         0.0931
     18 H7          2.5625   -3.7426   -0.6804 H         1 <0>         0.1107
     19 H8          2.2433   -2.4851   -1.8966 H         1 <0>         0.1047
     20 H9          4.4325   -0.1922    0.2251 H         1 <0>         0.4114
@<TRIPOS>BOND
     1    1    6 ar
     2    1    2 ar
     3    1   12 1
     4    2    3 ar
     5    2   13 1
     6    3    4 ar
     7    3   14 1
     8    4   11 1
     9    4    5 ar
    10    5    6 ar
    11    5    7 1
    12    6   15 1
    13    7    8 1
    14    7   16 1
    15    7   17 1
    16    8    9 1
    17    8   18 1
    18    8   19 1
    19    9   10 2
    20    9   11 am
    21   11   20 1
@<TRIPOS>MOLECULE
ZINC00007301
   28    30     0     0     0
SMALL
USER_CHARGES
4-[5-(4-fluorophenyl)-3H-imidazol-4-yl]pyridine
@<TRIPOS>ATOM
      1 C1         -0.0126    1.0758    0.0080 C.ar      1 <0>        -0.0609
      2 C2          1.1719    1.7829    0.0004 C.ar      1 <0>        -0.1530
      3 C3          1.1544    3.1684    0.0076 C.ar      1 <0>         0.1035
      4 C4         -0.0516    3.8505    0.0229 C.ar      1 <0>        -0.1516
      5 C5         -1.2414    3.1524    0.0314 C.ar      1 <0>        -0.0738
      6 C6         -1.2291    1.7578    0.0174 C.ar      1 <0>        -0.0195
      7 C7         -2.5040    1.0033    0.0193 C.2       1 <0>         0.0742
      8 C8         -3.6712    1.3683    0.6662 C.2       1 <0>         0.0152
      9 N1         -4.5870    0.3774    0.3922 N.pl3     1 <0>        -0.5598
     10 H1         -5.5334    0.3404    0.7130 H         1 <0>         0.4317
     11 C9         -3.9714   -0.5349   -0.3895 C.2       1 <0>         0.2081
     12 N2         -2.7423   -0.1605   -0.6126 N.2       1 <0>        -0.4786
     13 C10        -3.8906    2.5764    1.4845 C.ar      1 <0>         0.0270
     14 C11        -2.9469    2.9819    2.4379 C.ar      1 <0>        -0.1463
     15 C12        -3.1905    4.1199    3.1766 C.ar      1 <0>         0.1070
     16 N3         -4.2977    4.8171    3.0028 N.ar      1 <0>        -0.4807
     17 C13        -5.2147    4.4681    2.1198 C.ar      1 <0>         0.1063
     18 C14        -5.0512    3.3473    1.3343 C.ar      1 <0>        -0.1677
     19 F1          2.3170    3.8565   -0.0007 F         1 <0>        -0.1378
     20 H2          0.0021   -0.0041    0.0020 H         1 <0>         0.1386
     21 H3          2.1144    1.2557   -0.0114 H         1 <0>         0.1394
     22 H4         -0.0602    4.9304    0.0284 H         1 <0>         0.1381
     23 H5         -2.1809    3.6849    0.0436 H         1 <0>         0.1289
     24 H6         -4.4281   -1.4346   -0.7747 H         1 <0>         0.2163
     25 H7         -2.0409    2.4137    2.5887 H         1 <0>         0.1396
     26 H8         -2.4676    4.4427    3.9112 H         1 <0>         0.1618
     27 H9         -6.1056    5.0689    2.0116 H         1 <0>         0.1601
     28 H10        -5.8057    3.0678    0.6139 H         1 <0>         0.1338
@<TRIPOS>BOND
     1    1    6 ar
     2    1    2 ar
     3    1   20 1
     4    2    3 ar
     5    2   21 1
     6    3    4 ar
     7    3   19 1
     8    4    5 ar
     9    4   22 1
    10    5    6 ar
    11    5   23 1
    12    6    7 1
    13    7   12 1
    14    7    8 2
    15    8    9 1
    16    8   13 1
    17    9   10 1
    18    9   11 1
    19   11   12 2
    20   11   24 1
    21   13   18 ar
    22   13   14 ar
    23   14   15 ar
    24   14   25 1
    25   15   16 ar
    26   15   26 1
    27   16   17 ar
    28   17   18 ar
    29   17   27 1
    30   18   28 1
@<TRIPOS>MOLECULE
ZINC00007301
   29    31     0     0     0
SMALL
USER_CHARGES
4-[5-(4-fluorophenyl)-3H-imidazol-4-yl]pyridine
@<TRIPOS>ATOM
      1 C1         -0.0126    1.0758    0.0080 C.ar      1 <0>        -0.0620
      2 C2          1.1719    1.7829    0.0004 C.ar      1 <0>        -0.1474
      3 C3          1.1544    3.1684    0.0076 C.ar      1 <0>         0.1433
      4 C4         -0.0516    3.8505    0.0229 C.ar      1 <0>        -0.1465
      5 C5         -1.2414    3.1524    0.0314 C.ar      1 <0>        -0.0465
      6 C6         -1.2291    1.7578    0.0174 C.ar      1 <0>        -0.0854
      7 C7         -2.5040    1.0033    0.0193 C.2       1 <0>         0.1093
      8 C8         -3.6712    1.3683    0.6662 C.2       1 <0>         0.1083
      9 N1         -4.5870    0.3774    0.3922 N.pl3     1 <0>        -0.5069
     10 H1         -5.5334    0.3404    0.7130 H         1 <0>         0.4760
     11 C9         -3.9714   -0.5349   -0.3895 C.cat     1 <0>         0.3153
     12 C10        -3.8906    2.5764    1.4845 C.ar      1 <0>        -0.0221
     13 C11        -2.9469    2.9819    2.4379 C.ar      1 <0>        -0.1327
     14 C12        -3.1905    4.1199    3.1766 C.ar      1 <0>         0.1168
     15 N2         -4.2977    4.8171    3.0028 N.ar      1 <0>        -0.4577
     16 C13        -5.2147    4.4681    2.1198 C.ar      1 <0>         0.1168
     17 C14        -5.0512    3.3473    1.3343 C.ar      1 <0>        -0.1484
     18 F1          2.3170    3.8565   -0.0007 F         1 <0>        -0.1203
     19 H2          0.0021   -0.0041    0.0020 H         1 <0>         0.1381
     20 H3          2.1144    1.2557   -0.0114 H         1 <0>         0.1528
     21 H4         -0.0602    4.9304    0.0284 H         1 <0>         0.1528
     22 H5         -2.1809    3.6849    0.0436 H         1 <0>         0.1397
     23 H6         -4.4281   -1.4346   -0.7747 H         1 <0>         0.2704
     24 H7         -2.0409    2.4137    2.5887 H         1 <0>         0.1461
     25 H8         -2.4676    4.4427    3.9112 H         1 <0>         0.1721
     26 H9         -6.1056    5.0689    2.0116 H         1 <0>         0.1715
     27 H10        -5.8057    3.0678    0.6139 H         1 <0>         0.1425
     28 N3         -2.7419   -0.1608   -0.6129 N.pl3     1 <0>        -0.4793
     29 H11        -2.0605   -0.6752   -1.1833 H         1 <0>         0.4836
@<TRIPOS>BOND
     1    1    6 ar
     2    1    2 ar
     3    1   19 1
     4    2    3 ar
     5    2   20 1
     6    3    4 ar
     7    3   18 1
     8    4    5 ar
     9    4   21 1
    10    5    6 ar
    11    5   22 1
    12    6    7 1
    13    7    8 2
    14    7   28 1
    15    8    9 1
    16    8   12 1
    17    9   10 1
    18    9   11 1
    19   11   23 1
    20   11   28 2
    21   12   17 ar
    22   12   13 ar
    23   13   14 ar
    24   13   24 1
    25   14   15 ar
    26   14   25 1
    27   15   16 ar
    28   16   17 ar
    29   16   26 1
    30   17   27 1
    31   28   29 1
@<TRIPOS>MOLECULE
ZINC02028562
   39    42     0     0     0
SMALL
USER_CHARGES
2-(4-bromophenyl)-4,5-diphenyl-1H-imidazole
@<TRIPOS>ATOM
      1 C1          8.8630    1.0848    0.1739 C.ar      1 <0>        -0.1094
      2 C2          8.0569    1.9109    0.9372 C.ar      1 <0>        -0.1170
      3 C3          6.6851    1.7759    0.8905 C.ar      1 <0>        -0.1089
      4 C4          6.1099    0.8022    0.0705 C.ar      1 <0>        -0.0256
      5 C5          6.9301   -0.0320   -0.6929 C.ar      1 <0>        -0.0840
      6 C6          8.3001    0.1183   -0.6410 C.ar      1 <0>        -0.1147
      7 C7          4.6426    0.6514    0.0156 C.2       1 <0>         0.0466
      8 C8          3.9261   -0.5301    0.1073 C.2       1 <0>         0.0672
      9 N1          2.6216   -0.2255    0.0168 N.2       1 <0>        -0.4511
     10 C9          2.4825    1.0717   -0.1347 C.2       1 <0>         0.2495
     11 N2          3.7160    1.6568   -0.1373 N.pl3     1 <0>        -0.5550
     12 H1          3.9097    2.6332   -0.2325 H         1 <0>         0.4290
     13 C10         1.1953    1.7852   -0.2739 C.ar      1 <0>         0.0025
     14 C11        -0.0056    1.0739   -0.2561 C.ar      1 <0>        -0.0715
     15 C12        -1.2031    1.7446   -0.3922 C.ar      1 <0>        -0.0858
     16 C13        -1.2162    3.1217   -0.5359 C.ar      1 <0>        -0.0842
     17 C14        -0.0283    3.8328   -0.5538 C.ar      1 <0>        -0.0849
     18 C15         1.1759    3.1728   -0.4240 C.ar      1 <0>        -0.1066
     19 Br1        -2.8627    4.0342   -0.7152 Br        1 <0>        -0.0427
     20 C16         4.4966   -1.8865    0.2804 C.ar      1 <0>        -0.0070
     21 C17         3.9763   -2.9618   -0.4393 C.ar      1 <0>        -0.0920
     22 C18         4.5156   -4.2217   -0.2781 C.ar      1 <0>        -0.1211
     23 C19         5.5627   -4.4213    0.6038 C.ar      1 <0>        -0.1153
     24 C20         6.0792   -3.3595    1.3248 C.ar      1 <0>        -0.1195
     25 C21         5.5521   -2.0940    1.1679 C.ar      1 <0>        -0.0972
     26 H2          9.9366    1.1951    0.2140 H         1 <0>         0.1259
     27 H3          8.5030    2.6632    1.5707 H         1 <0>         0.1267
     28 H4          6.0570    2.4218    1.4862 H         1 <0>         0.1202
     29 H5          6.4922   -0.7899   -1.3256 H         1 <0>         0.1265
     30 H6          8.9353   -0.5230   -1.2341 H         1 <0>         0.1284
     31 H7          0.0031    0.0001   -0.1407 H         1 <0>         0.1479
     32 H8         -2.1327    1.1949   -0.3831 H         1 <0>         0.1413
     33 H9         -0.0447    4.9064   -0.6700 H         1 <0>         0.1392
     34 H10         2.1018    3.7285   -0.4388 H         1 <0>         0.1273
     35 H11         3.1560   -2.8080   -1.1247 H         1 <0>         0.1249
     36 H12         4.1165   -5.0544   -0.8381 H         1 <0>         0.1243
     37 H13         5.9787   -5.4099    0.7297 H         1 <0>         0.1224
     38 H14         6.8964   -3.5216    2.0121 H         1 <0>         0.1235
     39 H15         5.9564   -1.2658    1.7310 H         1 <0>         0.1200
@<TRIPOS>BOND
     1    1    6 ar
     2    1    2 ar
     3    1   26 1
     4    2    3 ar
     5    2   27 1
     6    3    4 ar
     7    3   28 1
     8    4    5 ar
     9    4    7 1
    10    5    6 ar
    11    5   29 1
    12    6   30 1
    13    7   11 1
    14    7    8 2
    15    8    9 1
    16    8   20 1
    17    9   10 2
    18   10   11 1
    19   10   13 1
    20   11   12 1
    21   13   18 ar
    22   13   14 ar
    23   14   15 ar
    24   14   31 1
    25   15   16 ar
    26   15   32 1
    27   16   17 ar
    28   16   19 1
    29   17   18 ar
    30   17   33 1
    31   18   34 1
    32   20   25 ar
    33   20   21 ar
    34   21   22 ar
    35   21   35 1
    36   22   23 ar
    37   22   36 1
    38   23   24 ar
    39   23   37 1
    40   24   25 ar
    41   24   38 1
    42   25   39 1
@<TRIPOS>MOLECULE
ZINC02028562
   40    43     0     0     0
SMALL
USER_CHARGES
2-(4-bromophenyl)-4,5-diphenyl-1H-imidazole
@<TRIPOS>ATOM
      1 C1          8.8630    1.0848    0.1739 C.ar      1 <0>        -0.0809
      2 C2          8.0569    1.9109    0.9372 C.ar      1 <0>        -0.1135
      3 C3          6.6851    1.7759    0.8905 C.ar      1 <0>        -0.0902
      4 C4          6.1099    0.8022    0.0705 C.ar      1 <0>        -0.0742
      5 C5          6.9301   -0.0320   -0.6929 C.ar      1 <0>        -0.0695
      6 C6          8.3001    0.1183   -0.6410 C.ar      1 <0>        -0.1124
      7 C7          4.6426    0.6514    0.0156 C.2       1 <0>         0.1319
      8 C8          3.9261   -0.5301    0.1073 C.2       1 <0>         0.1017
      9 C9          2.4825    1.0717   -0.1347 C.cat     1 <0>         0.3749
     10 N1          3.7160    1.6568   -0.1373 N.pl3     1 <0>        -0.5080
     11 H1          3.9097    2.6332   -0.2325 H         1 <0>         0.4701
     12 C10         1.1953    1.7852   -0.2739 C.ar      1 <0>        -0.0752
     13 C11        -0.0056    1.0739   -0.2561 C.ar      1 <0>        -0.0703
     14 C12        -1.2031    1.7446   -0.3922 C.ar      1 <0>        -0.0786
     15 C13        -1.2162    3.1217   -0.5359 C.ar      1 <0>        -0.0522
     16 C14        -0.0283    3.8328   -0.5538 C.ar      1 <0>        -0.0792
     17 C15         1.1759    3.1728   -0.4240 C.ar      1 <0>        -0.0675
     18 Br1        -2.8627    4.0342   -0.7152 Br        1 <0>        -0.0040
     19 C16         4.4966   -1.8865    0.2804 C.ar      1 <0>        -0.0692
     20 C17         3.9763   -2.9618   -0.4393 C.ar      1 <0>        -0.0955
     21 C18         4.5156   -4.2217   -0.2781 C.ar      1 <0>        -0.1117
     22 C19         5.5627   -4.4213    0.6038 C.ar      1 <0>        -0.0833
     23 C20         6.0792   -3.3595    1.3248 C.ar      1 <0>        -0.1109
     24 C21         5.5521   -2.0940    1.1679 C.ar      1 <0>        -0.0726
     25 H2          9.9366    1.1951    0.2140 H         1 <0>         0.1370
     26 H3          8.5030    2.6632    1.5707 H         1 <0>         0.1379
     27 H4          6.0570    2.4218    1.4862 H         1 <0>         0.1272
     28 H5          6.4922   -0.7899   -1.3256 H         1 <0>         0.1316
     29 H6          8.9353   -0.5230   -1.2341 H         1 <0>         0.1386
     30 H7          0.0031    0.0001   -0.1407 H         1 <0>         0.1408
     31 H8         -2.1327    1.1949   -0.3831 H         1 <0>         0.1567
     32 H9         -0.0447    4.9064   -0.6700 H         1 <0>         0.1564
     33 H10         2.1018    3.7285   -0.4388 H         1 <0>         0.1410
     34 H11         3.1560   -2.8080   -1.1247 H         1 <0>         0.1258
     35 H12         4.1165   -5.0544   -0.8381 H         1 <0>         0.1375
     36 H13         5.9787   -5.4099    0.7297 H         1 <0>         0.1368
     37 H14         6.8964   -3.5216    2.0121 H         1 <0>         0.1381
     38 H15         5.9564   -1.2658    1.7310 H         1 <0>         0.1314
     39 N2          2.6212   -0.2259    0.0168 N.pl3     1 <0>        -0.4730
     40 H16         1.8506   -0.9031    0.0595 H         1 <0>         0.4766
@<TRIPOS>BOND
     1    1    6 ar
     2    1    2 ar
     3    1   25 1
     4    2    3 ar
     5    2   26 1
     6    3    4 ar
     7    3   27 1
     8    4    5 ar
     9    4    7 1
    10    5    6 ar
    11    5   28 1
    12    6   29 1
    13    7   10 1
    14    7    8 2
    15    8   19 1
    16    8   39 1
    17    9   10 1
    18    9   12 1
    19    9   39 2
    20   10   11 1
    21   12   17 ar
    22   12   13 ar
    23   13   14 ar
    24   13   30 1
    25   14   15 ar
    26   14   31 1
    27   15   16 ar
    28   15   18 1
    29   16   17 ar
    30   16   32 1
    31   17   33 1
    32   19   24 ar
    33   19   20 ar
    34   20   21 ar
    35   20   34 1
    36   21   22 ar
    37   21   35 1
    38   22   23 ar
    39   22   36 1
    40   23   24 ar
    41   23   37 1
    42   24   38 1
    43   39   40 1
@<TRIPOS>MOLECULE
ZINC00165878
   40    41     0     0     0
SMALL
USER_CHARGES

@<TRIPOS>ATOM
      1 C1         -0.0231    1.5341   -0.0040 C.3       1 <0>        -0.1372
      2 C2          0.0011    0.0042   -0.0022 C.3       1 <0>         0.0127
      3 C3          0.7426   -0.4927    1.2404 C.3       1 <0>        -0.1380
      4 C4         -1.4331   -0.5284    0.0127 C.3       1 <0>        -0.1369
      5 C5          0.7071   -0.4884   -1.2391 C.2       1 <0>         0.1023
      6 C6          2.0877   -0.4683   -1.4561 C.2       1 <0>        -0.2658
      7 C7          2.3237   -0.9983   -2.6873 C.2       1 <0>         0.3156
      8 N1          1.1285   -1.3382   -3.2214 N.pl3     1 <0>        -0.3921
      9 N2          0.1330   -1.0134   -2.2911 N.2       1 <0>        -0.2813
     10 C8          0.9136   -1.9445   -4.5376 C.3       1 <0>         0.0994
     11 N3          3.5715   -1.1609   -3.2892 N.am      1 <0>        -0.6562
     12 C9          4.6881   -0.7761   -2.6399 C.2       1 <0>         0.7146
     13 O1          4.6078   -0.2873   -1.5295 O.2       1 <0>        -0.5357
     14 N4          5.8938   -0.9332   -3.2214 N.am      1 <0>        -0.6778
     15 C10         7.0443   -0.4460   -2.5900 C.ar      1 <0>         0.1632
     16 C11         7.1467   -0.4836   -1.2057 C.ar      1 <0>        -0.1055
     17 C12         8.2830   -0.0027   -0.5852 C.ar      1 <0>        -0.0896
     18 C13         9.3189    0.5163   -1.3419 C.ar      1 <0>        -0.0479
     19 C14         9.2192    0.5553   -2.7215 C.ar      1 <0>        -0.0904
     20 C15         8.0874    0.0704   -3.3472 C.ar      1 <0>        -0.1309
     21 Cl1        10.7459    1.1199   -0.5589 Cl        1 <0>        -0.0673
     22 H1          0.9987    1.9136   -0.0146 H         1 <0>         0.0606
     23 H2         -0.5514    1.8881   -0.8892 H         1 <0>         0.0555
     24 H3         -0.5338    1.8904    0.8906 H         1 <0>         0.0642
     25 H4          0.2319   -0.1363    2.1350 H         1 <0>         0.0633
     26 H5          0.7598   -1.5825    1.2417 H         1 <0>         0.0561
     27 H6          1.7644   -0.1132    1.2298 H         1 <0>         0.0628
     28 H7         -1.9614   -0.1744   -0.8726 H         1 <0>         0.0603
     29 H8         -1.4159   -1.6183    0.0139 H         1 <0>         0.0560
     30 H9         -1.9438   -0.1721    0.9073 H         1 <0>         0.0591
     31 H10         2.8342   -0.0978   -0.7693 H         1 <0>         0.1744
     32 H11         0.9397   -3.0303   -4.4462 H         1 <0>         0.0751
     33 H12        -0.0570   -1.6357   -4.9258 H         1 <0>         0.0955
     34 H13         1.6983   -1.6184   -5.2203 H         1 <0>         0.0781
     35 H14         3.6356   -1.5508   -4.1750 H         1 <0>         0.4078
     36 H15         5.9643   -1.3839   -4.0775 H         1 <0>         0.4110
     37 H16         6.3383   -0.8882   -0.6147 H         1 <0>         0.1513
     38 H17         8.3630   -0.0314    0.4914 H         1 <0>         0.1389
     39 H18        10.0287    0.9615   -3.3097 H         1 <0>         0.1392
     40 H19         8.0119    0.0970   -4.4243 H         1 <0>         0.1359
@<TRIPOS>BOND
     1    1    2 1
     2    1   22 1
     3    1   23 1
     4    1   24 1
     5    2    3 1
     6    2    4 1
     7    2    5 1
     8    3   25 1
     9    3   26 1
    10    3   27 1
    11    4   28 1
    12    4   29 1
    13    4   30 1
    14    5    9 2
    15    5    6 1
    16    6    7 2
    17    6   31 1
    18    7    8 1
    19    7   11 1
    20    8    9 1
    21    8   10 1
    22   10   32 1
    23   10   33 1
    24   10   34 1
    25   11   12 am
    26   11   35 1
    27   12   13 2
    28   12   14 am
    29   14   15 1
    30   14   36 1
    31   15   20 ar
    32   15   16 ar
    33   16   17 ar
    34   16   37 1
    35   17   18 ar
    36   17   38 1
    37   18   19 ar
    38   18   21 1
    39   19   20 ar
    40   19   39 1
    41   20   40 1
@<TRIPOS>MOLECULE
ZINC03952166
   38    41     0     0     0
SMALL
USER_CHARGES

@<TRIPOS>ATOM
      1 C1         -0.0102    1.3369    0.5815 C.ar      1 <0>        -0.1007
      2 C2          1.1737    2.0536    0.5688 C.ar      1 <0>        -0.1024
      3 C3          2.3823    1.4018    0.4034 C.ar      1 <0>        -0.0889
      4 C4          2.4147    0.0300    0.2493 C.ar      1 <0>        -0.0613
      5 C5          1.2236   -0.6987    0.2612 C.ar      1 <0>         0.0066
      6 C6          0.0077   -0.0338    0.4290 C.ar      1 <0>        -0.1068
      7 C7          1.2501   -2.1675    0.0968 C.2       1 <0>         0.2465
      8 N1          0.1543   -2.9830    0.0863 N.pl3     1 <0>        -0.5495
      9 H1         -0.7702   -2.7062    0.1841 H         1 <0>         0.4235
     10 C8          0.6066   -4.2689   -0.0897 C.2       1 <0>         0.0544
     11 C9          1.9868   -4.1893   -0.1816 C.2       1 <0>         0.0563
     12 N2          2.3302   -2.8956   -0.0680 N.2       1 <0>        -0.4192
     13 C10         2.9160   -5.3255   -0.3750 C.ar      1 <0>         0.0437
     14 C11         2.6194   -6.3510   -1.2800 C.ar      1 <0>        -0.1556
     15 C12         3.5132   -7.3903   -1.4292 C.ar      1 <0>         0.1009
     16 N3          4.6338   -7.4256   -0.7328 N.ar      1 <0>        -0.4840
     17 C13         4.9517   -6.4794    0.1306 C.ar      1 <0>         0.0996
     18 C14         4.1179   -5.4009    0.3378 C.ar      1 <0>        -0.1460
     19 C15        -0.2153   -5.4926   -0.1656 C.ar      1 <0>        -0.0380
     20 C16         0.1329   -6.6188    0.5839 C.ar      1 <0>        -0.0565
     21 C17        -0.6390   -7.7589    0.5093 C.ar      1 <0>        -0.1471
     22 C18        -1.7585   -7.7889   -0.3074 C.ar      1 <0>         0.1115
     23 C19        -2.1087   -6.6747   -1.0537 C.ar      1 <0>        -0.1495
     24 C20        -1.3477   -5.5270   -0.9828 C.ar      1 <0>        -0.0775
     25 F1         -2.5110   -8.9088   -0.3765 F         1 <0>        -0.1341
     26 Br1         4.0679   -0.8595    0.0220 Br        1 <0>        -0.0028
     27 H2         -0.9501    1.8517    0.7156 H         1 <0>         0.1358
     28 H3          1.1536    3.1268    0.6882 H         1 <0>         0.1372
     29 H4          3.3025    1.9670    0.3944 H         1 <0>         0.1403
     30 H5         -0.9171   -0.5916    0.4395 H         1 <0>         0.1260
     31 H6          1.7040   -6.3289   -1.8526 H         1 <0>         0.1324
     32 H7          3.2932   -8.1863   -2.1251 H         1 <0>         0.1567
     33 H8          5.8792   -6.5489    0.6795 H         1 <0>         0.1575
     34 H9          4.3866   -4.6278    1.0425 H         1 <0>         0.1379
     35 H10         1.0052   -6.5967    1.2203 H         1 <0>         0.1359
     36 H11        -0.3705   -8.6304    1.0880 H         1 <0>         0.1429
     37 H12        -2.9817   -6.7042   -1.6889 H         1 <0>         0.1416
     38 H13        -1.6243   -4.6579   -1.5612 H         1 <0>         0.1325
@<TRIPOS>BOND
     1    1    6 ar
     2    1    2 ar
     3    1   27 1
     4    2    3 ar
     5    2   28 1
     6    3    4 ar
     7    3   29 1
     8    4    5 ar
     9    4   26 1
    10    5    6 ar
    11    5    7 1
    12    6   30 1
    13    7   12 2
    14    7    8 1
    15    8    9 1
    16    8   10 1
    17   10   11 2
    18   10   19 1
    19   11   12 1
    20   11   13 1
    21   13   18 ar
    22   13   14 ar
    23   14   15 ar
    24   14   31 1
    25   15   16 ar
    26   15   32 1
    27   16   17 ar
    28   17   18 ar
    29   17   33 1
    30   18   34 1
    31   19   24 ar
    32   19   20 ar
    33   20   21 ar
    34   20   35 1
    35   21   22 ar
    36   21   36 1
    37   22   23 ar
    38   22   25 1
    39   23   24 ar
    40   23   37 1
    41   24   38 1
@<TRIPOS>MOLECULE
ZINC03952166
   39    42     0     0     0
SMALL
USER_CHARGES
4-[2-(2-bromophenyl)-5-(4-fluorophenyl)-3H-imidazol-4-yl]pyridine
@<TRIPOS>ATOM
      1 C1         -4.9166    8.2619    2.7526 C.ar      1 <0>        -0.0827
      2 C2         -6.1686    8.6112    2.2775 C.ar      1 <0>        -0.0606
      3 C3         -6.7408    7.9063    1.2341 C.ar      1 <0>        -0.0674
      4 C4         -6.0623    6.8520    0.6553 C.ar      1 <0>        -0.0655
      5 C5         -4.8007    6.4917    1.1335 C.ar      1 <0>        -0.0549
      6 C6         -4.2300    7.2077    2.1872 C.ar      1 <0>        -0.0667
      7 C7         -4.0702    5.3611    0.5226 C.cat     1 <0>         0.3633
      8 N1         -2.7940    4.9876    0.8267 N.pl3     1 <0>        -0.5000
      9 H1         -2.1918    5.4222    1.4964 H         1 <0>         0.4708
     10 C8         -2.4904    3.9000    0.0388 C.2       1 <0>         0.1176
     11 C9         -3.6186    3.6424   -0.7228 C.2       1 <0>         0.1117
     12 C10        -3.7704    2.5572   -1.7203 C.ar      1 <0>        -0.0820
     13 C11        -2.6833    2.1693   -2.5029 C.ar      1 <0>        -0.0459
     14 C12        -2.8283    1.1552   -3.4268 C.ar      1 <0>        -0.1446
     15 C13        -4.0543    0.5291   -3.5849 C.ar      1 <0>         0.1426
     16 C14        -5.1387    0.9146   -2.8133 C.ar      1 <0>        -0.1456
     17 C15        -5.0024    1.9244   -1.8834 C.ar      1 <0>        -0.0658
     18 F1         -4.1928   -0.4601   -4.4946 F         1 <0>        -0.1201
     19 C16        -1.2186    3.1535    0.0149 C.ar      1 <0>        -0.0200
     20 C17        -1.2057    1.7517    0.0119 C.ar      1 <0>        -0.1319
     21 C18         0.0061    1.0953   -0.0057 C.ar      1 <0>         0.1173
     22 N2          1.1416    1.7680   -0.0294 N.ar      1 <0>        -0.4575
     23 C19         1.1751    3.0876   -0.0324 C.ar      1 <0>         0.1170
     24 C20         0.0113    3.8256   -0.0107 C.ar      1 <0>        -0.1483
     25 Br1        -6.8422    5.8945   -0.7767 Br        1 <0>         0.0089
     26 H2         -4.4759    8.8165    3.5678 H         1 <0>         0.1582
     27 H3         -6.7015    9.4378    2.7237 H         1 <0>         0.1592
     28 H4         -7.7185    8.1836    0.8685 H         1 <0>         0.1603
     29 H5         -3.2530    6.9365    2.5592 H         1 <0>         0.1452
     30 H6         -1.7284    2.6595   -2.3832 H         1 <0>         0.1415
     31 H7         -1.9860    0.8515   -4.0307 H         1 <0>         0.1541
     32 H8         -6.0924    0.4239   -2.9404 H         1 <0>         0.1534
     33 H9         -5.8484    2.2246   -1.2830 H         1 <0>         0.1338
     34 H10        -2.1309    1.1947    0.0267 H         1 <0>         0.1470
     35 H11         0.0269    0.0155   -0.0045 H         1 <0>         0.1725
     36 H12         2.1277    3.5960   -0.0526 H         1 <0>         0.1716
     37 H13         0.0463    4.9050   -0.0130 H         1 <0>         0.1425
     38 N3         -4.5496    4.5523   -0.3961 N.pl3     1 <0>        -0.4764
     39 H14        -5.4913    4.6081   -0.8013 H         1 <0>         0.4475
@<TRIPOS>BOND
     1    1    6 ar
     2    1    2 ar
     3    1   26 1
     4    2    3 ar
     5    2   27 1
     6    3    4 ar
     7    3   28 1
     8    4    5 ar
     9    4   25 1
    10    5    6 ar
    11    5    7 1
    12    6   29 1
    13    7    8 1
    14    7   38 2
    15    8    9 1
    16    8   10 1
    17   10   11 2
    18   10   19 1
    19   11   12 1
    20   11   38 1
    21   12   17 ar
    22   12   13 ar
    23   13   14 ar
    24   13   30 1
    25   14   15 ar
    26   14   31 1
    27   15   16 ar
    28   15   18 1
    29   16   17 ar
    30   16   32 1
    31   17   33 1
    32   19   24 ar
    33   19   20 ar
    34   20   21 ar
    35   20   34 1
    36   21   22 ar
    37   21   35 1
    38   22   23 ar
    39   23   24 ar
    40   23   36 1
    41   24   37 1
    42   38   39 1
@<TRIPOS>MOLECULE
ZINC26575654
   38    41     0     0     0
SMALL
USER_CHARGES
4-[2-(4-bromophenyl)-5-(4-fluorophenyl)-1H-imidazol-4-yl]pyridine
@<TRIPOS>ATOM
      1 C1          2.9593   -2.1453    0.5930 C.ar      1 <0>        -0.0571
      2 C2          3.4318   -3.4385    0.5185 C.ar      1 <0>        -0.1470
      3 C3          2.7990   -4.3646   -0.2959 C.ar      1 <0>         0.1116
      4 C4          1.6849   -3.9989   -1.0349 C.ar      1 <0>        -0.1492
      5 C5          1.2002   -2.7100   -0.9644 C.ar      1 <0>        -0.0785
      6 C6          1.8340   -1.7721   -0.1458 C.ar      1 <0>        -0.0373
      7 C7          1.3202   -0.3907   -0.0664 C.2       1 <0>         0.0451
      8 C8          2.0609    0.7767   -0.1573 C.2       1 <0>         0.0564
      9 N1          1.2119    1.8104   -0.0346 N.2       1 <0>        -0.4489
     10 C9         -0.0101    1.3579    0.1268 C.2       1 <0>         0.2673
     11 N2          0.0124   -0.0077    0.1131 N.pl3     1 <0>        -0.5613
     12 H1         -0.7749   -0.7693    0.2134 H         1 <0>         0.4531
     13 C10        -1.2185    2.1935    0.2908 C.ar      1 <0>         0.0000
     14 C11        -2.4697    1.5937    0.4433 C.ar      1 <0>        -0.1037
     15 C12        -3.5928    2.3786    0.6017 C.ar      1 <0>        -0.0859
     16 C13        -3.4825    3.7588    0.5982 C.ar      1 <0>        -0.0829
     17 C14        -2.2449    4.3596    0.4417 C.ar      1 <0>        -0.0861
     18 C15        -1.1137    3.5854    0.2881 C.ar      1 <0>        -0.0714
     19 Br1        -5.0284    4.8276    0.8075 Br        1 <0>        -0.0416
     20 C16         3.5254    0.8684   -0.3546 C.ar      1 <0>         0.0408
     21 C17         4.2900    1.7996    0.3572 C.ar      1 <0>        -0.1478
     22 C18         5.6517    1.8477    0.1459 C.ar      1 <0>         0.1006
     23 N3          6.2321    1.0385   -0.7201 N.ar      1 <0>        -0.4838
     24 C19         5.5476    0.1498   -1.4154 C.ar      1 <0>         0.1015
     25 C20         4.1824    0.0302   -1.2625 C.ar      1 <0>        -0.1555
     26 F1          3.2698   -5.6288   -0.3692 F         1 <0>        -0.1340
     27 H2          3.4558   -1.4233    1.2244 H         1 <0>         0.1351
     28 H3          4.2993   -3.7293    1.0923 H         1 <0>         0.1427
     29 H4          1.1958   -4.7248   -1.6675 H         1 <0>         0.1417
     30 H5          0.3324   -2.4260   -1.5413 H         1 <0>         0.1333
     31 H6         -2.5576    0.5173    0.4417 H         1 <0>         0.1281
     32 H7         -4.5609    1.9157    0.7239 H         1 <0>         0.1394
     33 H8         -2.1652    5.4366    0.4394 H         1 <0>         0.1415
     34 H9         -0.1490    4.0552    0.1658 H         1 <0>         0.1475
     35 H10         3.8210    2.4679    1.0642 H         1 <0>         0.1379
     36 H11         6.2509    2.5601    0.6935 H         1 <0>         0.1584
     37 H12         6.0636   -0.4923   -2.1139 H         1 <0>         0.1572
     38 H13         3.6287   -0.6995   -1.8345 H         1 <0>         0.1326
@<TRIPOS>BOND
     1    1    6 ar
     2    1    2 ar
     3    1   27 1
     4    2    3 ar
     5    2   28 1
     6    3    4 ar
     7    3   26 1
     8    4    5 ar
     9    4   29 1
    10    5    6 ar
    11    5   30 1
    12    6    7 1
    13    7   11 1
    14    7    8 2
    15    8    9 1
    16    8   20 1
    17    9   10 2
    18   10   11 1
    19   10   13 1
    20   11   12 1
    21   13   18 ar
    22   13   14 ar
    23   14   15 ar
    24   14   31 1
    25   15   16 ar
    26   15   32 1
    27   16   17 ar
    28   16   19 1
    29   17   18 ar
    30   17   33 1
    31   18   34 1
    32   20   25 ar
    33   20   21 ar
    34   21   22 ar
    35   21   35 1
    36   22   23 ar
    37   22   36 1
    38   23   24 ar
    39   24   25 ar
    40   24   37 1
    41   25   38 1
