@<TRIPOS>MOLECULE
ZINC04877108
   25    27     0     0     0
SMALL
USER_CHARGES

@<TRIPOS>ATOM
      1 C1          0.1828    1.2294   -0.3340 C.ar      1 <0>        -0.1325
      2 C2          1.3596    1.9166   -0.1098 C.ar      1 <0>        -0.0899
      3 C3          2.3485    1.3581    0.6809 C.ar      1 <0>        -0.0488
      4 C4          2.1615    0.1101    1.2488 C.ar      1 <0>        -0.0898
      5 C5          0.9867   -0.5815    1.0279 C.ar      1 <0>        -0.0966
      6 C6         -0.0078   -0.0231    0.2351 C.ar      1 <0>         0.1558
      7 N1         -1.1986   -0.7210    0.0101 N.pl3     1 <0>        -0.6386
      8 C7         -1.1818   -2.0984   -0.1018 C.ar      1 <0>         0.5113
      9 C8         -2.3817   -2.8285   -0.2067 C.ar      1 <0>        -0.3263
     10 C9         -3.7516   -2.4889   -0.2298 C.2       1 <0>         0.1074
     11 N2         -4.4465   -3.5845   -0.3454 N.2       1 <0>        -0.2417
     12 N3         -3.5839   -4.6865   -0.4037 N.pl3     1 <0>        -0.4769
     13 H1         -3.8523   -5.6145   -0.4902 H         1 <0>         0.4500
     14 C10        -2.3022   -4.2302   -0.3187 C.ar      1 <0>         0.3735
     15 N4         -1.1014   -4.8073   -0.3214 N.ar      1 <0>        -0.5693
     16 C11        -0.0086   -4.0830   -0.2213 C.ar      1 <0>         0.3893
     17 N5         -0.0332   -2.7658   -0.1186 N.ar      1 <0>        -0.5934
     18 Cl1         3.8268    2.2244    0.9602 Cl        1 <0>        -0.0686
     19 H2         -0.5904    1.6675   -0.9478 H         1 <0>         0.1352
     20 H3          1.5083    2.8906   -0.5521 H         1 <0>         0.1380
     21 H4          2.9351   -0.3236    1.8652 H         1 <0>         0.1377
     22 H5          0.8414   -1.5556    1.4711 H         1 <0>         0.1434
     23 H6         -2.0364   -0.2383   -0.0675 H         1 <0>         0.4243
     24 H7         -4.1554   -1.4894   -0.1629 H         1 <0>         0.1977
     25 H8          0.9479   -4.5846   -0.2266 H         1 <0>         0.2086
@<TRIPOS>BOND
     1    1    6 ar
     2    1    2 ar
     3    1   19 1
     4    2    3 ar
     5    2   20 1
     6    3    4 ar
     7    3   18 1
     8    4    5 ar
     9    4   21 1
    10    5    6 ar
    11    5   22 1
    12    6    7 1
    13    7    8 1
    14    7   23 1
    15    8   17 ar
    16    8    9 ar
    17    9   14 ar
    18    9   10 1
    19   10   11 2
    20   10   24 1
    21   11   12 1
    22   12   13 1
    23   12   14 1
    24   14   15 ar
    25   15   16 ar
    26   16   17 ar
    27   16   25 1
@<TRIPOS>MOLECULE
ZINC13687055
   25    27     0     0     0
SMALL
USER_CHARGES

@<TRIPOS>ATOM
      1 C1          0.0470    1.1280    0.1164 C.ar      1 <0>        -0.0694
      2 C2          1.2137    1.8329    0.3403 C.ar      1 <0>        -0.1557
      3 C3          2.4011    1.4140   -0.2463 C.ar      1 <0>         0.1807
      4 C4          2.4121    0.2865   -1.0572 C.ar      1 <0>        -0.1473
      5 C5          1.2410   -0.4154   -1.2780 C.ar      1 <0>         0.1198
      6 C6          0.0591    0.0060   -0.6909 C.ar      1 <0>        -0.1682
      7 F1          1.2496   -1.5121   -2.0669 F         1 <0>        -0.1353
      8 N1          3.5827    2.1261   -0.0212 N.pl3     1 <0>        -0.6382
      9 C7          4.7877    1.4551    0.0680 C.ar      1 <0>         0.5105
     10 C8          6.0013    2.1623    0.1725 C.ar      1 <0>        -0.3256
     11 C9          6.3537    3.5285    0.2149 C.2       1 <0>         0.1076
     12 N2          7.6491    3.6175    0.3191 N.2       1 <0>        -0.2414
     13 N3          8.2092    2.3341    0.3504 N.pl3     1 <0>        -0.4767
     14 H1          9.1542    2.1280    0.4239 H         1 <0>         0.4501
     15 C10         7.1979    1.4246    0.2603 C.ar      1 <0>         0.3734
     16 N4          7.1350    0.0940    0.2414 N.ar      1 <0>        -0.5684
     17 C11         5.9775   -0.5218    0.1427 C.ar      1 <0>         0.3897
     18 N5          4.8292    0.1273    0.0627 N.ar      1 <0>        -0.5930
     19 H2         -0.8750    1.4515    0.5763 H         1 <0>         0.1384
     20 H3          1.2027    2.7095    0.9710 H         1 <0>         0.1328
     21 H4          3.3337   -0.0415   -1.5150 H         1 <0>         0.1466
     22 H5         -0.8545   -0.5433   -0.8639 H         1 <0>         0.1372
     23 H6          3.5569    3.0913    0.0724 H         1 <0>         0.4257
     24 H7          5.6656    4.3596    0.1687 H         1 <0>         0.1980
     25 H8          5.9643   -1.6016    0.1301 H         1 <0>         0.2088
@<TRIPOS>BOND
     1    1    6 ar
     2    1    2 ar
     3    1   19 1
     4    2    3 ar
     5    2   20 1
     6    3    4 ar
     7    3    8 1
     8    4    5 ar
     9    4   21 1
    10    5    6 ar
    11    5    7 1
    12    6   22 1
    13    8    9 1
    14    8   23 1
    15    9   18 ar
    16    9   10 ar
    17   10   15 ar
    18   10   11 1
    19   11   12 2
    20   11   24 1
    21   12   13 1
    22   13   14 1
    23   13   15 1
    24   15   16 ar
    25   16   17 ar
    26   17   18 ar
    27   17   25 1
@<TRIPOS>MOLECULE
ZINC13685546
   25    27     0     0     0
SMALL
USER_CHARGES

@<TRIPOS>ATOM
      1 C1          0.1822    1.2302   -0.3329 C.ar      1 <0>        -0.1396
      2 C2          1.3589    1.9172   -0.1086 C.ar      1 <0>        -0.0698
      3 C3          2.3482    1.3584    0.6811 C.ar      1 <0>        -0.1055
      4 C4          2.1618    0.1101    1.2481 C.ar      1 <0>        -0.0699
      5 C5          0.9871   -0.5817    1.0273 C.ar      1 <0>        -0.1037
      6 C6         -0.0078   -0.0231    0.2351 C.ar      1 <0>         0.1676
      7 N1         -1.1984   -0.7210    0.0101 N.pl3     1 <0>        -0.6392
      8 C7         -1.1815   -2.0984   -0.1018 C.ar      1 <0>         0.5110
      9 C8         -2.3814   -2.8285   -0.2066 C.ar      1 <0>        -0.3258
     10 C9         -3.7513   -2.4890   -0.2298 C.2       1 <0>         0.1074
     11 N2         -4.4462   -3.5847   -0.3449 N.2       1 <0>        -0.2413
     12 N3         -3.5835   -4.6867   -0.4028 N.pl3     1 <0>        -0.4768
     13 H1         -3.8519   -5.6148   -0.4888 H         1 <0>         0.4501
     14 C10        -2.3018   -4.2303   -0.3181 C.ar      1 <0>         0.3735
     15 N4         -1.1010   -4.8073   -0.3206 N.ar      1 <0>        -0.5687
     16 C11        -0.0082   -4.0829   -0.2209 C.ar      1 <0>         0.3893
     17 N5         -0.0329   -2.7657   -0.1186 N.ar      1 <0>        -0.5928
     18 Br1         3.9584    2.3021    0.9853 Br        1 <0>        -0.0494
     19 H2         -0.5915    1.6688   -0.9456 H         1 <0>         0.1349
     20 H3          1.5073    2.8916   -0.5502 H         1 <0>         0.1373
     21 H4          2.9358   -0.3239    1.8637 H         1 <0>         0.1369
     22 H5          0.8423   -1.5561    1.4699 H         1 <0>         0.1432
     23 H6         -2.0362   -0.2383   -0.0674 H         1 <0>         0.4246
     24 H7         -4.1552   -1.4896   -0.1632 H         1 <0>         0.1977
     25 H8          0.9482   -4.5845   -0.2264 H         1 <0>         0.2088
@<TRIPOS>BOND
     1    1    6 ar
     2    1    2 ar
     3    1   19 1
     4    2    3 ar
     5    2   20 1
     6    3    4 ar
     7    3   18 1
     8    4    5 ar
     9    4   21 1
    10    5    6 ar
    11    5   22 1
    12    6    7 1
    13    7    8 1
    14    7   23 1
    15    8   17 ar
    16    8    9 ar
    17    9   14 ar
    18    9   10 1
    19   10   11 2
    20   10   24 1
    21   11   12 1
    22   12   13 1
    23   12   14 1
    24   14   15 ar
    25   15   16 ar
    26   16   17 ar
    27   16   25 1
@<TRIPOS>MOLECULE
ZINC04844400
   31    34     0     0     0
SMALL
USER_CHARGES

@<TRIPOS>ATOM
      1 C1         -0.0158    1.3562   -0.1817 C.ar      1 <0>        -0.1200
      2 C2          1.1630    2.0772   -0.3632 C.ar      1 <0>        -0.1128
      3 C3          2.3714    1.4513   -0.3783 C.ar      1 <0>        -0.1052
      4 C4          2.4349    0.0571   -0.2086 C.ar      1 <0>        -0.0329
      5 C5          3.6645   -0.6213   -0.2182 C.ar      1 <0>        -0.0977
      6 C6          3.6864   -1.9880   -0.0483 C.ar      1 <0>         0.1441
      7 C7          2.4971   -2.7045    0.1333 C.ar      1 <0>        -0.1331
      8 C8          1.2950   -2.0706    0.1460 C.ar      1 <0>        -0.0854
      9 C9          1.2360   -0.6762   -0.0240 C.ar      1 <0>        -0.0645
     10 C10         0.0072    0.0056   -0.0144 C.ar      1 <0>        -0.1028
     11 N1          4.9079   -2.6665   -0.0577 N.pl3     1 <0>        -0.6362
     12 C11         6.0424   -2.0541    0.4404 C.ar      1 <0>         0.5110
     13 C12         7.3027   -2.6740    0.3338 C.ar      1 <0>        -0.3276
     14 C13         7.7673   -3.8924   -0.2067 C.2       1 <0>         0.1077
     15 N2          9.0558   -3.9587   -0.0274 N.2       1 <0>        -0.2432
     16 N3          9.5007   -2.8050    0.6305 N.pl3     1 <0>        -0.4775
     17 H1         10.4176   -2.6110    0.8802 H         1 <0>         0.4495
     18 C14         8.4233   -2.0018    0.8594 C.ar      1 <0>         0.3735
     19 N4          8.2481   -0.8125    1.4335 N.ar      1 <0>        -0.5712
     20 C15         7.0510   -0.2739    1.5094 C.ar      1 <0>         0.3886
     21 N5          5.9718   -0.8640    1.0264 N.ar      1 <0>        -0.5928
     22 H2         -0.9615    1.8776   -0.1692 H         1 <0>         0.1227
     23 H3          1.1168    3.1482   -0.4941 H         1 <0>         0.1233
     24 H4          3.2768    2.0227   -0.5203 H         1 <0>         0.1271
     25 H5          4.5859   -0.0756   -0.3580 H         1 <0>         0.1428
     26 H6          2.5356   -3.7758    0.2648 H         1 <0>         0.1267
     27 H7          0.3863   -2.6372    0.2864 H         1 <0>         0.1321
     28 H8         -0.9146   -0.5395    0.1251 H         1 <0>         0.1265
     29 H9          4.9596   -3.5673   -0.4138 H         1 <0>         0.4226
     30 H10         7.1574   -4.6429   -0.6876 H         1 <0>         0.1971
     31 H11         6.9462    0.6917    1.9817 H         1 <0>         0.2075
@<TRIPOS>BOND
     1    1   10 ar
     2    1    2 ar
     3    1   22 1
     4    2    3 ar
     5    2   23 1
     6    3    4 ar
     7    3   24 1
     8    4    9 ar
     9    4    5 ar
    10    5    6 ar
    11    5   25 1
    12    6    7 ar
    13    6   11 1
    14    7    8 ar
    15    7   26 1
    16    8    9 ar
    17    8   27 1
    18    9   10 ar
    19   10   28 1
    20   11   12 1
    21   11   29 1
    22   12   21 ar
    23   12   13 ar
    24   13   18 ar
    25   13   14 1
    26   14   15 2
    27   14   30 1
    28   15   16 1
    29   16   17 1
    30   16   18 1
    31   18   19 ar
    32   19   20 ar
    33   20   21 ar
    34   20   31 1
@<TRIPOS>MOLECULE
ZINC13816313
   27    29     0     0     0
SMALL
USER_CHARGES

@<TRIPOS>ATOM
      1 C1          0.1361    1.2754   -0.2432 C.ar      1 <0>        -0.1261
      2 C2          1.3137    1.9630   -0.0245 C.ar      1 <0>        -0.1243
      3 C3          2.3514    1.3592    0.6655 C.ar      1 <0>         0.0761
      4 C4          2.2109    0.0652    1.1381 C.ar      1 <0>        -0.1224
      5 C5          1.0350   -0.6262    0.9222 C.ar      1 <0>        -0.1088
      6 C6         -0.0071   -0.0227    0.2299 C.ar      1 <0>         0.1544
      7 N1         -1.1986   -0.7207    0.0101 N.pl3     1 <0>        -0.6392
      8 C7         -1.1818   -2.1126   -0.1030 C.2       1 <0>         0.3784
      9 C8         -2.3474   -2.9839   -0.2182 C.ar      1 <0>        -0.3511
     10 C9         -3.7377   -2.7850   -0.2544 C.ar      1 <0>         0.5213
     11 N2         -4.5246   -3.8502   -0.3717 N.ar      1 <0>        -0.6073
     12 C10        -4.0179   -5.0679   -0.4527 C.ar      1 <0>         0.3963
     13 N3         -2.7246   -5.3028   -0.4228 N.ar      1 <0>        -0.5771
     14 C11        -1.8536   -4.3001   -0.3079 C.ar      1 <0>         0.3981
     15 N4         -0.4957   -4.2162   -0.2502 N.pl3     1 <0>        -0.4727
     16 H1          0.1148   -4.9689   -0.2896 H         1 <0>         0.4500
     17 N5         -0.1184   -2.8743   -0.1307 N.2       1 <0>        -0.2902
     18 N6         -4.2736   -1.5149   -0.1697 N.pl3     1 <0>        -0.8229
     19 F1          3.5027    2.0334    0.8775 F         1 <0>        -0.1391
     20 H2         -0.6745    1.7482   -0.7779 H         1 <0>         0.1364
     21 H3          1.4254    2.9723   -0.3922 H         1 <0>         0.1410
     22 H4          3.0217   -0.4039    1.6757 H         1 <0>         0.1399
     23 H5          0.9259   -1.6354    1.2910 H         1 <0>         0.1457
     24 H6         -2.0368   -0.2382   -0.0639 H         1 <0>         0.4156
     25 H7         -4.6940   -5.9048   -0.5471 H         1 <0>         0.2079
     26 H8         -3.6882   -0.7462   -0.0840 H         1 <0>         0.4033
     27 H9         -5.2354   -1.3915   -0.1958 H         1 <0>         0.4164
@<TRIPOS>BOND
     1    1    6 ar
     2    1    2 ar
     3    1   20 1
     4    2    3 ar
     5    2   21 1
     6    3    4 ar
     7    3   19 1
     8    4    5 ar
     9    4   22 1
    10    5    6 ar
    11    5   23 1
    12    6    7 1
    13    7    8 1
    14    7   24 1
    15    8   17 2
    16    8    9 1
    17    9   14 ar
    18    9   10 ar
    19   10   11 ar
    20   10   18 1
    21   11   12 ar
    22   12   13 ar
    23   12   25 1
    24   13   14 ar
    25   14   15 1
    26   15   16 1
    27   15   17 1
    28   18   26 1
    29   18   27 1
@<TRIPOS>MOLECULE
ZINC19405490
   34    36     0     0     0
SMALL
USER_CHARGES
4-[5-(4-piperidyl)-1H-pyrazol-3-yl]pyridine
@<TRIPOS>ATOM
      1 C1         -0.0169    1.3934    0.0389 C.ar      1 <0>        -0.1695
      2 C2          1.1804    2.0791    0.0406 C.ar      1 <0>         0.1147
      3 N1          2.3306    1.4330    0.0300 N.ar      1 <0>        -0.4746
      4 C3          2.3925    0.1153    0.0184 C.ar      1 <0>         0.1122
      5 C4          1.2429   -0.6475    0.0160 C.ar      1 <0>        -0.1446
      6 C5          0.0022   -0.0042    0.0264 C.ar      1 <0>         0.0008
      7 C6         -1.2604   -0.7833    0.0247 C.2       1 <0>         0.1219
      8 C7         -1.3674   -2.1879    0.0126 C.2       1 <0>        -0.2461
      9 C8         -2.6808   -2.5031    0.0161 C.2       1 <0>         0.0560
     10 N2         -3.3861   -1.3514    0.0203 N.2       1 <0>        -0.2961
     11 H1         -2.6265    0.8056    0.0291 H         1 <0>         0.4766
     12 N3         -2.4786   -0.2844    0.0252 N.pl3     1 <0>        -0.4208
     13 C9         -3.2579   -3.8952    0.0154 C.3       1 <0>        -0.0113
     14 C10        -3.5879   -4.3117   -1.4207 C.3       1 <0>        -0.1415
     15 C11        -4.2309   -5.7004   -1.4089 C.3       1 <0>         0.0005
     16 N4         -5.4525   -5.6701   -0.5946 N.4       1 <0>        -0.5363
     17 C12        -5.1529   -5.3194    0.7995 C.3       1 <0>        -0.0035
     18 C13        -4.5389   -3.9186    0.8538 C.3       1 <0>        -0.1419
     19 H2         -0.9549    1.9287    0.0428 H         1 <0>         0.1322
     20 H3          1.1758    3.1590    0.0502 H         1 <0>         0.1651
     21 H4          3.3558   -0.3729    0.0105 H         1 <0>         0.1662
     22 H5          1.3008   -1.7260    0.0065 H         1 <0>         0.1428
     23 H6         -0.5454   -2.8883    0.0024 H         1 <0>         0.1493
     24 H7         -2.5132   -4.5811    0.4454 H         1 <0>         0.1050
     25 H8         -4.2869   -3.5858   -1.8615 H         1 <0>         0.0919
     26 H9         -2.6635   -4.3388   -2.0163 H         1 <0>         0.1134
     27 H10        -4.4844   -5.9958   -2.4377 H         1 <0>         0.1341
     28 H11        -3.5248   -6.4278   -0.9820 H         1 <0>         0.1288
     29 H12        -6.1471   -4.9214   -1.0032 H         1 <0>         0.4504
     30 H13        -6.0813   -5.3354    1.3892 H         1 <0>         0.1341
     31 H14        -4.4413   -6.0476    1.2160 H         1 <0>         0.1278
     32 H15        -4.2996   -3.6614    1.8962 H         1 <0>         0.1109
     33 H16        -5.2544   -3.1869    0.4506 H         1 <0>         0.0967
     34 H17        -5.9297   -6.6611   -0.6123 H         1 <0>         0.4546
@<TRIPOS>BOND
     1    1    6 ar
     2    1    2 ar
     3    1   19 1
     4    2    3 ar
     5    2   20 1
     6    3    4 ar
     7    4    5 ar
     8    4   21 1
     9    5    6 ar
    10    5   22 1
    11    6    7 1
    12    7    8 2
    13    7   12 1
    14    8   23 1
    15    8    9 1
    16    9   13 1
    17    9   10 2
    18   10   12 1
    19   11   12 1
    20   13   18 1
    21   13   14 1
    22   13   24 1
    23   14   15 1
    24   14   25 1
    25   14   26 1
    26   15   16 1
    27   15   27 1
    28   15   28 1
    29   16   17 1
    30   16   29 1
    31   16   34 1
    32   17   18 1
    33   17   30 1
    34   17   31 1
    35   18   32 1
    36   18   33 1
@<TRIPOS>MOLECULE
ZINC06422975
   29    31     0     0     0
SMALL
USER_CHARGES
4-(9H-purin-6-ylamino)benzamide
@<TRIPOS>ATOM
      1 C1          1.2813   -2.0176    0.4251 C.ar      1 <0>        -0.0525
      2 C2          1.2341   -0.6662    0.1692 C.ar      1 <0>        -0.1005
      3 C3          0.0275    0.0208    0.2687 C.ar      1 <0>         0.1132
      4 C4         -1.1337   -0.6552    0.6324 C.ar      1 <0>        -0.1183
      5 C5         -1.0941   -2.0076    0.8844 C.ar      1 <0>        -0.0782
      6 C6          0.1160   -2.7003    0.7853 C.ar      1 <0>        -0.1384
      7 C7          0.1630   -4.1492    1.0599 C.2       1 <0>         0.5633
      8 O1          1.2162   -4.7507    0.9730 O.2       1 <0>        -0.5384
      9 N1         -0.9615   -4.8061    1.4071 N.am      1 <0>        -0.8508
     10 N2         -0.0168    1.3877    0.0097 N.pl3     1 <0>        -0.5511
     11 C8         -1.1253    1.9394   -0.6116 C.ar      1 <0>         0.4335
     12 C9         -1.2409    3.3305   -0.7733 C.ar      1 <0>        -0.0698
     13 C10        -2.3859    3.8307   -1.4163 C.ar      1 <0>         0.2933
     14 N3         -2.2381    5.1944   -1.4452 N.pl3     1 <0>        -0.5828
     15 H1         -2.8842    5.8515   -1.8334 H         1 <0>         0.4411
     16 C11        -1.0490    5.4892   -0.8477 C.2       1 <0>         0.2705
     17 N4         -0.4639    4.3941   -0.4573 N.2       1 <0>        -0.4609
     18 N5         -3.3156    2.9784   -1.8352 N.ar      1 <0>        -0.5359
     19 C12        -3.1671    1.6827   -1.6570 C.ar      1 <0>         0.3466
     20 N6         -2.1067    1.1657   -1.0635 N.ar      1 <0>        -0.5616
     21 H2          2.2177   -2.5501    0.3474 H         1 <0>         0.1434
     22 H3          2.1341   -0.1382   -0.1095 H         1 <0>         0.1401
     23 H4         -2.0675   -0.1186    0.7127 H         1 <0>         0.1377
     24 H5         -1.9962   -2.5323    1.1625 H         1 <0>         0.1289
     25 H6         -1.8017   -4.3264    1.4765 H         1 <0>         0.4011
     26 H7         -0.9306   -5.7587    1.5876 H         1 <0>         0.4064
     27 H8          0.0541    1.8924    0.8701 H         1 <0>         0.3806
     28 H9         -0.6509    6.4847   -0.7174 H         1 <0>         0.2314
     29 H10        -3.9413    1.0174   -2.0096 H         1 <0>         0.2082
@<TRIPOS>BOND
     1    1    6 ar
     2    1    2 ar
     3    1   21 1
     4    2    3 ar
     5    2   22 1
     6    3    4 ar
     7    3   10 1
     8    4    5 ar
     9    4   23 1
    10    5    6 ar
    11    5   24 1
    12    6    7 1
    13    7    8 2
    14    7    9 am
    15    9   25 1
    16    9   26 1
    17   10   11 1
    18   10   27 1
    19   11   20 ar
    20   11   12 ar
    21   12   17 1
    22   12   13 ar
    23   13   14 1
    24   13   18 ar
    25   14   15 1
    26   14   16 1
    27   16   17 2
    28   16   28 1
    29   18   19 ar
    30   19   20 ar
    31   19   29 1
@<TRIPOS>MOLECULE
ZINC17131234
   20    22     0     0     0
SMALL
USER_CHARGES

@<TRIPOS>ATOM
      1 C1         -0.0167    1.3818    0.0096 C.ar      1 <0>         0.0533
      2 C2          1.1895    2.0820    0.0019 C.ar      1 <0>        -0.1983
      3 C3          1.5276    3.5038    0.0063 C.2       1 <0>         0.0938
      4 N1          2.8251    3.6038   -0.0056 N.2       1 <0>        -0.2434
      5 N2          3.4079    2.3330   -0.0180 N.pl3     1 <0>        -0.5095
      6 H1          4.3607    2.1515   -0.0283 H         1 <0>         0.4446
      7 C4          2.4180    1.3840   -0.0136 C.ar      1 <0>         0.1718
      8 C5          2.4328   -0.0048   -0.0212 C.ar      1 <0>        -0.1394
      9 C6          1.2348   -0.7072   -0.0135 C.ar      1 <0>         0.1896
     10 C7          0.0021   -0.0041    0.0020 C.ar      1 <0>        -0.2343
     11 C8         -1.2406   -0.7921    0.0094 C.2       1 <0>         0.5572
     12 O1         -2.3312   -0.2519    0.0223 O.2       1 <0>        -0.5084
     13 N3         -1.1244   -2.1401    0.0009 N.am      1 <0>        -0.6638
     14 H2         -1.9229   -2.6908    0.0050 H         1 <0>         0.4221
     15 C9          0.1007   -2.7308   -0.0140 C.2       1 <0>         0.3878
     16 N4          1.2147   -2.0663   -0.0209 N.2       1 <0>        -0.5272
     17 H3         -0.9562    1.9143    0.0260 H         1 <0>         0.1482
     18 H4          0.8260    4.3249    0.0171 H         1 <0>         0.2049
     19 H5          3.3727   -0.5366   -0.0334 H         1 <0>         0.1439
     20 H6          0.1484   -3.8097   -0.0204 H         1 <0>         0.2070
@<TRIPOS>BOND
     1    1   10 ar
     2    1    2 ar
     3    1   17 1
     4    2    7 ar
     5    2    3 1
     6    3    4 2
     7    3   18 1
     8    4    5 1
     9    5    6 1
    10    5    7 1
    11    7    8 ar
    12    8    9 ar
    13    8   19 1
    14    9   16 1
    15    9   10 ar
    16   10   11 1
    17   11   12 2
    18   11   13 am
    19   13   14 1
    20   13   15 1
    21   15   16 2
    22   15   20 1
@<TRIPOS>MOLECULE
ZINC01493878
   48    50     0     0     0
SMALL
USER_CHARGES

@<TRIPOS>ATOM
      1 C1         -1.0955   -5.0083   -6.9234 C.3       1 <0>         0.0847
      2 N1         -1.5520   -4.3038   -5.7228 N.am      1 <0>        -0.7137
      3 C2         -1.8827   -5.0004   -4.6175 C.2       1 <0>         0.5696
      4 O1         -1.8023   -6.2129   -4.6168 O.2       1 <0>        -0.5284
      5 C3         -2.3445   -4.2878   -3.4031 C.ar      1 <0>         0.1129
      6 C4         -2.6788   -5.0128   -2.2640 C.ar      1 <0>        -0.1883
      7 C5         -3.1110   -4.3279   -1.1310 C.ar      1 <0>         0.1595
      8 C6         -3.1903   -2.9389   -1.1877 C.ar      1 <0>        -0.1766
      9 C7         -2.8404   -2.2885   -2.3571 C.ar      1 <0>         0.1349
     10 N2         -2.4302   -2.9626   -3.4105 N.ar      1 <0>        -0.4815
     11 O2         -3.4471   -4.9979    0.0005 O.3       1 <0>        -0.2437
     12 C8         -3.4462   -6.3570   -0.0383 C.ar      1 <0>         0.0568
     13 C9         -2.2447   -7.0505   -0.0178 C.ar      1 <0>        -0.1074
     14 C10        -2.2431   -8.4307   -0.0577 C.ar      1 <0>        -0.1009
     15 C11        -3.4442   -9.1246   -0.1179 C.ar      1 <0>         0.1671
     16 C12        -4.6464   -8.4301   -0.1379 C.ar      1 <0>        -0.1272
     17 C13        -4.6469   -7.0500   -0.0928 C.ar      1 <0>        -0.0940
     18 N3         -3.4432  -10.5252   -0.1588 N.am      1 <0>        -0.6776
     19 C14        -2.5108  -11.2187    0.5239 C.2       1 <0>         0.7077
     20 O3         -1.6217  -10.6297    1.1080 O.2       1 <0>        -0.5493
     21 N4         -2.5639  -12.5649    0.5593 N.am      1 <0>        -0.6795
     22 C15        -1.6655  -13.2800    1.3600 C.ar      1 <0>         0.1700
     23 C16        -1.2529  -12.7583    2.5792 C.ar      1 <0>        -0.0742
     24 C17        -0.3670  -13.4659    3.3674 C.ar      1 <0>        -0.0871
     25 C18         0.1097  -14.6941    2.9434 C.ar      1 <0>        -0.0077
     26 C19        -0.2993  -15.2159    1.7290 C.ar      1 <0>        -0.1564
     27 C20        -1.1898  -14.5147    0.9394 C.ar      1 <0>        -0.0879
     28 C21         0.2222  -16.5533    1.2702 C.3       1 <0>         0.5112
     29 F1         -0.3299  -16.8663    0.0234 F         1 <0>        -0.1743
     30 F2          1.6160  -16.4983    1.1626 F         1 <0>        -0.1671
     31 F3         -0.1354  -17.5367    2.1987 F         1 <0>        -0.1677
     32 Cl1         1.2234  -15.5812    3.9366 Cl        1 <0>        -0.0394
     33 H1         -0.8760   -4.2843   -7.7081 H         1 <0>         0.0803
     34 H2         -0.1948   -5.5764   -6.6909 H         1 <0>         0.0631
     35 H3         -1.8761   -5.6883   -7.2645 H         1 <0>         0.0629
     36 H4         -1.6162   -3.3359   -5.7233 H         1 <0>         0.4141
     37 H5         -2.6047   -6.0902   -2.2584 H         1 <0>         0.1546
     38 H6         -3.5217   -2.3755   -0.3280 H         1 <0>         0.1523
     39 H7         -2.9005   -1.2112   -2.4052 H         1 <0>         0.1747
     40 H8         -1.3104   -6.5106    0.0290 H         1 <0>         0.1364
     41 H9         -1.3078   -8.9704   -0.0424 H         1 <0>         0.1514
     42 H10        -5.5809   -8.9693   -0.1851 H         1 <0>         0.1386
     43 H11        -5.5820   -6.5098   -0.1039 H         1 <0>         0.1400
     44 H12        -4.1137  -10.9957   -0.6785 H         1 <0>         0.4131
     45 H13        -3.2246  -13.0383    0.0299 H         1 <0>         0.4146
     46 H14        -1.6244  -11.7997    2.9103 H         1 <0>         0.1546
     47 H15        -0.0456  -13.0604    4.3154 H         1 <0>         0.1524
     48 H16        -1.5123  -14.9245   -0.0064 H         1 <0>         0.1525
@<TRIPOS>BOND
     1    1    2 1
     2    1   33 1
     3    1   34 1
     4    1   35 1
     5    2    3 am
     6    2   36 1
     7    3    4 2
     8    3    5 1
     9    5   10 ar
    10    5    6 ar
    11    6    7 ar
    12    6   37 1
    13    7    8 ar
    14    7   11 1
    15    8    9 ar
    16    8   38 1
    17    9   10 ar
    18    9   39 1
    19   11   12 1
    20   12   17 ar
    21   12   13 ar
    22   13   14 ar
    23   13   40 1
    24   14   15 ar
    25   14   41 1
    26   15   16 ar
    27   15   18 1
    28   16   17 ar
    29   16   42 1
    30   17   43 1
    31   18   19 am
    32   18   44 1
    33   19   20 2
    34   19   21 am
    35   21   22 1
    36   21   45 1
    37   22   27 ar
    38   22   23 ar
    39   23   24 ar
    40   23   46 1
    41   24   25 ar
    42   24   47 1
    43   25   26 ar
    44   25   32 1
    45   26   27 ar
    46   26   28 1
    47   27   48 1
    48   28   29 1
    49   28   30 1
    50   28   31 1
@<TRIPOS>MOLECULE
ZINC03814434
   62    69     0     0     0
SMALL
USER_CHARGES

@<TRIPOS>ATOM
      1 C1         -0.1295    1.5952   -0.2973 C.3       1 <0>        -0.1687
      2 C2         -0.0862    0.0696   -0.1900 C.3       1 <0>         0.3342
      3 C3          0.5692   -0.4501   -1.4637 C.3       1 <0>         0.0405
      4 H1          1.4796    0.1159   -1.6612 H         1 <0>         0.1372
      5 C4          0.9167   -1.9328   -1.2889 C.3       1 <0>        -0.0061
      6 H2          1.3963   -2.3075   -2.1932 H         1 <0>         0.1555
      7 C5          1.8785   -2.0596   -0.1021 C.3       1 <0>        -0.1827
      8 C6          1.2061   -1.5198    1.1541 C.3       1 <0>         0.2999
      9 H3          1.9797   -1.4243    1.9161 H         1 <0>         0.1550
     10 O1          0.6555   -0.2442    0.9666 O.3       1 <0>        -0.3234
     11 N1          0.2189   -2.4746    1.6600 N.pl3     1 <0>        -0.5366
     12 C7          0.4705   -3.5508    2.4739 C.ar      1 <0>         0.1469
     13 C8          1.6649   -4.0152    3.0240 C.ar      1 <0>        -0.1522
     14 C9          1.5948   -5.1456    3.8201 C.ar      1 <0>        -0.0582
     15 C10         0.4006   -5.7997    4.0696 C.ar      1 <0>        -0.1457
     16 C11        -0.7984   -5.3597    3.5358 C.ar      1 <0>        -0.0280
     17 C12        -0.7487   -4.2198    2.7307 C.ar      1 <0>        -0.1131
     18 C13        -1.7893   -3.4830    2.0197 C.ar      1 <0>         0.0276
     19 C14        -1.1442   -2.4197    1.3841 C.ar      1 <0>         0.0376
     20 C15        -1.8806   -1.5095    0.6175 C.ar      1 <0>         0.0894
     21 N2         -1.4718   -0.3951   -0.1095 N.pl3     1 <0>        -0.5183
     22 C16        -2.5611    0.1913   -0.7090 C.ar      1 <0>         0.1618
     23 C17        -2.6521    1.3277   -1.5118 C.ar      1 <0>        -0.1305
     24 C18        -3.9109    1.6745   -1.9733 C.ar      1 <0>        -0.0737
     25 C19        -5.0393    0.9368   -1.6616 C.ar      1 <0>        -0.1358
     26 C20        -4.9745   -0.1955   -0.8662 C.ar      1 <0>        -0.0503
     27 C21        -3.7147   -0.5596   -0.3919 C.ar      1 <0>        -0.1042
     28 C22        -3.2693   -1.6660    0.4845 C.ar      1 <0>        -0.0360
     29 C23        -3.9084   -2.7313    1.1102 C.ar      1 <0>        -0.0288
     30 C24        -3.1873   -3.6421    1.8754 C.ar      1 <0>        -0.1255
     31 C25        -4.1221   -4.6480    2.4030 C.2       1 <0>         0.5632
     32 O2         -3.8062   -5.5851    3.1110 O.2       1 <0>        -0.5106
     33 N3         -5.3744   -4.3851    1.9926 N.am      1 <0>        -0.7162
     34 C26        -5.3495   -3.1771    1.1601 C.3       1 <0>         0.1358
     35 N4         -0.3067   -2.7008   -1.0216 N.4       1 <0>        -0.5252
     36 C27         0.0145   -4.1336   -0.9773 C.3       1 <0>        -0.0497
     37 O3         -0.3340   -0.2979   -2.5607 O.3       1 <0>        -0.3614
     38 C28         0.3101   -0.0933   -3.8198 C.3       1 <0>         0.0162
     39 H4          0.8261    2.0094    0.0240 H         1 <0>         0.0984
     40 H5         -0.3202    1.8814   -1.3317 H         1 <0>         0.1036
     41 H6         -0.9255    1.9818    0.3392 H         1 <0>         0.0921
     42 H7          2.1370   -3.1081    0.0458 H         1 <0>         0.1233
     43 H8          2.7835   -1.4869   -0.3048 H         1 <0>         0.1455
     44 H9          2.6036   -3.5149    2.8368 H         1 <0>         0.1365
     45 H10         2.5026   -5.5304    4.2610 H         1 <0>         0.1359
     46 H11         0.4045   -6.6780    4.6980 H         1 <0>         0.1352
     47 H12        -1.7278   -5.8736    3.7323 H         1 <0>         0.1600
     48 H13        -1.7792    1.9122   -1.7624 H         1 <0>         0.1440
     49 H14        -4.0153    2.5500   -2.5970 H         1 <0>         0.1336
     50 H15        -5.9967    1.2527   -2.0488 H         1 <0>         0.1332
     51 H16        -5.8575   -0.7687   -0.6249 H         1 <0>         0.1415
     52 H17        -6.1628   -4.9065    2.2103 H         1 <0>         0.4348
     53 H18        -5.9671   -2.3994    1.6094 H         1 <0>         0.1115
     54 H19        -5.7060   -3.4063    0.1559 H         1 <0>         0.1103
     55 H20        -0.6958   -2.4158   -0.1353 H         1 <0>         0.4186
     56 H21         0.4349   -4.4415   -1.9347 H         1 <0>         0.1256
     57 H22         0.7403   -4.3189   -0.1854 H         1 <0>         0.1191
     58 H23        -0.8932   -4.7035   -0.7789 H         1 <0>         0.1256
     59 H24         0.9168    0.8112   -3.7748 H         1 <0>         0.0633
     60 H25         0.9482   -0.9479   -4.0446 H         1 <0>         0.0514
     61 H26        -0.4433    0.0130   -4.6003 H         1 <0>         0.1100
     62 H27        -0.9785   -2.5293   -1.7546 H         1 <0>         0.4274
@<TRIPOS>BOND
     1    1    2 1
     2    1   39 1
     3    1   40 1
     4    1   41 1
     5    2   10 1
     6    2   21 1
     7    2    3 1
     8    3    4 1
     9    3    5 1
    10    3   37 1
    11    5    6 1
    12    5    7 1
    13    5   35 1
    14    7    8 1
    15    7   42 1
    16    7   43 1
    17    8    9 1
    18    8   10 1
    19    8   11 1
    20   11   19 1
    21   11   12 1
    22   12   17 ar
    23   12   13 ar
    24   13   14 ar
    25   13   44 1
    26   14   15 ar
    27   14   45 1
    28   15   16 ar
    29   15   46 1
    30   16   17 ar
    31   16   47 1
    32   17   18 1
    33   18   30 ar
    34   18   19 ar
    35   19   20 ar
    36   20   28 ar
    37   20   21 1
    38   21   22 1
    39   22   27 ar
    40   22   23 ar
    41   23   24 ar
    42   23   48 1
    43   24   25 ar
    44   24   49 1
    45   25   26 ar
    46   25   50 1
    47   26   27 ar
    48   26   51 1
    49   27   28 1
    50   28   29 ar
    51   29   34 1
    52   29   30 ar
    53   30   31 1
    54   31   32 2
    55   31   33 am
    56   33   34 1
    57   33   52 1
    58   34   53 1
    59   34   54 1
    60   35   36 1
    61   35   55 1
    62   35   62 1
    63   36   56 1
    64   36   57 1
    65   36   58 1
    66   37   38 1
    67   38   59 1
    68   38   60 1
    69   38   61 1
@<TRIPOS>MOLECULE
ZINC00213761
   31    33     0     0     0
SMALL
USER_CHARGES
methyl 4-(9H-purin-6-ylamino)benzoate
@<TRIPOS>ATOM
      1 C1         -0.8515   -6.2299    1.6527 C.3       1 <0>         0.0363
      2 O1         -0.9702   -4.8052    1.3993 O.3       1 <0>        -0.3550
      3 C2          0.1551   -4.1495    1.0533 C.2       1 <0>         0.5086
      4 O2          1.2068   -4.7519    0.9658 O.2       1 <0>        -0.5040
      5 C3          0.1103   -2.7015    0.7810 C.ar      1 <0>        -0.1270
      6 C4          1.2771   -2.0195    0.4218 C.ar      1 <0>        -0.0477
      7 C5          1.2317   -0.6679    0.1678 C.ar      1 <0>        -0.1051
      8 C6          0.0257    0.0206    0.2676 C.ar      1 <0>         0.1231
      9 C7         -1.1367   -0.6542    0.6305 C.ar      1 <0>        -0.1246
     10 C8         -1.0993   -2.0068    0.8808 C.ar      1 <0>        -0.0527
     11 N1         -0.0168    1.3874    0.0097 N.pl3     1 <0>        -0.5521
     12 C9         -1.1242    1.9408   -0.6119 C.ar      1 <0>         0.4329
     13 C10        -1.2380    3.3322   -0.7728 C.ar      1 <0>        -0.0694
     14 C11        -2.3820    3.8343   -1.4162 C.ar      1 <0>         0.2935
     15 N2         -2.2325    5.1979   -1.4440 N.pl3     1 <0>        -0.5829
     16 H1         -2.8775    5.8561   -1.8322 H         1 <0>         0.4411
     17 C12        -1.0434    5.4908   -0.8453 C.2       1 <0>         0.2709
     18 N3         -0.4600    4.3947   -0.4554 N.2       1 <0>        -0.4611
     19 N4         -3.3124    2.9834   -1.8363 N.ar      1 <0>        -0.5355
     20 C13        -3.1656    1.6874   -1.6590 C.ar      1 <0>         0.3473
     21 N5         -2.1062    1.1687   -1.0651 N.ar      1 <0>        -0.5610
     22 H2         -0.4856   -6.7293    0.7556 H         1 <0>         0.0649
     23 H3         -0.1520   -6.3962    2.4720 H         1 <0>         0.0648
     24 H4         -1.8277   -6.6339    1.9209 H         1 <0>         0.1043
     25 H5          2.2128   -2.5531    0.3435 H         1 <0>         0.1444
     26 H6          2.1324   -0.1406   -0.1096 H         1 <0>         0.1428
     27 H7         -2.0697   -0.1162    0.7117 H         1 <0>         0.1401
     28 H8         -2.0023   -2.5304    1.1579 H         1 <0>         0.1414
     29 H9          0.0541    1.8914    0.8705 H         1 <0>         0.3817
     30 H10        -0.6446    6.4857   -0.7135 H         1 <0>         0.2313
     31 H11        -3.9403    1.0233   -2.0127 H         1 <0>         0.2087
@<TRIPOS>BOND
     1    1    2 1
     2    1   22 1
     3    1   23 1
     4    1   24 1
     5    2    3 1
     6    3    4 2
     7    3    5 1
     8    5   10 ar
     9    5    6 ar
    10    6    7 ar
    11    6   25 1
    12    7    8 ar
    13    7   26 1
    14    8    9 ar
    15    8   11 1
    16    9   10 ar
    17    9   27 1
    18   10   28 1
    19   11   12 1
    20   11   29 1
    21   12   21 ar
    22   12   13 ar
    23   13   18 1
    24   13   14 ar
    25   14   15 1
    26   14   19 ar
    27   15   16 1
    28   15   17 1
    29   17   18 2
    30   17   30 1
    31   19   20 ar
    32   20   21 ar
    33   20   31 1
@<TRIPOS>MOLECULE
ZINC06718813
   46    49     0     0     0
SMALL
USER_CHARGES
3-[4-(3-amino-1H-indazol-4-yl)phenyl]-1-(2-fluoro-5-methyl-phenyl)urea
@<TRIPOS>ATOM
      1 C1          6.9492   -0.6708   -4.4566 C.3       1 <0>        -0.1151
      2 C2          7.3188   -0.0066   -3.1554 C.ar      1 <0>        -0.0747
      3 C3          8.6152   -0.0905   -2.6815 C.ar      1 <0>        -0.1060
      4 C4          8.9590    0.5169   -1.4879 C.ar      1 <0>        -0.1295
      5 C5          8.0061    1.2101   -0.7639 C.ar      1 <0>         0.0645
      6 C6          6.7020    1.2957   -1.2387 C.ar      1 <0>         0.1336
      7 C7          6.3607    0.6802   -2.4351 C.ar      1 <0>        -0.0953
      8 N1          5.7336    1.9963   -0.5085 N.am      1 <0>        -0.6783
      9 C8          4.4547    1.5712   -0.5040 C.2       1 <0>         0.7069
     10 O1          4.1265    0.6239   -1.1921 O.2       1 <0>        -0.5500
     11 N2          3.5395    2.1961    0.2631 N.am      1 <0>        -0.6801
     12 C9          2.2409    1.6865    0.3572 C.ar      1 <0>         0.1677
     13 C10         1.1632    2.5541    0.4899 C.ar      1 <0>        -0.1430
     14 C11        -0.1180    2.0545    0.5834 C.ar      1 <0>        -0.0892
     15 C12        -0.3326    0.6766    0.5442 C.ar      1 <0>        -0.0682
     16 C13         0.7509   -0.1919    0.4104 C.ar      1 <0>        -0.0779
     17 C14         2.0300    0.3132    0.3174 C.ar      1 <0>        -0.1142
     18 C15        -1.7083    0.1367    0.6449 C.ar      1 <0>         0.0376
     19 C16        -2.0347   -0.7648    1.6483 C.ar      1 <0>        -0.1557
     20 C17        -3.3230   -1.2675    1.7456 C.ar      1 <0>        -0.0592
     21 C18        -4.2968   -0.8911    0.8473 C.ar      1 <0>        -0.1529
     22 C19        -3.9969    0.0086   -0.1734 C.ar      1 <0>         0.1547
     23 C20        -2.6946    0.5292   -0.2801 C.ar      1 <0>        -0.1858
     24 C21        -2.7034    1.4283   -1.4324 C.2       1 <0>         0.3642
     25 N3         -3.9099    1.4169   -1.9352 N.2       1 <0>        -0.3205
     26 N4         -4.7292    0.5606   -1.1926 N.pl3     1 <0>        -0.5119
     27 H1         -5.6955    0.3797   -1.3759 H         1 <0>         0.4473
     28 N5         -1.6172    2.1667   -1.9108 N.pl3     1 <0>        -0.8360
     29 F1          8.3418    1.8036    0.4023 F         1 <0>        -0.1384
     30 H2          6.6188   -1.6912   -4.2627 H         1 <0>         0.0755
     31 H3          6.1436   -0.1125   -4.9335 H         1 <0>         0.0695
     32 H4          7.8178   -0.6890   -5.1149 H         1 <0>         0.0704
     33 H5          9.3607   -0.6319   -3.2448 H         1 <0>         0.1352
     34 H6          9.9724    0.4496   -1.1204 H         1 <0>         0.1410
     35 H7          5.3477    0.7413   -2.8045 H         1 <0>         0.1523
     36 H8          5.9835    2.7876   -0.0061 H         1 <0>         0.4118
     37 H9          3.7818    2.9993    0.7499 H         1 <0>         0.4106
     38 H10         1.3298    3.6208    0.5203 H         1 <0>         0.1310
     39 H11        -0.9554    2.7293    0.6824 H         1 <0>         0.1315
     40 H12         0.5876   -1.2590    0.3794 H         1 <0>         0.1314
     41 H13         2.8692   -0.3587    0.2138 H         1 <0>         0.1391
     42 H14        -1.2822   -1.0738    2.3586 H         1 <0>         0.1292
     43 H15        -3.5651   -1.9655    2.5334 H         1 <0>         0.1325
     44 H16        -5.2951   -1.2940    0.9345 H         1 <0>         0.1278
     45 H17        -0.7342    2.0309   -1.5329 H         1 <0>         0.4118
     46 H18        -1.7465    2.8151   -2.6206 H         1 <0>         0.4050
@<TRIPOS>BOND
     1    1    2 1
     2    1   30 1
     3    1   31 1
     4    1   32 1
     5    2    7 ar
     6    2    3 ar
     7    3    4 ar
     8    3   33 1
     9    4    5 ar
    10    4   34 1
    11    5    6 ar
    12    5   29 1
    13    6    7 ar
    14    6    8 1
    15    7   35 1
    16    8    9 am
    17    8   36 1
    18    9   10 2
    19    9   11 am
    20   11   12 1
    21   11   37 1
    22   12   17 ar
    23   12   13 ar
    24   13   14 ar
    25   13   38 1
    26   14   15 ar
    27   14   39 1
    28   15   16 ar
    29   15   18 1
    30   16   17 ar
    31   16   40 1
    32   17   41 1
    33   18   23 ar
    34   18   19 ar
    35   19   20 ar
    36   19   42 1
    37   20   21 ar
    38   20   43 1
    39   21   22 ar
    40   21   44 1
    41   22   26 1
    42   22   23 ar
    43   23   24 1
    44   24   25 2
    45   24   28 1
    46   25   26 1
    47   26   27 1
    48   28   45 1
    49   28   46 1
@<TRIPOS>MOLECULE
ZINC16052718
   27    29     0     0     0
SMALL
USER_CHARGES
2-(4-pyridyl)-1,5,6,7-tetrahydropyrrolo[3,2-c]pyridin-4-one
@<TRIPOS>ATOM
      1 C1         -1.2211    1.7394    0.0173 C.ar      1 <0>        -0.1847
      2 C2         -0.0126    1.0758    0.0080 C.ar      1 <0>         0.1111
      3 N1          1.1266    1.7422    0.0007 N.ar      1 <0>        -0.4905
      4 C3          1.1665    3.0614    0.0069 C.ar      1 <0>         0.1119
      5 C4          0.0054    3.8049    0.0215 C.ar      1 <0>        -0.1618
      6 C5         -1.2265    3.1395    0.0297 C.ar      1 <0>         0.0379
      7 C6         -2.4974    3.8941    0.0449 C.2       1 <0>         0.0152
      8 C7         -2.6168    5.2527    0.0519 C.2       1 <0>        -0.0780
      9 C8         -3.9881    5.5373    0.0657 C.2       1 <0>        -0.2330
     10 C9         -4.6662    4.3225    0.0683 C.2       1 <0>         0.0775
     11 N2         -3.7609    3.3429    0.0484 N.pl3     1 <0>        -0.5119
     12 H1         -3.9600    2.3935    0.0405 H         1 <0>         0.4194
     13 C10        -6.1725    4.2736    0.0855 C.3       1 <0>        -0.0706
     14 C11        -6.6980    5.5192    0.7998 C.3       1 <0>         0.1242
     15 N3         -6.0502    6.7447    0.3531 N.am      1 <0>        -0.7362
     16 C12        -4.7270    6.8120    0.0741 C.2       1 <0>         0.5975
     17 O1         -4.1760    7.8712   -0.1574 O.2       1 <0>        -0.5324
     18 H2         -2.1495    1.1876    0.0191 H         1 <0>         0.1271
     19 H3          0.0021   -0.0041    0.0020 H         1 <0>         0.1582
     20 H4          2.1216    3.5654    0.0002 H         1 <0>         0.1618
     21 H5          0.0456    4.8841    0.0262 H         1 <0>         0.1422
     22 H6         -1.8098    5.9704    0.0479 H         1 <0>         0.1542
     23 H7         -6.5491    4.2527   -0.9371 H         1 <0>         0.0964
     24 H8         -6.5030    3.3798    0.6148 H         1 <0>         0.0985
     25 H9         -7.7696    5.6022    0.6183 H         1 <0>         0.0948
     26 H10        -6.5315    5.4063    1.8710 H         1 <0>         0.0675
     27 H11        -6.5885    7.5452    0.2514 H         1 <0>         0.4040
@<TRIPOS>BOND
     1    1    6 ar
     2    1    2 ar
     3    1   18 1
     4    2    3 ar
     5    2   19 1
     6    3    4 ar
     7    4    5 ar
     8    4   20 1
     9    5    6 ar
    10    5   21 1
    11    6    7 1
    12    7   11 1
    13    7    8 2
    14    8    9 1
    15    8   22 1
    16    9   16 1
    17    9   10 2
    18   10   11 1
    19   10   13 1
    20   11   12 1
    21   13   14 1
    22   13   23 1
    23   13   24 1
    24   14   15 1
    25   14   25 1
    26   14   26 1
    27   15   16 am
    28   15   27 1
    29   16   17 2
@<TRIPOS>MOLECULE
ZINC16052855
   42    46     0     0     0
SMALL
USER_CHARGES
2-[2-(3-quinolyl)-4-pyridyl]-1,5,6,7-tetrahydropyrrolo[3,2-c]pyridin-4-one
@<TRIPOS>ATOM
      1 C1         10.7572   -3.7819    0.0510 C.ar      1 <0>        -0.1174
      2 C2         10.0826   -4.9965   -0.0578 C.ar      1 <0>        -0.0943
      3 C3          8.7251   -5.0411   -0.1432 C.ar      1 <0>        -0.0961
      4 C4          7.9840   -3.8467   -0.1220 C.ar      1 <0>         0.1332
      5 C5          8.6723   -2.6122   -0.0112 C.ar      1 <0>        -0.1086
      6 C6         10.0749   -2.6042    0.0749 C.ar      1 <0>        -0.0904
      7 C7          7.9341   -1.4163    0.0035 C.ar      1 <0>        -0.0086
      8 C8          6.5519   -1.5034   -0.0804 C.ar      1 <0>        -0.1129
      9 C9          5.9436   -2.7641   -0.1873 C.ar      1 <0>         0.1529
     10 N1          6.6494   -3.8661   -0.2050 N.ar      1 <0>        -0.4708
     11 C10         5.7235   -0.2733   -0.0635 C.ar      1 <0>         0.1881
     12 C11         4.3369   -0.3774   -0.0487 C.ar      1 <0>        -0.1516
     13 C12         3.5718    0.7923   -0.0329 C.ar      1 <0>         0.0469
     14 C13         4.2419    2.0230   -0.0385 C.ar      1 <0>        -0.1854
     15 C14         5.6209    2.0383   -0.0474 C.ar      1 <0>         0.1223
     16 N2          6.3134    0.9162   -0.0622 N.ar      1 <0>        -0.4852
     17 C15         2.0948    0.7326   -0.0168 C.2       1 <0>         0.0138
     18 C16         1.3438   -0.4057   -0.0160 C.2       1 <0>        -0.0761
     19 C17         0.0021   -0.0041    0.0020 C.2       1 <0>        -0.2322
     20 C18        -0.0168    1.3870    0.0097 C.2       1 <0>         0.0794
     21 N3          1.2455    1.8183   -0.0001 N.pl3     1 <0>        -0.5112
     22 H1          1.5219    2.7481    0.0040 H         1 <0>         0.4196
     23 C19        -1.3188    2.1462    0.0206 C.3       1 <0>        -0.0709
     24 C20        -2.3876    1.3047   -0.6747 C.3       1 <0>         0.1238
     25 N4         -2.3915   -0.0842   -0.2366 N.am      1 <0>        -0.7361
     26 C21        -1.2539   -0.7742    0.0148 C.2       1 <0>         0.5971
     27 O1         -1.2683   -1.9693    0.2403 O.2       1 <0>        -0.5312
     28 H2         11.8351   -3.7749    0.1176 H         1 <0>         0.1302
     29 H3         10.6464   -5.9175   -0.0746 H         1 <0>         0.1323
     30 H4          8.2186   -5.9913   -0.2267 H         1 <0>         0.1378
     31 H5         10.6085   -1.6690    0.1592 H         1 <0>         0.1329
     32 H6          8.4274   -0.4588    0.0820 H         1 <0>         0.1521
     33 H7          4.8676   -2.8260   -0.2568 H         1 <0>         0.1632
     34 H8          3.8591   -1.3460   -0.0498 H         1 <0>         0.1448
     35 H9          3.6851    2.9484   -0.0315 H         1 <0>         0.1299
     36 H10         6.1419    2.9843   -0.0466 H         1 <0>         0.1625
     37 H11         1.7124   -1.4208   -0.0268 H         1 <0>         0.1545
     38 H12        -1.6218    2.3370    1.0501 H         1 <0>         0.0965
     39 H13        -1.1947    3.0919   -0.5070 H         1 <0>         0.0988
     40 H14        -2.2101    1.3333   -1.7498 H         1 <0>         0.0674
     41 H15        -3.3652    1.7406   -0.4691 H         1 <0>         0.0947
     42 H16        -3.2435   -0.5330   -0.1199 H         1 <0>         0.4042
@<TRIPOS>BOND
     1    1    6 ar
     2    1    2 ar
     3    1   28 1
     4    2    3 ar
     5    2   29 1
     6    3    4 ar
     7    3   30 1
     8    4   10 ar
     9    4    5 ar
    10    5    6 ar
    11    5    7 ar
    12    6   31 1
    13    7    8 ar
    14    7   32 1
    15    8    9 ar
    16    8   11 1
    17    9   10 ar
    18    9   33 1
    19   11   16 ar
    20   11   12 ar
    21   12   13 ar
    22   12   34 1
    23   13   14 ar
    24   13   17 1
    25   14   15 ar
    26   14   35 1
    27   15   16 ar
    28   15   36 1
    29   17   21 1
    30   17   18 2
    31   18   19 1
    32   18   37 1
    33   19   26 1
    34   19   20 2
    35   20   21 1
    36   20   23 1
    37   21   22 1
    38   23   24 1
    39   23   38 1
    40   23   39 1
    41   24   25 1
    42   24   40 1
    43   24   41 1
    44   25   26 am
    45   25   42 1
    46   26   27 2
@<TRIPOS>MOLECULE
ZINC03834198
   55    58     0     0     0
SMALL
USER_CHARGES

@<TRIPOS>ATOM
      1 C1          2.2102    1.3214   -1.5438 C.3       1 <0>        -0.0473
      2 N1          2.0302   -0.1310   -1.4177 N.4       1 <0>        -0.3861
      3 C2          2.8485   -0.8135   -2.4272 C.3       1 <0>        -0.0039
      4 C3          2.6029   -2.3220   -2.3537 C.3       1 <0>        -0.1426
      5 C4          2.9828   -2.8281   -0.9591 C.3       1 <0>        -0.0980
      6 C5          2.1768   -2.0570    0.0901 C.3       1 <0>        -0.1436
      7 C6          2.4382   -0.5583   -0.0740 C.3       1 <0>        -0.0065
      8 C7          2.6653   -4.3210   -0.8526 C.3       1 <0>         0.0553
      9 O1          3.1265   -4.8175    0.4056 O.3       1 <0>        -0.2959
     10 C8          2.9210   -6.1358    0.6612 C.ar      1 <0>         0.1621
     11 C9          2.2972   -6.9233   -0.2811 C.ar      1 <0>        -0.1791
     12 C10         2.0867   -8.2816   -0.0149 C.ar      1 <0>         0.2018
     13 C11         2.5192   -8.8246    1.2204 C.ar      1 <0>        -0.1784
     14 C12         3.1508   -8.0026    2.1612 C.ar      1 <0>        -0.1424
     15 C13         3.3512   -6.6812    1.8787 C.ar      1 <0>         0.1099
     16 O2          3.9702   -5.8850    2.7909 O.3       1 <0>        -0.3030
     17 C14         4.3854   -6.4992    4.0125 C.3       1 <0>         0.0198
     18 C15         2.2930  -10.2009    1.4605 C.ar      1 <0>         0.4667
     19 N2          1.6881  -10.9114    0.5174 N.ar      1 <0>        -0.5768
     20 C16         1.3012  -10.3606   -0.6222 C.ar      1 <0>         0.3478
     21 N3          1.4842   -9.0917   -0.8996 N.ar      1 <0>        -0.5414
     22 N4          2.6915  -10.7885    2.6441 N.pl3     1 <0>        -0.6296
     23 C17         2.5831  -12.1741    2.8088 C.ar      1 <0>         0.1376
     24 C18         2.4560  -12.9987    1.6992 C.ar      1 <0>        -0.1039
     25 C19         2.3491  -14.3660    1.8644 C.ar      1 <0>        -0.0732
     26 C20         2.3685  -14.9152    3.1341 C.ar      1 <0>        -0.0857
     27 C21         2.4949  -14.0974    4.2430 C.ar      1 <0>        -0.1007
     28 C22         2.6081  -12.7284    4.0841 C.ar      1 <0>         0.0686
     29 F1          2.7372  -11.9301    5.1664 F         1 <0>        -0.1332
     30 Br1         2.2212  -16.7875    3.3546 Br        1 <0>        -0.0295
     31 H1          3.2589    1.5727   -1.3848 H         1 <0>         0.1219
     32 H2          1.9075    1.6398   -2.5414 H         1 <0>         0.1242
     33 H3          1.5979    1.8295   -0.7989 H         1 <0>         0.1242
     34 H4          2.5792   -0.4499   -3.4189 H         1 <0>         0.1343
     35 H5          3.9024   -0.6078   -2.2397 H         1 <0>         0.1306
     36 H6          1.5493   -2.5288   -2.5414 H         1 <0>         0.0934
     37 H7          3.2127   -2.8271   -3.1028 H         1 <0>         0.1176
     38 H8          4.0478   -2.6678   -0.7908 H         1 <0>         0.1030
     39 H9          1.1143   -2.2583   -0.0469 H         1 <0>         0.0893
     40 H10         2.4820   -2.3726    1.0878 H         1 <0>         0.1210
     41 H11         3.5008   -0.3580    0.0634 H         1 <0>         0.1299
     42 H12         1.8660   -0.0063    0.6716 H         1 <0>         0.1325
     43 H13         1.5883   -4.4698   -0.9292 H         1 <0>         0.0742
     44 H14         3.1645   -4.8571   -1.6597 H         1 <0>         0.0787
     45 H15         1.9724   -6.4960   -1.2182 H         1 <0>         0.1540
     46 H16         3.4818   -8.4122    3.1042 H         1 <0>         0.1414
     47 H17         4.8638   -5.7549    4.6491 H         1 <0>         0.1093
     48 H18         3.5165   -6.9116    4.5254 H         1 <0>         0.0597
     49 H19         5.0925   -7.2996    3.7947 H         1 <0>         0.0600
     50 H20         0.8133  -10.9840   -1.3569 H         1 <0>         0.2036
     51 H21         3.0467  -10.2411    3.3618 H         1 <0>         0.4241
     52 H22         2.4404  -12.5714    0.7074 H         1 <0>         0.1818
     53 H23         2.2499  -15.0072    1.0010 H         1 <0>         0.1463
     54 H24         2.5094  -14.5289    5.2329 H         1 <0>         0.1515
     55 H25         1.0589   -0.3624   -1.5626 H         1 <0>         0.4246
@<TRIPOS>BOND
     1    1    2 1
     2    1   31 1
     3    1   32 1
     4    1   33 1
     5    2    7 1
     6    2    3 1
     7    2   55 1
     8    3    4 1
     9    3   34 1
    10    3   35 1
    11    4    5 1
    12    4   36 1
    13    4   37 1
    14    5    6 1
    15    5    8 1
    16    5   38 1
    17    6    7 1
    18    6   39 1
    19    6   40 1
    20    7   41 1
    21    7   42 1
    22    8    9 1
    23    8   43 1
    24    8   44 1
    25    9   10 1
    26   10   15 ar
    27   10   11 ar
    28   11   12 ar
    29   11   45 1
    30   12   21 ar
    31   12   13 ar
    32   13   14 ar
    33   13   18 ar
    34   14   15 ar
    35   14   46 1
    36   15   16 1
    37   16   17 1
    38   17   47 1
    39   17   48 1
    40   17   49 1
    41   18   19 ar
    42   18   22 1
    43   19   20 ar
    44   20   21 ar
    45   20   50 1
    46   22   23 1
    47   22   51 1
    48   23   28 ar
    49   23   24 ar
    50   24   25 ar
    51   24   52 1
    52   25   26 ar
    53   25   53 1
    54   26   27 ar
    55   26   30 1
    56   27   28 ar
    57   27   54 1
    58   28   29 1
@<TRIPOS>MOLECULE
ZINC00009295
   33    37     0     0     0
SMALL
USER_CHARGES

@<TRIPOS>ATOM
      1 C1         -0.0165    1.3617    0.0018 C.ar      1 <0>        -0.1166
      2 C2          1.1670    2.0860    0.0184 C.ar      1 <0>        -0.1102
      3 C3          2.3845    1.4365    0.0139 C.ar      1 <0>        -0.0886
      4 C4          2.4235    0.0506   -0.0069 C.ar      1 <0>         0.0477
      5 C5          1.2253   -0.6845   -0.0233 C.ar      1 <0>         0.0671
      6 C6          0.0020   -0.0039   -0.0189 C.ar      1 <0>        -0.0707
      7 N1          1.5589   -1.9954   -0.0410 N.2       1 <0>        -0.4717
      8 C7          2.8671   -2.1252   -0.0368 C.2       1 <0>         0.3597
      9 N2          3.4512   -0.8811   -0.0157 N.am      1 <0>        -0.4750
     10 C8          4.7897   -0.7218   -0.0067 C.2       1 <0>         0.5811
     11 O1          5.2621    0.3982    0.0124 O.2       1 <0>        -0.4908
     12 C9          5.6842   -1.8884   -0.0191 C.ar      1 <0>        -0.1855
     13 C10         7.0648   -1.7546   -0.0097 C.ar      1 <0>        -0.0005
     14 C11         7.8775   -2.8821   -0.0216 C.ar      1 <0>        -0.1716
     15 C12         7.3478   -4.1414   -0.0427 C.ar      1 <0>        -0.0150
     16 C13         5.9572   -4.3167   -0.0532 C.ar      1 <0>        -0.0588
     17 C14         5.1192   -3.1838   -0.0409 C.ar      1 <0>         0.0057
     18 C15         3.7136   -3.3357   -0.0511 C.ar      1 <0>        -0.0918
     19 C16         3.1553   -4.6045   -0.0728 C.ar      1 <0>        -0.0099
     20 C17         3.9517   -5.7383   -0.0860 C.ar      1 <0>        -0.1235
     21 C18         5.3407   -5.6422   -0.0767 C.ar      1 <0>        -0.0496
     22 C19         6.1748   -6.8553   -0.0900 C.2       1 <0>         0.5213
     23 O2          5.6524   -7.9579    0.0012 O.co2     1 <0>        -0.6640
     24 O3          7.3903   -6.7609   -0.1924 O.co2     1 <0>        -0.6690
     25 H1         -0.9622    1.8832    0.0098 H         1 <0>         0.1325
     26 H2          1.1351    3.1654    0.0346 H         1 <0>         0.1328
     27 H3          3.3027    2.0049    0.0262 H         1 <0>         0.1327
     28 H4         -0.9253   -0.5575   -0.0313 H         1 <0>         0.1345
     29 H5          7.5099   -0.7707    0.0065 H         1 <0>         0.1371
     30 H6          8.9505   -2.7602   -0.0144 H         1 <0>         0.1360
     31 H7          8.0006   -5.0018   -0.0516 H         1 <0>         0.1874
     32 H8          2.0806   -4.7111   -0.0791 H         1 <0>         0.1408
     33 H9          3.4871   -6.7131   -0.1025 H         1 <0>         0.1466
@<TRIPOS>BOND
     1    1    6 ar
     2    1    2 ar
     3    1   25 1
     4    2    3 ar
     5    2   26 1
     6    3    4 ar
     7    3   27 1
     8    4    9 1
     9    4    5 ar
    10    5    6 ar
    11    5    7 1
    12    6   28 1
    13    7    8 2
    14    8   18 1
    15    8    9 1
    16    9   10 am
    17   10   11 2
    18   10   12 1
    19   12   17 ar
    20   12   13 ar
    21   13   14 ar
    22   13   29 1
    23   14   15 ar
    24   14   30 1
    25   15   16 ar
    26   15   31 1
    27   16   21 ar
    28   16   17 ar
    29   17   18 ar
    30   18   19 ar
    31   19   20 ar
    32   19   32 1
    33   20   21 ar
    34   20   33 1
    35   21   22 1
    36   22   23 2
    37   22   24 1
@<TRIPOS>MOLECULE
ZINC00600292
   36    38     0     0     0
SMALL
USER_CHARGES

@<TRIPOS>ATOM
      1 C1         -0.7597    1.4203   -0.5114 C.3       1 <0>         0.0216
      2 O1         -0.7395   -0.0086   -0.5175 O.3       1 <0>        -0.3000
      3 C2          0.0525   -0.6108   -1.4443 C.ar      1 <0>         0.1111
      4 C3          0.7838    0.1546   -2.3077 C.ar      1 <0>        -0.1487
      5 C4          1.6000   -0.4644   -3.2619 C.ar      1 <0>        -0.1822
      6 C5          1.6631   -1.8785   -3.3272 C.ar      1 <0>         0.2014
      7 C6          0.9050   -2.6434   -2.4324 C.ar      1 <0>        -0.1835
      8 C7          0.1140   -2.0102   -1.4994 C.ar      1 <0>         0.1637
      9 O2         -0.6184   -2.7498   -0.6264 O.3       1 <0>        -0.2972
     10 C8         -0.5133   -4.1710   -0.7327 C.3       1 <0>         0.0200
     11 N1          2.4537   -2.4467   -4.2512 N.ar      1 <0>        -0.5411
     12 C9          3.1528   -1.7038   -5.0759 C.ar      1 <0>         0.3436
     13 N2          3.1258   -0.3808   -5.0518 N.ar      1 <0>        -0.5800
     14 C10         2.3778    0.2817   -4.1791 C.ar      1 <0>         0.4633
     15 N3          2.3588    1.6620   -4.1660 N.pl3     1 <0>        -0.6410
     16 C11         3.0379    2.3798   -5.1546 C.ar      1 <0>         0.1586
     17 C12         3.6582    3.5824   -4.8396 C.ar      1 <0>        -0.1318
     18 C13         4.3288    4.2892   -5.8181 C.ar      1 <0>        -0.0924
     19 C14         4.3832    3.8017   -7.1112 C.ar      1 <0>        -0.1057
     20 C15         3.7663    2.6047   -7.4288 C.ar      1 <0>        -0.0712
     21 C16         3.0988    1.8895   -6.4525 C.ar      1 <0>        -0.0819
     22 Br1         3.8425    1.9431   -9.1987 Br        1 <0>        -0.0435
     23 H1          0.2462    1.7971   -0.3263 H         1 <0>         0.0571
     24 H2         -1.1115    1.7828   -1.4772 H         1 <0>         0.0575
     25 H3         -1.4293    1.7708    0.2741 H         1 <0>         0.1071
     26 H4          0.7324    1.2321   -2.2545 H         1 <0>         0.1391
     27 H5          0.9434   -3.7220   -2.4708 H         1 <0>         0.1564
     28 H6         -1.1468   -4.6395    0.0204 H         1 <0>         0.1075
     29 H7         -0.8353   -4.4858   -1.7253 H         1 <0>         0.0624
     30 H8          0.5224   -4.4716   -0.5744 H         1 <0>         0.0623
     31 H9          3.7787   -2.1938   -5.8070 H         1 <0>         0.1983
     32 H10         1.8741    2.1338   -3.4707 H         1 <0>         0.4207
     33 H11         3.6157    3.9643   -3.8302 H         1 <0>         0.1312
     34 H12         4.8111    5.2240   -5.5735 H         1 <0>         0.1372
     35 H13         4.9081    4.3567   -7.8747 H         1 <0>         0.1349
     36 H14         2.6210    0.9530   -6.6997 H         1 <0>         0.1453
@<TRIPOS>BOND
     1    1    2 1
     2    1   23 1
     3    1   24 1
     4    1   25 1
     5    2    3 1
     6    3    8 ar
     7    3    4 ar
     8    4    5 ar
     9    4   26 1
    10    5   14 ar
    11    5    6 ar
    12    6    7 ar
    13    6   11 ar
    14    7    8 ar
    15    7   27 1
    16    8    9 1
    17    9   10 1
    18   10   28 1
    19   10   29 1
    20   10   30 1
    21   11   12 ar
    22   12   13 ar
    23   12   31 1
    24   13   14 ar
    25   14   15 1
    26   15   16 1
    27   15   32 1
    28   16   21 ar
    29   16   17 ar
    30   17   18 ar
    31   17   33 1
    32   18   19 ar
    33   18   34 1
    34   19   20 ar
    35   19   35 1
    36   20   21 ar
    37   20   22 1
    38   21   36 1
@<TRIPOS>MOLECULE
ZINC03816409
   50    52     0     0     0
SMALL
USER_CHARGES
N-[5-[(5-tert-butyloxazol-2-yl)methylsulfanyl]thiazol-2-yl]piperidine-4-carboxamide
@<TRIPOS>ATOM
      1 C1         -0.0127    1.0858    0.0080 C.3       1 <0>        -0.1425
      2 C2         -0.7288    1.5792    1.2668 C.3       1 <0>         0.0153
      3 C3          0.0111    1.0724    2.5063 C.3       1 <0>        -0.1429
      4 C4         -0.7496    3.1091    1.2752 C.3       1 <0>        -0.1470
      5 C5         -2.1426    1.0576    1.2775 C.2       1 <0>        -0.0059
      6 C6         -2.5173   -0.2324    1.2742 C.2       1 <0>        -0.0384
      7 N1         -3.8616   -0.2670    1.2868 N.2       1 <0>        -0.4461
      8 C7         -4.3108    0.9556    1.2976 C.2       1 <0>         0.1754
      9 O1         -3.2687    1.7975    1.2981 O.3       1 <0>        -0.1872
     10 C8         -5.7633    1.3568    1.3132 C.3       1 <0>        -0.0274
     11 S1         -6.3302    1.5091    3.0296 S.3       1 <0>         0.0531
     12 C9         -8.0223    1.9770    2.8797 C.2       1 <0>        -0.2079
     13 C10        -8.9445    2.2293    3.8504 C.2       1 <0>         0.0730
     14 N2        -10.1733    2.5704    3.5096 N.2       1 <0>        -0.4781
     15 C11       -10.5307    2.6731    2.2430 C.2       1 <0>         0.3098
     16 S2         -9.0031    2.2599    1.4114 S.3       1 <0>         0.0397
     17 N3        -11.7659    3.0158    1.7000 N.am      1 <0>        -0.6146
     18 C12       -12.8034    3.3002    2.5119 C.2       1 <0>         0.5107
     19 O2        -12.6609    3.2576    3.7157 O.2       1 <0>        -0.4551
     20 C13       -14.1405    3.6713    1.9241 C.3       1 <0>        -0.1149
     21 C14       -13.9915    4.9332    1.0698 C.3       1 <0>        -0.1461
     22 C15       -15.3628    5.3397    0.5255 C.3       1 <0>         0.0009
     23 C16       -16.4761    4.3789    2.4515 C.3       1 <0>        -0.0009
     24 C17       -15.1380    3.9438    3.0534 C.3       1 <0>        -0.1323
     25 H1          0.0021   -0.0041    0.0020 H         1 <0>         0.0648
     26 H2          1.0099    1.4631    0.0003 H         1 <0>         0.0750
     27 H3         -0.5399    1.4469   -0.8751 H         1 <0>         0.0608
     28 H4          1.0337    1.4497    2.4986 H         1 <0>         0.0751
     29 H5         -0.4990    1.4239    3.4031 H         1 <0>         0.0616
     30 H6          0.0259   -0.0175    2.5003 H         1 <0>         0.0649
     31 H7         -1.2768    3.4701    0.3922 H         1 <0>         0.0605
     32 H8         -1.2598    3.4606    2.1720 H         1 <0>         0.0616
     33 H9          0.2730    3.4864    1.2675 H         1 <0>         0.0706
     34 H10        -1.8578   -1.0876    1.2633 H         1 <0>         0.1891
     35 H11        -5.8813    2.3140    0.8053 H         1 <0>         0.1204
     36 H12        -6.3553    0.5983    0.8010 H         1 <0>         0.1329
     37 H13        -8.6718    2.1504    4.8925 H         1 <0>         0.1794
     38 H14       -11.8799    3.0499    0.7373 H         1 <0>         0.4267
     39 H15       -14.5061    2.8521    1.3049 H         1 <0>         0.1234
     40 H16       -13.5885    5.7409    1.6809 H         1 <0>         0.0995
     41 H17       -13.3151    4.7324    0.2390 H         1 <0>         0.1172
     42 H18       -15.7590    4.5372   -0.0967 H         1 <0>         0.1349
     43 H19       -15.2623    6.2461   -0.0715 H         1 <0>         0.1387
     44 H20       -16.8671    3.5809    1.8204 H         1 <0>         0.1334
     45 H21       -17.1842    4.5877    3.2534 H         1 <0>         0.1392
     46 H22       -15.2808    3.0361    3.6398 H         1 <0>         0.1229
     47 H23       -14.7528    4.7354    3.6961 H         1 <0>         0.1008
     48 N4        -16.2857    5.6006    1.6466 N.4       1 <0>        -0.5187
     49 H24       -17.1928    5.9050    1.2741 H         1 <0>         0.4395
     50 H25       -15.8944    6.3401    2.2417 H         1 <0>         0.4347
@<TRIPOS>BOND
     1    1    2 1
     2    1   25 1
     3    1   26 1
     4    1   27 1
     5    2    3 1
     6    2    4 1
     7    2    5 1
     8    3   28 1
     9    3   29 1
    10    3   30 1
    11    4   31 1
    12    4   32 1
    13    4   33 1
    14    5    9 1
    15    5    6 2
    16    6    7 1
    17    6   34 1
    18    7    8 2
    19    8    9 1
    20    8   10 1
    21   10   11 1
    22   10   35 1
    23   10   36 1
    24   11   12 1
    25   12   16 1
    26   12   13 2
    27   13   14 1
    28   13   37 1
    29   14   15 2
    30   15   16 1
    31   15   17 1
    32   17   18 am
    33   17   38 1
    34   18   19 2
    35   18   20 1
    36   20   24 1
    37   20   21 1
    38   20   39 1
    39   21   22 1
    40   21   40 1
    41   21   41 1
    42   22   42 1
    43   22   43 1
    44   22   48 1
    45   23   24 1
    46   23   44 1
    47   23   45 1
    48   23   48 1
    49   24   46 1
    50   24   47 1
    51   48   49 1
    52   48   50 1
@<TRIPOS>MOLECULE
ZINC27439698
   59    62     0     0     0
SMALL
USER_CHARGES

@<TRIPOS>ATOM
      1 C1         -0.2063    1.0844    0.8125 C.2       1 <0>        -0.0780
      2 C2         -0.0916   -0.1284    0.2785 C.2       1 <0>        -0.2217
      3 C3          1.1892   -0.8472    0.3546 C.2       1 <0>         0.5464
      4 O1          2.1435   -0.3327    0.9059 O.2       1 <0>        -0.5301
      5 N1          1.3054   -2.0761   -0.1864 N.am      1 <0>        -0.6549
      6 C4          2.5517   -2.7129   -0.2160 C.ar      1 <0>         0.1200
      7 C5          3.7048   -1.9595   -0.1827 C.ar      1 <0>        -0.0579
      8 C6          4.9490   -2.5997   -0.2120 C.ar      1 <0>        -0.1974
      9 C7          5.0154   -4.0138   -0.2753 C.ar      1 <0>         0.2129
     10 C8          3.8313   -4.7603   -0.3083 C.ar      1 <0>        -0.1947
     11 C9          2.6164   -4.1137   -0.2734 C.ar      1 <0>         0.1622
     12 O2          1.4681   -4.8389   -0.3002 O.3       1 <0>        -0.3093
     13 C10         1.5999   -6.2606   -0.3586 C.3       1 <0>         0.0588
     14 C11         0.2106   -6.9010   -0.3813 C.3       1 <0>        -0.1156
     15 C12         0.3517   -8.4232   -0.4438 C.3       1 <0>         0.0578
     16 N2         -0.9822   -9.0382   -0.4657 N.3       1 <0>        -0.5360
     17 C13        -1.6880   -8.8108    0.8038 C.3       1 <0>         0.0125
     18 C14        -3.0921   -9.4148    0.7161 C.3       1 <0>         0.0626
     19 O3         -2.9885  -10.8047    0.3955 O.3       1 <0>        -0.3850
     20 C15        -2.3071  -11.0626   -0.8351 C.3       1 <0>         0.0628
     21 C16        -0.8951  -10.4753   -0.7631 C.3       1 <0>         0.0171
     22 N3          6.2221   -4.6015   -0.3018 N.ar      1 <0>        -0.5452
     23 C17         7.3156   -3.8777   -0.2694 C.ar      1 <0>         0.3493
     24 N4          7.3023   -2.5556   -0.2097 N.ar      1 <0>        -0.5859
     25 C18         6.1642   -1.8746   -0.1796 C.ar      1 <0>         0.4714
     26 N5          6.1650   -0.4957   -0.1182 N.pl3     1 <0>        -0.6328
     27 C19         7.3694    0.2084   -0.2227 C.ar      1 <0>         0.1581
     28 C20         7.5013    1.4536    0.3785 C.ar      1 <0>        -0.1169
     29 C21         8.6911    2.1472    0.2750 C.ar      1 <0>        -0.1176
     30 C22         9.7524    1.6027   -0.4280 C.ar      1 <0>         0.0901
     31 C23         9.6235    0.3609   -1.0292 C.ar      1 <0>        -0.0524
     32 C24         8.4363   -0.3392   -0.9225 C.ar      1 <0>        -0.0856
     33 Cl1        10.9555   -0.3188   -1.9109 Cl        1 <0>        -0.0424
     34 F1         10.9152    2.2833   -0.5284 F         1 <0>        -0.1264
     35 H1          0.6411    1.5413    1.3020 H         1 <0>         0.1166
     36 H2         -1.1456    1.6141    0.7527 H         1 <0>         0.1209
     37 H3         -0.9390   -0.5853   -0.2110 H         1 <0>         0.1323
     38 H4          0.5255   -2.5194   -0.5554 H         1 <0>         0.4201
     39 H5          3.6489   -0.8820   -0.1348 H         1 <0>         0.1596
     40 H6          3.8708   -5.8385   -0.3565 H         1 <0>         0.1517
     41 H7          2.1429   -6.5383   -1.2620 H         1 <0>         0.0720
     42 H8          2.1473   -6.6110    0.5165 H         1 <0>         0.0691
     43 H9         -0.3323   -6.6233    0.5221 H         1 <0>         0.0760
     44 H10        -0.3367   -6.5506   -1.2564 H         1 <0>         0.0860
     45 H11         0.8947   -8.7010   -1.3473 H         1 <0>         0.0821
     46 H12         0.8990   -8.7736    0.4312 H         1 <0>         0.0409
     47 H13        -1.1377   -9.2854    1.6162 H         1 <0>         0.0448
     48 H14        -1.7636   -7.7398    0.9914 H         1 <0>         0.0895
     49 H15        -3.5986   -9.2990    1.6743 H         1 <0>         0.0993
     50 H16        -3.6604   -8.9035   -0.0609 H         1 <0>         0.0609
     51 H17        -2.2459  -12.1385   -0.9988 H         1 <0>         0.1001
     52 H18        -2.8525  -10.5991   -1.6572 H         1 <0>         0.0612
     53 H19        -0.3918  -10.6192   -1.7193 H         1 <0>         0.0886
     54 H20        -0.3321  -10.9764    0.0243 H         1 <0>         0.0452
     55 H21         8.2696   -4.3834   -0.2921 H         1 <0>         0.1993
     56 H22         5.3306   -0.0149   -0.0027 H         1 <0>         0.4275
     57 H23         6.6738    1.8794    0.9265 H         1 <0>         0.1431
     58 H24         8.7936    3.1154    0.7424 H         1 <0>         0.1506
     59 H25         8.3373   -1.3092   -1.3869 H         1 <0>         0.1663
@<TRIPOS>BOND
     1    1    2 2
     2    1   35 1
     3    1   36 1
     4    2    3 1
     5    2   37 1
     6    3    4 2
     7    3    5 am
     8    5    6 1
     9    5   38 1
    10    6   11 ar
    11    6    7 ar
    12    7    8 ar
    13    7   39 1
    14    8   25 ar
    15    8    9 ar
    16    9   10 ar
    17    9   22 ar
    18   10   11 ar
    19   10   40 1
    20   11   12 1
    21   12   13 1
    22   13   14 1
    23   13   41 1
    24   13   42 1
    25   14   15 1
    26   14   43 1
    27   14   44 1
    28   15   16 1
    29   15   45 1
    30   15   46 1
    31   16   21 1
    32   16   17 1
    33   17   18 1
    34   17   47 1
    35   17   48 1
    36   18   19 1
    37   18   49 1
    38   18   50 1
    39   19   20 1
    40   20   21 1
    41   20   51 1
    42   20   52 1
    43   21   53 1
    44   21   54 1
    45   22   23 ar
    46   23   24 ar
    47   23   55 1
    48   24   25 ar
    49   25   26 1
    50   26   27 1
    51   26   56 1
    52   27   32 ar
    53   27   28 ar
    54   28   29 ar
    55   28   57 1
    56   29   30 ar
    57   29   58 1
    58   30   31 ar
    59   30   34 1
    60   31   32 ar
    61   31   33 1
    62   32   59 1
@<TRIPOS>MOLECULE
ZINC04692584
   25    27     0     0     0
SMALL
USER_CHARGES
N-(4-fluorophenyl)-7H-purin-6-amine
@<TRIPOS>ATOM
      1 C1         -0.1514    4.1253    0.7546 C.ar      1 <0>        -0.0819
      2 C2         -0.1526    5.5018    0.8669 C.ar      1 <0>        -0.1470
      3 C3         -1.2215    6.2361    0.3814 C.ar      1 <0>         0.1017
      4 C4         -2.2887    5.5929   -0.2226 C.ar      1 <0>        -0.1492
      5 C5         -2.2892    4.2169   -0.3419 C.ar      1 <0>        -0.0655
      6 C6         -1.2182    3.4784    0.1445 C.ar      1 <0>         0.0718
      7 N1         -1.2168    2.0845    0.0252 N.pl3     1 <0>        -0.5472
      8 C7         -0.0213    1.4050   -0.1489 C.ar      1 <0>         0.4325
      9 C8          0.0131    0.0091   -0.1488 C.ar      1 <0>        -0.0664
     10 C9          1.2488   -0.6337   -0.3289 C.ar      1 <0>         0.2673
     11 N2          1.0093   -1.9579   -0.2887 N.pl3     1 <0>        -0.5347
     12 C10        -0.2634   -2.1706   -0.1000 C.2       1 <0>         0.2474
     13 N3         -0.9224   -0.9936   -0.0069 N.2       1 <0>        -0.4614
     14 H1          1.7030   -2.6712   -0.3884 H         1 <0>         0.4405
     15 N4          2.3435    0.1160   -0.4933 N.ar      1 <0>        -0.5322
     16 C11         2.2627    1.4281   -0.4857 C.ar      1 <0>         0.3402
     17 N5          1.1195    2.0683   -0.3200 N.ar      1 <0>        -0.5598
     18 F1         -1.2229    7.5822    0.4965 F         1 <0>        -0.1378
     19 H2          0.6804    3.5525    1.1373 H         1 <0>         0.1438
     20 H3          0.6787    6.0055    1.3376 H         1 <0>         0.1382
     21 H4         -3.1211    6.1676   -0.6009 H         1 <0>         0.1418
     22 H5         -3.1216    3.7157   -0.8133 H         1 <0>         0.1416
     23 H6         -1.6071    1.6789    0.8517 H         1 <0>         0.3784
     24 H7         -0.7239   -3.1449   -0.0285 H         1 <0>         0.2302
     25 H8          3.1659    2.0047   -0.6204 H         1 <0>         0.2076
@<TRIPOS>BOND
     1    1    6 ar
     2    1    2 ar
     3    1   19 1
     4    2    3 ar
     5    2   20 1
     6    3    4 ar
     7    3   18 1
     8    4    5 ar
     9    4   21 1
    10    5    6 ar
    11    5   22 1
    12    6    7 1
    13    7    8 1
    14    7   23 1
    15    8    9 ar
    16    8   17 ar
    17    9   13 1
    18    9   10 ar
    19   10   15 ar
    20   10   11 1
    21   11   14 1
    22   11   12 1
    23   12   24 1
    24   12   13 2
    25   15   16 ar
    26   16   25 1
    27   16   17 ar
@<TRIPOS>MOLECULE
ZINC01488513
   37    39     0     0     0
SMALL
USER_CHARGES
2,6-dibromo-4-(6,7-dimethoxyquinazolin-4-yl)amino-phenol
@<TRIPOS>ATOM
      1 C1          5.8723    3.2862    0.3108 C.3       1 <0>         0.0213
      2 O1          4.6757    4.0528    0.1611 O.3       1 <0>        -0.2995
      3 C2          3.5153    3.3616    0.0039 C.ar      1 <0>         0.1133
      4 C3          3.5384    1.9958   -0.0044 C.ar      1 <0>        -0.1503
      5 C4          2.3443    1.2832   -0.1662 C.ar      1 <0>        -0.1798
      6 C5          1.1206    1.9807   -0.3204 C.ar      1 <0>         0.2018
      7 C6          1.1202    3.3807   -0.3089 C.ar      1 <0>        -0.1831
      8 C7          2.3085    4.0584   -0.1482 C.ar      1 <0>         0.1645
      9 O2          2.3110    5.4169   -0.1367 O.3       1 <0>        -0.2967
     10 C8          1.0497    6.0693   -0.2963 C.3       1 <0>         0.0198
     11 N1         -0.0099    1.2732   -0.4732 N.ar      1 <0>        -0.5379
     12 C9          0.0219   -0.0382   -0.4792 C.ar      1 <0>         0.3436
     13 N2          1.1404   -0.7318   -0.3391 N.ar      1 <0>        -0.5814
     14 C10         2.3131   -0.1317   -0.1816 C.ar      1 <0>         0.4623
     15 N3          3.4716   -0.8676   -0.0362 N.pl3     1 <0>        -0.6383
     16 C11         3.4070   -2.2625    0.0626 C.ar      1 <0>         0.1598
     17 C12         2.3197   -2.8654    0.6811 C.ar      1 <0>        -0.0559
     18 C13         2.2537   -4.2426    0.7732 C.ar      1 <0>        -0.0952
     19 C14         3.2795   -5.0226    0.2585 C.ar      1 <0>         0.1474
     20 C15         4.3691   -4.4204   -0.3546 C.ar      1 <0>        -0.0957
     21 C16         4.4331   -3.0435   -0.4528 C.ar      1 <0>        -0.0935
     22 Br1         5.7662   -5.4841   -1.0563 Br        1 <0>        -0.0166
     23 O3          3.2168   -6.3779    0.3545 O.3       1 <0>        -0.4718
     24 Br2         0.7691   -5.0642    1.6079 Br        1 <0>        -0.0150
     25 H1          6.7223    3.9585    0.4273 H         1 <0>         0.1075
     26 H2          5.7885    2.6503    1.1922 H         1 <0>         0.0577
     27 H3          6.0188    2.6650   -0.5728 H         1 <0>         0.0576
     28 H4          4.4734    1.4682    0.1135 H         1 <0>         0.1396
     29 H5          0.1948    3.9253   -0.4251 H         1 <0>         0.1570
     30 H6          0.6124    5.7854   -1.2535 H         1 <0>         0.0626
     31 H7          0.3814    5.7708    0.5114 H         1 <0>         0.0626
     32 H8          1.1933    7.1495   -0.2686 H         1 <0>         0.1078
     33 H9         -0.9063   -0.5760   -0.6043 H         1 <0>         0.1995
     34 H10         4.3306   -0.4182   -0.0025 H         1 <0>         0.4230
     35 H11         1.5236   -2.2583    1.0860 H         1 <0>         0.1589
     36 H12         5.2808   -2.5750   -0.9306 H         1 <0>         0.1457
     37 H13         3.6164   -6.7341    1.1598 H         1 <0>         0.3974
@<TRIPOS>BOND
     1    1    2 1
     2    1   25 1
     3    1   26 1
     4    1   27 1
     5    2    3 1
     6    3    8 ar
     7    3    4 ar
     8    4    5 ar
     9    4   28 1
    10    5   14 ar
    11    5    6 ar
    12    6    7 ar
    13    6   11 ar
    14    7    8 ar
    15    7   29 1
    16    8    9 1
    17    9   10 1
    18   10   30 1
    19   10   31 1
    20   10   32 1
    21   11   12 ar
    22   12   13 ar
    23   12   33 1
    24   13   14 ar
    25   14   15 1
    26   15   16 1
    27   15   34 1
    28   16   21 ar
    29   16   17 ar
    30   17   18 ar
    31   17   35 1
    32   18   19 ar
    33   18   24 1
    34   19   20 ar
    35   19   23 1
    36   20   21 ar
    37   20   22 1
    38   21   36 1
    39   23   37 1
@<TRIPOS>MOLECULE
ZINC13829435
   56    60     0     0     0
SMALL
USER_CHARGES

@<TRIPOS>ATOM
      1 C1          0.0439    1.0576    0.0477 C.ar      1 <0>        -0.0548
      2 C2          1.1881    1.8266    0.0060 C.ar      1 <0>        -0.1369
      3 C3          2.4358    1.2185    0.0265 C.ar      1 <0>         0.1234
      4 C4          2.5359   -0.1647    0.0896 C.ar      1 <0>        -0.1995
      5 C5          1.3952   -0.9388    0.1320 C.ar      1 <0>        -0.0580
      6 C6          0.1412   -0.3312    0.1110 C.ar      1 <0>        -0.0592
      7 C7         -1.0881   -1.1614    0.1566 C.2       1 <0>        -0.1585
      8 C8         -1.9646   -1.0805    1.2597 C.2       1 <0>         0.1980
      9 N1         -3.0493   -1.8176    1.2926 N.2       1 <0>        -0.4493
     10 C9         -3.3451   -2.6531    0.2919 C.2       1 <0>         0.2732
     11 C10        -4.4158   -3.5333    0.0816 C.2       1 <0>        -0.1957
     12 C11        -4.2010   -4.1587   -1.1524 C.2       1 <0>         0.1200
     13 N2         -3.0857   -3.7040   -1.6687 N.2       1 <0>        -0.3012
     14 N3         -2.5231   -2.7639   -0.7981 N.pl3     1 <0>        -0.3101
     15 C12        -1.3888   -2.0101   -0.8722 C.2       1 <0>         0.1869
     16 C13        -5.5586   -3.7596    0.9936 C.ar      1 <0>         0.0464
     17 C14        -5.3530   -4.0194    2.3539 C.ar      1 <0>        -0.1527
     18 C15        -6.4462   -4.2244    3.1677 C.ar      1 <0>         0.1023
     19 N4         -7.6722   -4.1787    2.6803 N.ar      1 <0>        -0.4876
     20 C16        -7.9103   -3.9369    1.4045 C.ar      1 <0>         0.1030
     21 C17        -6.8758   -3.7142    0.5214 C.ar      1 <0>        -0.1653
     22 O1          3.5614    1.9786   -0.0156 O.3       1 <0>        -0.3268
     23 C18         4.8121    1.2877    0.0088 C.3       1 <0>         0.0248
     24 C19         5.9562    2.3021   -0.0452 C.3       1 <0>        -0.0012
     25 N5          5.9224    3.1430    1.1588 N.4       1 <0>        -0.3842
     26 C20         6.9194    4.2131    1.0347 C.3       1 <0>        -0.0070
     27 C21         6.8328    5.1395    2.2495 C.3       1 <0>        -0.1467
     28 C22         7.1050    4.3311    3.5214 C.3       1 <0>        -0.1393
     29 C23         6.1060    3.1732    3.6021 C.3       1 <0>        -0.1454
     30 C24         6.2195    2.3197    2.3372 C.3       1 <0>        -0.0130
     31 H1         -0.9266    1.5314    0.0358 H         1 <0>         0.1407
     32 H2          1.1133    2.9028   -0.0431 H         1 <0>         0.1389
     33 H3          3.5080   -0.6350    0.1051 H         1 <0>         0.1321
     34 H4          1.4737   -2.0148    0.1807 H         1 <0>         0.1339
     35 H5         -1.7420   -0.4114    2.0777 H         1 <0>         0.1828
     36 H6         -4.8483   -4.8956   -1.6046 H         1 <0>         0.2069
     37 H7         -0.7356   -2.0858   -1.7289 H         1 <0>         0.1821
     38 H8         -4.3527   -4.0590    2.7593 H         1 <0>         0.1304
     39 H9         -6.2979   -4.4255    4.2184 H         1 <0>         0.1563
     40 H10        -8.9296   -3.9091    1.0488 H         1 <0>         0.1580
     41 H11        -7.0781   -3.5120   -0.5201 H         1 <0>         0.1350
     42 H12         4.8870    0.7041    0.9263 H         1 <0>         0.0878
     43 H13         4.8761    0.6217   -0.8517 H         1 <0>         0.1106
     44 H14         6.9084    1.7737   -0.0928 H         1 <0>         0.1496
     45 H15         5.8443    2.9293   -0.9297 H         1 <0>         0.1430
     46 H16         7.9164    3.7758    0.9820 H         1 <0>         0.1293
     47 H17         6.7263    4.7855    0.1274 H         1 <0>         0.1312
     48 H18         7.5751    5.9323    2.1563 H         1 <0>         0.1133
     49 H19         5.8362    5.5775    2.3030 H         1 <0>         0.0881
     50 H20         8.1202    3.9352    3.4914 H         1 <0>         0.0821
     51 H21         6.9890    4.9742    4.3938 H         1 <0>         0.0950
     52 H22         6.3287    2.5606    4.4758 H         1 <0>         0.1125
     53 H23         5.0943    3.5705    3.6837 H         1 <0>         0.0881
     54 H24         5.5097    1.4943    2.3915 H         1 <0>         0.1271
     55 H25         7.2315    1.9228    2.2568 H         1 <0>         0.1303
     56 H26         5.0048    3.5508    1.2574 H         1 <0>         0.4293
@<TRIPOS>BOND
     1    1    6 ar
     2    1    2 ar
     3    1   31 1
     4    2    3 ar
     5    2   32 1
     6    3    4 ar
     7    3   22 1
     8    4    5 ar
     9    4   33 1
    10    5    6 ar
    11    5   34 1
    12    6    7 1
    13    7   15 2
    14    7    8 1
    15    8    9 2
    16    8   35 1
    17    9   10 1
    18   10   14 1
    19   10   11 2
    20   11   12 1
    21   11   16 1
    22   12   13 2
    23   12   36 1
    24   13   14 1
    25   14   15 1
    26   15   37 1
    27   16   21 ar
    28   16   17 ar
    29   17   18 ar
    30   17   38 1
    31   18   19 ar
    32   18   39 1
    33   19   20 ar
    34   20   21 ar
    35   20   40 1
    36   21   41 1
    37   22   23 1
    38   23   24 1
    39   23   42 1
    40   23   43 1
    41   24   25 1
    42   24   44 1
    43   24   45 1
    44   25   30 1
    45   25   26 1
    46   25   56 1
    47   26   27 1
    48   26   46 1
    49   26   47 1
    50   27   28 1
    51   27   48 1
    52   27   49 1
    53   28   29 1
    54   28   50 1
    55   28   51 1
    56   29   30 1
    57   29   52 1
    58   29   53 1
    59   30   54 1
    60   30   55 1
@<TRIPOS>MOLECULE
ZINC21289032
   32    34     0     0     0
SMALL
USER_CHARGES

@<TRIPOS>ATOM
      1 C1         -0.0846    1.4682    0.8550 C.3       1 <0>         0.0923
      2 N1         -0.0658    0.0035    0.8766 N.pl3     1 <0>        -0.7270
      3 C2         -1.2475   -0.7109    0.6952 C.ar      1 <0>         0.3849
      4 C3         -2.4311   -0.0222    0.4900 C.ar      1 <0>        -0.2115
      5 C4         -3.6034   -0.7588    0.3100 C.ar      1 <0>        -0.1027
      6 C5         -3.5328   -2.1754    0.3449 C.ar      1 <0>         0.0721
      7 C6         -2.2879   -2.7802    0.5588 C.ar      1 <0>         0.2054
      8 N2         -1.2146   -2.0389    0.7173 N.ar      1 <0>        -0.5039
      9 N3         -4.6615   -2.8760    0.1710 N.ar      1 <0>        -0.5152
     10 C7         -5.8061   -2.2705   -0.0269 C.ar      1 <0>         0.3224
     11 N4         -5.9467   -0.9551   -0.0720 N.ar      1 <0>        -0.5639
     12 C8         -4.9078   -0.1431    0.0857 C.ar      1 <0>         0.4525
     13 N5         -5.0554    1.2279    0.0390 N.pl3     1 <0>        -0.6325
     14 C9         -6.3312    1.7906   -0.0572 C.ar      1 <0>         0.1590
     15 C10        -7.4154    1.1645    0.5453 C.ar      1 <0>        -0.0965
     16 C11        -8.6747    1.7229    0.4490 C.ar      1 <0>        -0.0914
     17 C12        -8.8578    2.9043   -0.2462 C.ar      1 <0>        -0.1047
     18 C13        -7.7806    3.5306   -0.8476 C.ar      1 <0>        -0.0705
     19 C14        -6.5168    2.9796   -0.7504 C.ar      1 <0>        -0.1206
     20 Br1        -8.0366    5.1455   -1.7976 Br        1 <0>        -0.0441
     21 H1          0.9252    1.8469    1.0130 H         1 <0>         0.0839
     22 H2         -0.4549    1.8126   -0.1105 H         1 <0>         0.0573
     23 H3         -0.7381    1.8348    1.6466 H         1 <0>         0.0575
     24 H4          0.7697   -0.4688    1.0172 H         1 <0>         0.4096
     25 H5         -2.4471    1.0575    0.4700 H         1 <0>         0.1347
     26 H6         -2.2093   -3.8568    0.5898 H         1 <0>         0.1816
     27 H7         -6.6870   -2.8806   -0.1616 H         1 <0>         0.1975
     28 H8         -4.2737    1.8013    0.0729 H         1 <0>         0.4224
     29 H9         -7.2735    0.2418    1.0882 H         1 <0>         0.1440
     30 H10        -9.5176    1.2363    0.9170 H         1 <0>         0.1377
     31 H11        -9.8439    3.3386   -0.3203 H         1 <0>         0.1352
     32 H12        -5.6754    3.4710   -1.2161 H         1 <0>         0.1345
@<TRIPOS>BOND
     1    1    2 1
     2    1   21 1
     3    1   22 1
     4    1   23 1
     5    2    3 1
     6    2   24 1
     7    3    8 ar
     8    3    4 ar
     9    4    5 ar
    10    4   25 1
    11    5   12 ar
    12    5    6 ar
    13    6    7 ar
    14    6    9 ar
    15    7    8 ar
    16    7   26 1
    17    9   10 ar
    18   10   11 ar
    19   10   27 1
    20   11   12 ar
    21   12   13 1
    22   13   14 1
    23   13   28 1
    24   14   19 ar
    25   14   15 ar
    26   15   16 ar
    27   15   29 1
    28   16   17 ar
    29   16   30 1
    30   17   18 ar
    31   17   31 1
    32   18   19 ar
    33   18   20 1
    34   19   32 1
@<TRIPOS>MOLECULE
ZINC01546066
   52    54     0     0     0
SMALL
USER_CHARGES

@<TRIPOS>ATOM
      1 C1          1.3190    1.4185    0.8998 C.3       1 <0>         0.0308
      2 O1          1.1221    0.0121    0.7412 O.3       1 <0>        -0.3842
      3 C2          1.6336   -0.7719    1.8209 C.3       1 <0>         0.0626
      4 C3          1.3686   -2.2534    1.5456 C.3       1 <0>         0.0560
      5 O2          2.1105   -2.6643    0.3955 O.3       1 <0>        -0.2877
      6 C4          1.9861   -3.9631    0.0122 C.ar      1 <0>         0.1163
      7 C5          1.1727   -4.8014    0.7206 C.ar      1 <0>        -0.1508
      8 C6          1.0439   -6.1386    0.3269 C.ar      1 <0>        -0.1822
      9 C7          1.7562   -6.6146   -0.8018 C.ar      1 <0>         0.2018
     10 C8          2.5842   -5.7378   -1.5132 C.ar      1 <0>        -0.1867
     11 C9          2.6894   -4.4253   -1.1088 C.ar      1 <0>         0.1692
     12 O3          3.4878   -3.5711   -1.8004 O.3       1 <0>        -0.2847
     13 C10         4.1782   -4.1019   -2.9333 C.3       1 <0>         0.0544
     14 C11         5.0210   -3.0002   -3.5791 C.3       1 <0>         0.0626
     15 O4          6.0448   -2.5894   -2.6708 O.3       1 <0>        -0.3848
     16 C12         6.8933   -1.5581   -3.1792 C.3       1 <0>         0.0309
     17 N1          1.6146   -7.9009   -1.1583 N.ar      1 <0>        -0.5426
     18 C13         0.8310   -8.6986   -0.4725 C.ar      1 <0>         0.3422
     19 N2          0.1465   -8.2987    0.5874 N.ar      1 <0>        -0.5807
     20 C14         0.2146   -7.0483    1.0253 C.ar      1 <0>         0.4641
     21 N3         -0.5043   -6.6451    2.1328 N.pl3     1 <0>        -0.6417
     22 C15        -1.2223   -7.5837    2.8797 C.ar      1 <0>         0.1534
     23 C16        -2.4417   -7.2339    3.4483 C.ar      1 <0>        -0.1365
     24 C17        -3.1548   -8.1581    4.1879 C.ar      1 <0>        -0.0976
     25 C18        -2.6612   -9.4349    4.3666 C.ar      1 <0>        -0.1098
     26 C19        -1.4382   -9.7960    3.7995 C.ar      1 <0>         0.0290
     27 C20        -0.7210   -8.8652    3.0488 C.ar      1 <0>        -0.0846
     28 C21        -0.9239  -11.1197    3.9839 C.1       1 <0>        -0.1518
     29 C22        -0.5023  -12.2049    4.1351 C.1       1 <0>        -0.1689
     30 H1          2.3858    1.6300    0.9737 H         1 <0>         0.0438
     31 H2          0.9034    1.9430    0.0394 H         1 <0>         0.0882
     32 H3          0.8182    1.7554    1.8074 H         1 <0>         0.0421
     33 H4          2.7069   -0.6059    1.9138 H         1 <0>         0.0642
     34 H5          1.1392   -0.4804    2.7476 H         1 <0>         0.0738
     35 H6          1.6782   -2.8442    2.4078 H         1 <0>         0.0797
     36 H7          0.3045   -2.4047    1.3647 H         1 <0>         0.0731
     37 H8          0.6320   -4.4344    1.5804 H         1 <0>         0.1376
     38 H9          3.1329   -6.0870   -2.3754 H         1 <0>         0.1546
     39 H10         4.8282   -4.9164   -2.6138 H         1 <0>         0.0783
     40 H11         3.4545   -4.4770   -3.6569 H         1 <0>         0.0849
     41 H12         5.4773   -3.3804   -4.4931 H         1 <0>         0.0752
     42 H13         4.3841   -2.1485   -3.8181 H         1 <0>         0.0638
     43 H14         6.2953   -0.6764   -3.4098 H         1 <0>         0.0434
     44 H15         7.6433   -1.3027   -2.4306 H         1 <0>         0.0879
     45 H16         7.3884   -1.9084   -4.0848 H         1 <0>         0.0424
     46 H17         0.7401   -9.7278   -0.7869 H         1 <0>         0.1966
     47 H18        -0.5113   -5.7106    2.3927 H         1 <0>         0.4197
     48 H19        -2.8329   -6.2365    3.3119 H         1 <0>         0.1281
     49 H20        -4.1012   -7.8805    4.6278 H         1 <0>         0.1331
     50 H21        -3.2213  -10.1542    4.9456 H         1 <0>         0.1284
     51 H22         0.2239   -9.1405    2.6039 H         1 <0>         0.1386
     52 H23        -0.1252  -13.1754    4.2703 H         1 <0>         0.2249
@<TRIPOS>BOND
     1    1    2 1
     2    1   30 1
     3    1   31 1
     4    1   32 1
     5    2    3 1
     6    3    4 1
     7    3   33 1
     8    3   34 1
     9    4    5 1
    10    4   35 1
    11    4   36 1
    12    5    6 1
    13    6   11 ar
    14    6    7 ar
    15    7    8 ar
    16    7   37 1
    17    8   20 ar
    18    8    9 ar
    19    9   10 ar
    20    9   17 ar
    21   10   11 ar
    22   10   38 1
    23   11   12 1
    24   12   13 1
    25   13   14 1
    26   13   39 1
    27   13   40 1
    28   14   15 1
    29   14   41 1
    30   14   42 1
    31   15   16 1
    32   16   43 1
    33   16   44 1
    34   16   45 1
    35   17   18 ar
    36   18   19 ar
    37   18   46 1
    38   19   20 ar
    39   20   21 1
    40   21   22 1
    41   21   47 1
    42   22   27 ar
    43   22   23 ar
    44   23   24 ar
    45   23   48 1
    46   24   25 ar
    47   24   49 1
    48   25   26 ar
    49   25   50 1
    50   26   27 ar
    51   26   28 1
    52   27   51 1
    53   28   29 3
    54   29   52 1
@<TRIPOS>MOLECULE
ZINC23247639
   69    72     0     0     0
SMALL
USER_CHARGES
1-[4-[(4-ethylpiperazin-1-yl)methyl]-3-(trifluoromethyl)phenyl]-3-[4-(6-methylaminopyrimidin-4-yl)oxyphenyl]urea
@<TRIPOS>ATOM
      1 C1          8.9417    3.3719    8.2172 C.3       1 <0>        -0.1901
      2 C2         10.1498    2.9102    7.3997 C.3       1 <0>        -0.0070
      3 N1          9.9972    3.3533    6.0075 N.4       1 <0>        -0.4011
      4 C3         11.2367    3.1387    5.2477 C.3       1 <0>         0.0016
      5 C4         11.0629    3.6845    3.8284 C.3       1 <0>         0.0271
      6 N2          9.9288    3.0094    3.1822 N.3       1 <0>        -0.5300
      7 C5          8.6893    3.2240    3.9420 C.3       1 <0>         0.0232
      8 C6          8.8631    2.6781    5.3612 C.3       1 <0>        -0.0016
      9 C7          9.7762    3.4524    1.7899 C.3       1 <0>         0.0786
     10 C8          8.7879    2.5601    1.0842 C.ar      1 <0>        -0.0666
     11 C9          7.5022    3.0092    0.8434 C.ar      1 <0>        -0.0932
     12 C10         6.5958    2.1959    0.1923 C.ar      1 <0>        -0.0888
     13 C11         6.9731    0.9214   -0.2106 C.ar      1 <0>         0.1880
     14 C12         8.2646    0.4735    0.0326 C.ar      1 <0>        -0.1043
     15 C13         9.1683    1.2940    0.6793 C.ar      1 <0>        -0.1369
     16 C14        10.5702    0.8086    0.9441 C.3       1 <0>         0.5111
     17 F1         10.7250   -0.4786    0.4184 F         1 <0>        -0.1776
     18 F2         11.4860    1.6739    0.3362 F         1 <0>        -0.1774
     19 F3         10.8008    0.7797    2.3237 F         1 <0>        -0.1628
     20 N3          6.0552    0.0926   -0.8655 N.am      1 <0>        -0.6979
     21 C15         4.7513    0.1311   -0.5266 C.2       1 <0>         0.7117
     22 O1          4.3858    0.8194    0.4067 O.2       1 <0>        -0.5623
     23 N4          3.8526   -0.5934   -1.2222 N.am      1 <0>        -0.6900
     24 C16         2.4863   -0.4790   -0.9335 C.ar      1 <0>         0.1635
     25 C17         1.5516   -0.5518   -1.9576 C.ar      1 <0>        -0.1265
     26 C18         0.2052   -0.4394   -1.6724 C.ar      1 <0>        -0.0923
     27 C19        -0.2137   -0.2543   -0.3628 C.ar      1 <0>         0.0841
     28 C20         0.7198   -0.1815    0.6609 C.ar      1 <0>        -0.0957
     29 C21         2.0665   -0.2932    0.3769 C.ar      1 <0>        -0.1058
     30 O2         -1.5393   -0.1385   -0.0833 O.3       1 <0>        -0.2424
     31 C22        -2.3129   -1.2454   -0.1983 C.ar      1 <0>         0.3836
     32 C23        -3.6894   -1.1637   -0.0277 C.ar      1 <0>        -0.3134
     33 C24        -4.4409   -2.3284   -0.1601 C.ar      1 <0>         0.4631
     34 N5         -3.8165   -3.4721   -0.4341 N.ar      1 <0>        -0.5936
     35 C25        -2.5082   -3.5081   -0.5840 C.ar      1 <0>         0.3760
     36 N6         -1.7644   -2.4263   -0.4707 N.ar      1 <0>        -0.6039
     37 N7         -5.8178   -2.2988   -0.0034 N.pl3     1 <0>        -0.7218
     38 C26        -6.4937   -1.0344    0.2979 C.3       1 <0>         0.0891
     39 H1          9.0560    3.0401    9.2597 H         1 <0>         0.1066
     40 H2          8.0243    2.9380    7.7928 H         1 <0>         0.0798
     41 H3          8.8763    4.4695    8.1868 H         1 <0>         0.0803
     42 H4         11.0672    3.3441    7.8241 H         1 <0>         0.1306
     43 H5         10.2153    1.8126    7.4301 H         1 <0>         0.1269
     44 H6         12.0665    3.6630    5.7442 H         1 <0>         0.1361
     45 H7         11.4577    2.0621    5.2031 H         1 <0>         0.1357
     46 H8         10.8699    4.7665    3.8728 H         1 <0>         0.0625
     47 H9         11.9796    3.4990    3.2494 H         1 <0>         0.1239
     48 H10         8.4684    4.3007    3.9867 H         1 <0>         0.0621
     49 H11         7.8594    2.6998    3.4455 H         1 <0>         0.1239
     50 H12         9.0569    1.5962    5.3178 H         1 <0>         0.1351
     51 H13         7.9470    2.8635    5.9412 H         1 <0>         0.1359
     52 H14         9.4106    4.4897    1.7732 H         1 <0>         0.0663
     53 H15        10.7489    3.3982    1.2791 H         1 <0>         0.1073
     54 H16         7.2082    3.9988    1.1607 H         1 <0>         0.1358
     55 H17         5.5933    2.5489    0.0003 H         1 <0>         0.1466
     56 H18         8.5625   -0.5152   -0.2838 H         1 <0>         0.1447
     57 H19         6.3979   -0.5903   -1.6569 H         1 <0>         0.4387
     58 H20         4.1917   -1.2745   -2.0166 H         1 <0>         0.4355
     59 H21         1.8775   -0.6959   -2.9771 H         1 <0>         0.1334
     60 H22        -0.5220   -0.4960   -2.4689 H         1 <0>         0.1303
     61 H23         0.3932   -0.0371    1.6801 H         1 <0>         0.1327
     62 H24         2.7931   -0.2369    1.1740 H         1 <0>         0.1442
     63 H25        -4.1646   -0.2205    0.1982 H         1 <0>         0.1466
     64 H26        -2.0315   -4.4515   -0.8058 H         1 <0>         0.2000
     65 H27        -6.4030   -3.2246   -0.1053 H         1 <0>         0.4376
     66 H28        -7.5762   -1.2091    0.3856 H         1 <0>         0.0864
     67 H29        -6.3028   -0.3146   -0.5117 H         1 <0>         0.0603
     68 H30        -6.1096   -0.6302    1.2461 H         1 <0>         0.0599
     69 H31         9.7882    4.4332    6.0188 H         1 <0>         0.4364
@<TRIPOS>BOND
     1    1    2 1
     2    1   39 1
     3    1   40 1
     4    1   41 1
     5    2    3 1
     6    2   42 1
     7    2   43 1
     8    3    8 1
     9    3    4 1
    10    3   69 1
    11    4    5 1
    12    4   44 1
    13    4   45 1
    14    5    6 1
    15    5   46 1
    16    5   47 1
    17    6    7 1
    18    6    9 1
    19    7    8 1
    20    7   48 1
    21    7   49 1
    22    8   50 1
    23    8   51 1
    24    9   10 1
    25    9   52 1
    26    9   53 1
    27   10   15 ar
    28   10   11 ar
    29   11   12 ar
    30   11   54 1
    31   12   13 ar
    32   12   55 1
    33   13   14 ar
    34   13   20 1
    35   14   15 ar
    36   14   56 1
    37   15   16 1
    38   16   17 1
    39   16   18 1
    40   16   19 1
    41   20   21 am
    42   20   57 1
    43   21   22 2
    44   21   23 am
    45   23   24 1
    46   23   58 1
    47   24   29 ar
    48   24   25 ar
    49   25   26 ar
    50   25   59 1
    51   26   27 ar
    52   26   60 1
    53   27   28 ar
    54   27   30 1
    55   28   29 ar
    56   28   61 1
    57   29   62 1
    58   30   31 1
    59   31   36 ar
    60   31   32 ar
    61   32   33 ar
    62   32   63 1
    63   33   34 ar
    64   33   37 1
    65   34   35 ar
    66   35   36 ar
    67   35   64 1
    68   37   38 1
    69   37   65 1
    70   38   66 1
    71   38   67 1
    72   38   68 1
@<TRIPOS>MOLECULE
ZINC23247639
   69    72     0     0     0
SMALL
USER_CHARGES
1-[4-[(4-ethylpiperazin-1-yl)methyl]-3-(trifluoromethyl)phenyl]-3-[4-(6-methylaminopyrimidin-4-yl)oxyphenyl]urea
@<TRIPOS>ATOM
      1 C1          8.9417    3.3719    8.2172 C.3       1 <0>        -0.1569
      2 C2         10.1498    2.9102    7.3997 C.3       1 <0>         0.0486
      3 N1          9.9972    3.3533    6.0075 N.3       1 <0>        -0.5379
      4 C3         11.2367    3.1387    5.2477 C.3       1 <0>         0.0250
      5 C4         11.0629    3.6845    3.8284 C.3       1 <0>         0.0004
      6 N2          9.9288    3.0094    3.1822 N.4       1 <0>        -0.4202
      7 C5          8.6893    3.2240    3.9420 C.3       1 <0>        -0.0009
      8 C6          8.8631    2.6781    5.3612 C.3       1 <0>         0.0222
      9 C7          9.7762    3.4524    1.7899 C.3       1 <0>         0.0266
     10 C8          8.7879    2.5601    1.0842 C.ar      1 <0>        -0.1272
     11 C9          7.5022    3.0092    0.8434 C.ar      1 <0>        -0.0630
     12 C10         6.5958    2.1959    0.1923 C.ar      1 <0>        -0.0846
     13 C11         6.9731    0.9214   -0.2106 C.ar      1 <0>         0.2154
     14 C12         8.2646    0.4735    0.0326 C.ar      1 <0>        -0.0955
     15 C13         9.1683    1.2940    0.6793 C.ar      1 <0>        -0.1507
     16 C14        10.5702    0.8086    0.9441 C.3       1 <0>         0.5109
     17 F1         10.7250   -0.4786    0.4184 F         1 <0>        -0.1491
     18 F2         11.4860    1.6739    0.3362 F         1 <0>        -0.1584
     19 F3         10.8008    0.7797    2.3237 F         1 <0>        -0.1724
     20 N3          6.0552    0.0926   -0.8655 N.am      1 <0>        -0.6988
     21 C15         4.7513    0.1311   -0.5266 C.2       1 <0>         0.7114
     22 O1          4.3858    0.8194    0.4067 O.2       1 <0>        -0.5584
     23 N4          3.8526   -0.5934   -1.2222 N.am      1 <0>        -0.6858
     24 C16         2.4863   -0.4790   -0.9335 C.ar      1 <0>         0.1577
     25 C17         1.5516   -0.5518   -1.9576 C.ar      1 <0>        -0.1240
     26 C18         0.2052   -0.4394   -1.6724 C.ar      1 <0>        -0.0926
     27 C19        -0.2137   -0.2543   -0.3628 C.ar      1 <0>         0.0883
     28 C20         0.7198   -0.1815    0.6609 C.ar      1 <0>        -0.0957
     29 C21         2.0665   -0.2932    0.3769 C.ar      1 <0>        -0.1046
     30 O2         -1.5393   -0.1385   -0.0833 O.3       1 <0>        -0.2426
     31 C22        -2.3129   -1.2454   -0.1983 C.ar      1 <0>         0.3832
     32 C23        -3.6894   -1.1637   -0.0277 C.ar      1 <0>        -0.3126
     33 C24        -4.4409   -2.3284   -0.1601 C.ar      1 <0>         0.4635
     34 N5         -3.8165   -3.4721   -0.4341 N.ar      1 <0>        -0.5931
     35 C25        -2.5082   -3.5081   -0.5840 C.ar      1 <0>         0.3762
     36 N6         -1.7644   -2.4263   -0.4707 N.ar      1 <0>        -0.6049
     37 N7         -5.8178   -2.2988   -0.0034 N.pl3     1 <0>        -0.7212
     38 C26        -6.4937   -1.0344    0.2979 C.3       1 <0>         0.0887
     39 H1          9.0560    3.0401    9.2597 H         1 <0>         0.0714
     40 H2          8.0243    2.9380    7.7928 H         1 <0>         0.0562
     41 H3          8.8763    4.4695    8.1868 H         1 <0>         0.0696
     42 H4         11.0672    3.3441    7.8241 H         1 <0>         0.0895
     43 H5         10.2153    1.8126    7.4301 H         1 <0>         0.0455
     44 H6         12.0665    3.6630    5.7442 H         1 <0>         0.1253
     45 H7         11.4577    2.0621    5.2031 H         1 <0>         0.0582
     46 H8         10.8699    4.7665    3.8728 H         1 <0>         0.1369
     47 H9         11.9796    3.4990    3.2494 H         1 <0>         0.1329
     48 H10         8.4684    4.3007    3.9867 H         1 <0>         0.1355
     49 H11         7.8594    2.6998    3.4455 H         1 <0>         0.1312
     50 H12         9.0569    1.5962    5.3178 H         1 <0>         0.0572
     51 H13         7.9470    2.8635    5.9412 H         1 <0>         0.1266
     52 H14         9.4106    4.4897    1.7732 H         1 <0>         0.1472
     53 H15        10.7489    3.3982    1.2791 H         1 <0>         0.1420
     54 H16         7.2082    3.9988    1.1607 H         1 <0>         0.1512
     55 H17         5.5933    2.5489    0.0003 H         1 <0>         0.1583
     56 H18         8.5625   -0.5152   -0.2838 H         1 <0>         0.1556
     57 H19         6.3979   -0.5903   -1.6569 H         1 <0>         0.4440
     58 H20         4.1917   -1.2745   -2.0166 H         1 <0>         0.4371
     59 H21         1.8775   -0.6959   -2.9771 H         1 <0>         0.1338
     60 H22        -0.5220   -0.4960   -2.4689 H         1 <0>         0.1313
     61 H23         0.3932   -0.0371    1.6801 H         1 <0>         0.1341
     62 H24         2.7931   -0.2369    1.1740 H         1 <0>         0.1440
     63 H25        -4.1646   -0.2205    0.1982 H         1 <0>         0.1470
     64 H26        -2.0315   -4.4515   -0.8058 H         1 <0>         0.2001
     65 H27        -6.4030   -3.2246   -0.1053 H         1 <0>         0.4380
     66 H28        -7.5762   -1.2091    0.3856 H         1 <0>         0.0868
     67 H29        -6.3028   -0.3146   -0.5117 H         1 <0>         0.0604
     68 H30        -6.1096   -0.6302    1.2461 H         1 <0>         0.0603
     69 H31        10.1379    1.9295    3.1711 H         1 <0>         0.4253
@<TRIPOS>BOND
     1    1    2 1
     2    1   39 1
     3    1   40 1
     4    1   41 1
     5    2    3 1
     6    2   42 1
     7    2   43 1
     8    3    8 1
     9    3    4 1
    10    4    5 1
    11    4   44 1
    12    4   45 1
    13    5    6 1
    14    5   46 1
    15    5   47 1
    16    6    7 1
    17    6    9 1
    18    6   69 1
    19    7    8 1
    20    7   48 1
    21    7   49 1
    22    8   50 1
    23    8   51 1
    24    9   10 1
    25    9   52 1
    26    9   53 1
    27   10   15 ar
    28   10   11 ar
    29   11   12 ar
    30   11   54 1
    31   12   13 ar
    32   12   55 1
    33   13   14 ar
    34   13   20 1
    35   14   15 ar
    36   14   56 1
    37   15   16 1
    38   16   17 1
    39   16   18 1
    40   16   19 1
    41   20   21 am
    42   20   57 1
    43   21   22 2
    44   21   23 am
    45   23   24 1
    46   23   58 1
    47   24   29 ar
    48   24   25 ar
    49   25   26 ar
    50   25   59 1
    51   26   27 ar
    52   26   60 1
    53   27   28 ar
    54   27   30 1
    55   28   29 ar
    56   28   61 1
    57   29   62 1
    58   30   31 1
    59   31   36 ar
    60   31   32 ar
    61   32   33 ar
    62   32   63 1
    63   33   34 ar
    64   33   37 1
    65   34   35 ar
    66   35   36 ar
    67   35   64 1
    68   37   38 1
    69   37   65 1
    70   38   66 1
    71   38   67 1
    72   38   68 1
@<TRIPOS>MOLECULE
ZINC23247639
   68    71     0     0     0
SMALL
USER_CHARGES
1-[4-[(4-ethylpiperazin-1-yl)methyl]-3-(trifluoromethyl)phenyl]-3-[4-(6-methylaminopyrimidin-4-yl)oxyphenyl]urea
@<TRIPOS>ATOM
      1 C1          8.9417    3.3719    8.2172 C.3       1 <0>        -0.1510
      2 C2         10.1498    2.9102    7.3997 C.3       1 <0>         0.0499
      3 N1          9.9972    3.3533    6.0075 N.3       1 <0>        -0.5402
      4 C3         11.2367    3.1387    5.2477 C.3       1 <0>         0.0569
      5 C4         11.0629    3.6845    3.8284 C.3       1 <0>         0.0590
      6 N2          9.9288    3.0094    3.1822 N.3       1 <0>        -0.5268
      7 C5          8.6893    3.2240    3.9420 C.3       1 <0>         0.0561
      8 C6          8.8631    2.6781    5.3612 C.3       1 <0>         0.0550
      9 C7          9.7762    3.4524    1.7899 C.3       1 <0>         0.0729
     10 C8          8.7879    2.5601    1.0842 C.ar      1 <0>        -0.0447
     11 C9          7.5022    3.0092    0.8434 C.ar      1 <0>        -0.0942
     12 C10         6.5958    2.1959    0.1923 C.ar      1 <0>        -0.0884
     13 C11         6.9731    0.9214   -0.2106 C.ar      1 <0>         0.1720
     14 C12         8.2646    0.4735    0.0326 C.ar      1 <0>        -0.1038
     15 C13         9.1683    1.2940    0.6793 C.ar      1 <0>        -0.1404
     16 C14        10.5702    0.8086    0.9441 C.3       1 <0>         0.5095
     17 F1         10.7250   -0.4786    0.4184 F         1 <0>        -0.1841
     18 F2         11.4860    1.6739    0.3362 F         1 <0>        -0.1795
     19 F3         10.8008    0.7797    2.3237 F         1 <0>        -0.1519
     20 N3          6.0552    0.0926   -0.8655 N.am      1 <0>        -0.6948
     21 C15         4.7513    0.1311   -0.5266 C.2       1 <0>         0.7096
     22 O1          4.3858    0.8194    0.4067 O.2       1 <0>        -0.5587
     23 N4          3.8526   -0.5934   -1.2222 N.am      1 <0>        -0.6930
     24 C16         2.4863   -0.4790   -0.9335 C.ar      1 <0>         0.1697
     25 C17         1.5516   -0.5518   -1.9576 C.ar      1 <0>        -0.1297
     26 C18         0.2052   -0.4394   -1.6724 C.ar      1 <0>        -0.0930
     27 C19        -0.2137   -0.2543   -0.3628 C.ar      1 <0>         0.0783
     28 C20         0.7198   -0.1815    0.6609 C.ar      1 <0>        -0.0936
     29 C21         2.0665   -0.2932    0.3769 C.ar      1 <0>        -0.1059
     30 O2         -1.5393   -0.1385   -0.0833 O.3       1 <0>        -0.2412
     31 C22        -2.3129   -1.2454   -0.1983 C.ar      1 <0>         0.3851
     32 C23        -3.6894   -1.1637   -0.0277 C.ar      1 <0>        -0.3141
     33 C24        -4.4409   -2.3284   -0.1601 C.ar      1 <0>         0.4620
     34 N5         -3.8165   -3.4721   -0.4341 N.ar      1 <0>        -0.5954
     35 C25        -2.5082   -3.5081   -0.5840 C.ar      1 <0>         0.3753
     36 N6         -1.7644   -2.4263   -0.4707 N.ar      1 <0>        -0.6017
     37 N7         -5.8178   -2.2988   -0.0034 N.pl3     1 <0>        -0.7231
     38 C26        -6.4937   -1.0344    0.2979 C.3       1 <0>         0.0898
     39 H1          9.0560    3.0401    9.2597 H         1 <0>         0.0595
     40 H2          8.0243    2.9380    7.7928 H         1 <0>         0.0547
     41 H3          8.8763    4.4695    8.1868 H         1 <0>         0.0631
     42 H4         11.0672    3.3441    7.8241 H         1 <0>         0.0746
     43 H5         10.2153    1.8126    7.4301 H         1 <0>         0.0335
     44 H6         12.0665    3.6630    5.7442 H         1 <0>         0.0800
     45 H7         11.4577    2.0621    5.2031 H         1 <0>         0.0441
     46 H8         10.8699    4.7665    3.8728 H         1 <0>         0.0445
     47 H9         11.9796    3.4990    3.2494 H         1 <0>         0.0809
     48 H10         8.4684    4.3007    3.9867 H         1 <0>         0.0435
     49 H11         7.8594    2.6998    3.4455 H         1 <0>         0.0808
     50 H12         9.0569    1.5962    5.3178 H         1 <0>         0.0425
     51 H13         7.9470    2.8635    5.9412 H         1 <0>         0.0819
     52 H14         9.4106    4.4897    1.7732 H         1 <0>         0.0550
     53 H15        10.7489    3.3982    1.2791 H         1 <0>         0.0962
     54 H16         7.2082    3.9988    1.1607 H         1 <0>         0.1355
     55 H17         5.5933    2.5489    0.0003 H         1 <0>         0.1427
     56 H18         8.5625   -0.5152   -0.2838 H         1 <0>         0.1409
     57 H19         6.3979   -0.5903   -1.6569 H         1 <0>         0.4343
     58 H20         4.1917   -1.2745   -2.0166 H         1 <0>         0.4332
     59 H21         1.8775   -0.6959   -2.9771 H         1 <0>         0.1323
     60 H22        -0.5220   -0.4960   -2.4689 H         1 <0>         0.1282
     61 H23         0.3932   -0.0371    1.6801 H         1 <0>         0.1328
     62 H24         2.7931   -0.2369    1.1740 H         1 <0>         0.1466
     63 H25        -4.1646   -0.2205    0.1982 H         1 <0>         0.1463
     64 H26        -2.0315   -4.4515   -0.8058 H         1 <0>         0.1996
     65 H27        -6.4030   -3.2246   -0.1053 H         1 <0>         0.4362
     66 H28        -7.5762   -1.2091    0.3856 H         1 <0>         0.0851
     67 H29        -6.3028   -0.3146   -0.5117 H         1 <0>         0.0598
     68 H30        -6.1096   -0.6302    1.2461 H         1 <0>         0.0599
@<TRIPOS>BOND
     1    1    2 1
     2    1   39 1
     3    1   40 1
     4    1   41 1
     5    2    3 1
     6    2   42 1
     7    2   43 1
     8    3    8 1
     9    3    4 1
    10    4    5 1
    11    4   44 1
    12    4   45 1
    13    5    6 1
    14    5   46 1
    15    5   47 1
    16    6    7 1
    17    6    9 1
    18    7    8 1
    19    7   48 1
    20    7   49 1
    21    8   50 1
    22    8   51 1
    23    9   10 1
    24    9   52 1
    25    9   53 1
    26   10   15 ar
    27   10   11 ar
    28   11   12 ar
    29   11   54 1
    30   12   13 ar
    31   12   55 1
    32   13   14 ar
    33   13   20 1
    34   14   15 ar
    35   14   56 1
    36   15   16 1
    37   16   17 1
    38   16   18 1
    39   16   19 1
    40   20   21 am
    41   20   57 1
    42   21   22 2
    43   21   23 am
    44   23   24 1
    45   23   58 1
    46   24   29 ar
    47   24   25 ar
    48   25   26 ar
    49   25   59 1
    50   26   27 ar
    51   26   60 1
    52   27   28 ar
    53   27   30 1
    54   28   29 ar
    55   28   61 1
    56   29   62 1
    57   30   31 1
    58   31   36 ar
    59   31   32 ar
    60   32   33 ar
    61   32   63 1
    62   33   34 ar
    63   33   37 1
    64   34   35 ar
    65   35   36 ar
    66   35   64 1
    67   37   38 1
    68   37   65 1
    69   38   66 1
    70   38   67 1
    71   38   68 1
@<TRIPOS>MOLECULE
ZINC00116937
   36    38     0     0     0
SMALL
USER_CHARGES

@<TRIPOS>ATOM
      1 C1         -0.7608    1.4205   -0.5123 C.3       1 <0>         0.0216
      2 O1         -0.7400   -0.0084   -0.5178 O.3       1 <0>        -0.3001
      3 C2          0.0526   -0.6107   -1.4441 C.ar      1 <0>         0.1111
      4 C3          0.7839    0.1547   -2.3076 C.ar      1 <0>        -0.1486
      5 C4          1.6002   -0.4643   -3.2616 C.ar      1 <0>        -0.1822
      6 C5          1.6637   -1.8784   -3.3265 C.ar      1 <0>         0.2012
      7 C6          0.9057   -2.6433   -2.4316 C.ar      1 <0>        -0.1835
      8 C7          0.1147   -2.0100   -1.4986 C.ar      1 <0>         0.1636
      9 O2         -0.6173   -2.7496   -0.6252 O.3       1 <0>        -0.2971
     10 C8         -0.5115   -4.1707   -0.7309 C.3       1 <0>         0.0200
     11 N1          2.4546   -2.4467   -4.2503 N.ar      1 <0>        -0.5412
     12 C9          3.1535   -1.7039   -5.0751 C.ar      1 <0>         0.3434
     13 N2          3.1262   -0.3808   -5.0513 N.ar      1 <0>        -0.5797
     14 C10         2.3780    0.2817   -4.1789 C.ar      1 <0>         0.4634
     15 N3          2.3589    1.6620   -4.1659 N.pl3     1 <0>        -0.6409
     16 C11         3.0380    2.3797   -5.1546 C.ar      1 <0>         0.1655
     17 C12         3.6590    3.5820   -4.8395 C.ar      1 <0>        -0.1427
     18 C13         4.3291    4.2891   -5.8181 C.ar      1 <0>        -0.0859
     19 C14         4.3829    3.8022   -7.1113 C.ar      1 <0>        -0.1252
     20 C15         3.7655    2.6051   -7.4292 C.ar      1 <0>        -0.0151
     21 C16         3.0980    1.8898   -6.4526 C.ar      1 <0>        -0.1024
     22 Cl1         3.8351    1.9980   -9.0541 Cl        1 <0>        -0.0632
     23 H1          0.2448    1.7978   -0.3271 H         1 <0>         0.0572
     24 H2         -1.1125    1.7824   -1.4785 H         1 <0>         0.0575
     25 H3         -1.4308    1.7711    0.2727 H         1 <0>         0.1071
     26 H4          0.7321    1.2322   -2.2548 H         1 <0>         0.1392
     27 H5          0.9444   -3.7219   -2.4697 H         1 <0>         0.1564
     28 H6         -1.1448   -4.6392    0.0225 H         1 <0>         0.1075
     29 H7         -0.8334   -4.4862   -1.7233 H         1 <0>         0.0623
     30 H8          0.5243   -4.4708   -0.5724 H         1 <0>         0.0623
     31 H9          3.7796   -2.1939   -5.8061 H         1 <0>         0.1983
     32 H10         1.8743    2.1338   -3.4706 H         1 <0>         0.4210
     33 H11         3.6174    3.9634   -3.8299 H         1 <0>         0.1309
     34 H12         4.8116    5.2238   -5.5733 H         1 <0>         0.1375
     35 H13         4.9074    4.3574   -7.8749 H         1 <0>         0.1354
     36 H14         2.6204    0.9532   -6.6996 H         1 <0>         0.1455
@<TRIPOS>BOND
     1    1    2 1
     2    1   23 1
     3    1   24 1
     4    1   25 1
     5    2    3 1
     6    3    8 ar
     7    3    4 ar
     8    4    5 ar
     9    4   26 1
    10    5   14 ar
    11    5    6 ar
    12    6    7 ar
    13    6   11 ar
    14    7    8 ar
    15    7   27 1
    16    8    9 1
    17    9   10 1
    18   10   28 1
    19   10   29 1
    20   10   30 1
    21   11   12 ar
    22   12   13 ar
    23   12   31 1
    24   13   14 ar
    25   14   15 1
    26   15   16 1
    27   15   32 1
    28   16   21 ar
    29   16   17 ar
    30   17   18 ar
    31   17   33 1
    32   18   19 ar
    33   18   34 1
    34   19   20 ar
    35   19   35 1
    36   20   21 ar
    37   20   22 1
    38   21   36 1
@<TRIPOS>MOLECULE
ZINC19632614
   55    58     0     0     0
SMALL
USER_CHARGES

@<TRIPOS>ATOM
      1 C1         -0.7374    1.4118    0.5253 C.3       1 <0>         0.0199
      2 O1         -0.7263   -0.0171    0.5247 O.3       1 <0>        -0.2961
      3 C2          0.0734   -0.6280    1.4373 C.ar      1 <0>         0.1647
      4 C3          0.8188    0.1348    2.3090 C.ar      1 <0>        -0.1833
      5 C4          1.6420   -0.4976    3.2485 C.ar      1 <0>         0.2017
      6 C5          1.6952   -1.9130    3.2874 C.ar      1 <0>        -0.1805
      7 C6          0.9277   -2.6653    2.3903 C.ar      1 <0>        -0.1504
      8 C7          0.1268   -2.0280    1.4855 C.ar      1 <0>         0.1167
      9 O2         -0.6229   -2.7597    0.6185 O.3       1 <0>        -0.2957
     10 C8         -0.5255   -4.1819    0.7171 C.3       1 <0>         0.0569
     11 C9         -1.4334   -4.8292   -0.3307 C.3       1 <0>        -0.1162
     12 C10        -1.3291   -6.3519   -0.2252 C.3       1 <0>         0.0590
     13 N1         -2.2008   -6.9733   -1.2311 N.3       1 <0>        -0.5361
     14 C11        -3.6165   -6.7053   -0.9393 C.3       1 <0>         0.0126
     15 C12        -4.4841   -7.3184   -2.0416 C.3       1 <0>         0.0623
     16 O3         -4.2065   -8.7181   -2.1368 O.3       1 <0>        -0.3850
     17 C13        -2.8368   -9.0154   -2.4209 C.3       1 <0>         0.0626
     18 C14        -1.9524   -8.4195   -1.3224 C.3       1 <0>         0.0175
     19 C15         2.5361   -2.5234    4.2482 C.ar      1 <0>         0.4639
     20 N2          3.2308   -1.7396    5.0625 N.ar      1 <0>        -0.5813
     21 C16         3.1493   -0.4206    4.9892 C.ar      1 <0>         0.3427
     22 N3          2.3876    0.1999    4.1200 N.ar      1 <0>        -0.5394
     23 N4          2.6306   -3.8977    4.3362 N.pl3     1 <0>        -0.6396
     24 C17         3.3713   -4.4833    5.3684 C.ar      1 <0>         0.1586
     25 C18         3.4039   -3.8902    6.6240 C.ar      1 <0>        -0.0764
     26 C19         4.1353   -4.4698    7.6421 C.ar      1 <0>        -0.1191
     27 C20         4.8362   -5.6416    7.4124 C.ar      1 <0>         0.0961
     28 C21         4.8054   -6.2354    6.1608 C.ar      1 <0>        -0.0542
     29 C22         4.0703   -5.6613    5.1406 C.ar      1 <0>        -0.1133
     30 Cl1         5.6852   -7.7046    5.8756 Cl        1 <0>        -0.0422
     31 F1          5.5513   -6.2065    8.4097 F         1 <0>        -0.1250
     32 H1          0.2683    1.7831    0.3285 H         1 <0>         0.0625
     33 H2         -1.4151    1.7702   -0.2495 H         1 <0>         0.1078
     34 H3         -1.0740    1.7722    1.4974 H         1 <0>         0.0624
     35 H4          0.7687    1.2128    2.2678 H         1 <0>         0.1567
     36 H5          0.9651   -3.7443    2.4164 H         1 <0>         0.1382
     37 H6          0.5060   -4.4884    0.5431 H         1 <0>         0.0655
     38 H7         -0.8359   -4.4993    1.7126 H         1 <0>         0.0633
     39 H8         -2.4649   -4.5227   -0.1568 H         1 <0>         0.0772
     40 H9         -1.1230   -4.5118   -1.3262 H         1 <0>         0.0870
     41 H10        -0.2976   -6.6584   -0.3991 H         1 <0>         0.0806
     42 H11        -1.6394   -6.6693    0.7704 H         1 <0>         0.0394
     43 H12        -3.8805   -7.1489    0.0207 H         1 <0>         0.0445
     44 H13        -3.7829   -5.6288   -0.9016 H         1 <0>         0.0906
     45 H14        -5.5369   -7.1717   -1.8001 H         1 <0>         0.0996
     46 H15        -4.2579   -6.8370   -2.9930 H         1 <0>         0.0614
     47 H16        -2.6980  -10.0960   -2.4536 H         1 <0>         0.0999
     48 H17        -2.5626   -8.5833   -3.3833 H         1 <0>         0.0613
     49 H18        -0.9041   -8.5942   -1.5643 H         1 <0>         0.0880
     50 H19        -2.1898   -8.8905   -0.3685 H         1 <0>         0.0446
     51 H20         3.7361    0.1714    5.6759 H         1 <0>         0.1991
     52 H21         2.1833   -4.4574    3.6823 H         1 <0>         0.4215
     53 H22         2.8578   -2.9760    6.8040 H         1 <0>         0.1516
     54 H23         4.1608   -4.0084    8.6183 H         1 <0>         0.1509
     55 H24         4.0430   -6.1262    4.1662 H         1 <0>         0.1452
@<TRIPOS>BOND
     1    1    2 1
     2    1   32 1
     3    1   33 1
     4    1   34 1
     5    2    3 1
     6    3    8 ar
     7    3    4 ar
     8    4    5 ar
     9    4   35 1
    10    5   22 ar
    11    5    6 ar
    12    6    7 ar
    13    6   19 ar
    14    7    8 ar
    15    7   36 1
    16    8    9 1
    17    9   10 1
    18   10   11 1
    19   10   37 1
    20   10   38 1
    21   11   12 1
    22   11   39 1
    23   11   40 1
    24   12   13 1
    25   12   41 1
    26   12   42 1
    27   13   18 1
    28   13   14 1
    29   14   15 1
    30   14   43 1
    31   14   44 1
    32   15   16 1
    33   15   45 1
    34   15   46 1
    35   16   17 1
    36   17   18 1
    37   17   47 1
    38   17   48 1
    39   18   49 1
    40   18   50 1
    41   19   20 ar
    42   19   23 1
    43   20   21 ar
    44   21   22 ar
    45   21   51 1
    46   23   24 1
    47   23   52 1
    48   24   29 ar
    49   24   25 ar
    50   25   26 ar
    51   25   53 1
    52   26   27 ar
    53   26   54 1
    54   27   28 ar
    55   27   31 1
    56   28   29 ar
    57   28   30 1
    58   29   55 1
@<TRIPOS>MOLECULE
ZINC19632614
   57    60     0     0     0
SMALL
USER_CHARGES

@<TRIPOS>ATOM
      1 C1          0.4957    0.6763   -1.2292 C.3       1 <0>         0.0097
      2 O1          0.3708   -0.6717   -0.7717 O.3       1 <0>        -0.2780
      3 C2         -0.8861   -1.1806   -0.6878 C.ar      1 <0>         0.2175
      4 C3         -1.9704   -0.3964   -1.0449 C.ar      1 <0>        -0.2163
      5 C4         -3.2517   -0.9159   -0.9595 C.ar      1 <0>         0.2109
      6 C5         -3.4429   -2.2355   -0.5110 C.ar      1 <0>        -0.1696
      7 C6         -2.3484   -3.0191   -0.1533 C.ar      1 <0>        -0.1343
      8 C7         -1.0748   -2.4922   -0.2475 C.ar      1 <0>         0.1172
      9 O2         -0.0002   -3.2528    0.0951 O.3       1 <0>        -0.2792
     10 C8         -0.2516   -4.6209    0.4223 C.3       1 <0>         0.0522
     11 C9          1.0783   -5.3474    0.6333 C.3       1 <0>        -0.1519
     12 C10         0.8148   -6.8369    0.8638 C.3       1 <0>        -0.0151
     13 N1          2.0946   -7.5463    0.9928 N.4       1 <0>        -0.3820
     14 C11         2.8253   -7.4743   -0.2800 C.3       1 <0>        -0.0514
     15 C12         4.1584   -8.2140   -0.1429 C.3       1 <0>         0.0361
     16 O3          3.9086   -9.5683    0.2435 O.3       1 <0>        -0.3530
     17 C13         3.1775   -9.6905    1.4668 C.3       1 <0>         0.0362
     18 C14         1.8426   -8.9535    1.3327 C.3       1 <0>        -0.0460
     19 C15        -4.8247   -2.7457   -0.4360 C.cat     1 <0>         0.5319
     20 N2         -5.0725   -3.9771   -0.0222 N.pl3     1 <0>        -0.5604
     21 C16        -4.2014   -4.6012    0.8249 C.ar      1 <0>         0.0974
     22 C17        -3.7272   -3.9360    1.9592 C.ar      1 <0>        -0.0816
     23 C18        -2.8483   -4.5713    2.8111 C.ar      1 <0>        -0.1175
     24 C19        -2.4343   -5.8665    2.5448 C.ar      1 <0>         0.1198
     25 C20        -2.9002   -6.5323    1.4212 C.ar      1 <0>        -0.0716
     26 C21        -3.7851   -5.9094    0.5642 C.ar      1 <0>        -0.0825
     27 Cl1        -2.3754   -8.1547    1.0956 Cl        1 <0>        -0.0183
     28 F1         -1.5728   -6.4831    3.3830 F         1 <0>        -0.1112
     29 N3         -5.8317   -1.9199   -0.8014 N.2       1 <0>        -0.5495
     30 C22        -5.6076   -0.7054   -1.2106 C.2       1 <0>         0.4712
     31 N4         -4.3672   -0.1695   -1.3053 N.pl3     1 <0>        -0.5812
     32 H1         -4.2589    0.7427   -1.6168 H         1 <0>         0.4503
     33 H2          1.5487    0.9571   -1.2491 H         1 <0>         0.1245
     34 H3          0.0784    0.7596   -2.2327 H         1 <0>         0.0727
     35 H4         -0.0447    1.3405   -0.5547 H         1 <0>         0.0731
     36 H5         -1.8176    0.6161   -1.3882 H         1 <0>         0.1754
     37 H6         -2.4939   -4.0322    0.1915 H         1 <0>         0.1665
     38 H7         -0.8431   -4.6731    1.3364 H         1 <0>         0.0710
     39 H8         -0.7992   -5.0947   -0.3924 H         1 <0>         0.0775
     40 H9          1.7051   -5.2217   -0.2495 H         1 <0>         0.1094
     41 H10         1.5867   -4.9297    1.5023 H         1 <0>         0.1099
     42 H11         0.2340   -6.9660    1.7771 H         1 <0>         0.1336
     43 H12         0.2581   -7.2423    0.0189 H         1 <0>         0.1350
     44 H13         2.2311   -7.9385   -1.0671 H         1 <0>         0.1411
     45 H14         3.0128   -6.4308   -0.5330 H         1 <0>         0.1444
     46 H15         4.6829   -8.1989   -1.0982 H         1 <0>         0.1447
     47 H16         4.7692   -7.7256    0.6163 H         1 <0>         0.0840
     48 H17         2.9923  -10.7439    1.6765 H         1 <0>         0.1456
     49 H18         3.7548   -9.2526    2.2811 H         1 <0>         0.0847
     50 H19         1.3007   -9.0081    2.2769 H         1 <0>         0.1448
     51 H20         1.2488   -9.4172    0.5450 H         1 <0>         0.1398
     52 H21        -4.0484   -2.9261    2.1679 H         1 <0>         0.1559
     53 H22        -2.4815   -4.0580    3.6876 H         1 <0>         0.1719
     54 H23        -4.1514   -6.4303   -0.3081 H         1 <0>         0.1696
     55 H24        -6.4530   -0.0939   -1.4891 H         1 <0>         0.2492
     56 H25        -5.8728   -4.4370   -0.3202 H         1 <0>         0.4487
     57 H26         2.6450   -7.1175    1.7216 H         1 <0>         0.4269
@<TRIPOS>BOND
     1    1    2 1
     2    1   33 1
     3    1   34 1
     4    1   35 1
     5    2    3 1
     6    3    8 ar
     7    3    4 ar
     8    4    5 ar
     9    4   36 1
    10    5   31 1
    11    5    6 ar
    12    6    7 ar
    13    6   19 1
    14    7    8 ar
    15    7   37 1
    16    8    9 1
    17    9   10 1
    18   10   11 1
    19   10   38 1
    20   10   39 1
    21   11   12 1
    22   11   40 1
    23   11   41 1
    24   12   13 1
    25   12   42 1
    26   12   43 1
    27   13   18 1
    28   13   14 1
    29   13   57 1
    30   14   15 1
    31   14   44 1
    32   14   45 1
    33   15   16 1
    34   15   46 1
    35   15   47 1
    36   16   17 1
    37   17   18 1
    38   17   48 1
    39   17   49 1
    40   18   50 1
    41   18   51 1
    42   19   20 2
    43   19   29 1
    44   20   21 1
    45   20   56 1
    46   21   26 ar
    47   21   22 ar
    48   22   23 ar
    49   22   52 1
    50   23   24 ar
    51   23   53 1
    52   24   25 ar
    53   24   28 1
    54   25   26 ar
    55   25   27 1
    56   26   54 1
    57   29   30 2
    58   30   31 1
    59   30   55 1
    60   31   32 1
