@<TRIPOS>MOLECULE
ZINC27090735
   44    46     0     0     0
SMALL
USER_CHARGES

@<TRIPOS>ATOM
      1 C1         -0.0165    1.3620    0.0095 C.ar      1 <0>        -0.1373
      2 C2          1.1708    2.0817    0.0021 C.ar      1 <0>        -0.0794
      3 C3          2.3870    1.4341   -0.0131 C.ar      1 <0>        -0.1123
      4 C4          2.4312    0.0446   -0.0210 C.ar      1 <0>         0.0711
      5 C5          1.2247   -0.6799   -0.0133 C.ar      1 <0>        -0.1470
      6 C6          0.0021   -0.0041    0.0020 C.ar      1 <0>        -0.0578
      7 C7          1.6095   -2.0907   -0.0246 C.2       1 <0>        -0.1051
      8 C8          2.9674   -2.1102   -0.0377 C.2       1 <0>        -0.0333
      9 O1          3.4413   -0.8467   -0.0354 O.3       1 <0>        -0.1865
     10 C9          3.7957   -3.3242   -0.0517 C.2       1 <0>         0.6011
     11 O2          3.2684   -4.4205   -0.0522 O.2       1 <0>        -0.5119
     12 N1          5.1396   -3.2229   -0.0640 N.am      1 <0>        -0.7188
     13 C10         5.9653   -4.4330   -0.0780 C.3       1 <0>         0.1181
     14 C11         7.4443   -4.0411   -0.0902 C.3       1 <0>        -0.1312
     15 C12         8.3066   -5.3049   -0.1048 C.3       1 <0>        -0.1133
     16 C13         9.7855   -4.9130   -0.1170 C.3       1 <0>         0.0555
     17 N2         10.6135   -6.1264   -0.1310 N.3       1 <0>        -0.5382
     18 C14        10.4679   -6.8780    1.1241 C.3       1 <0>         0.0137
     19 C15        11.2987   -8.1614    1.0433 C.3       1 <0>         0.0621
     20 O3         12.6613   -7.8248    0.7687 O.3       1 <0>        -0.3856
     21 C16        12.8397   -7.0927   -0.4469 C.3       1 <0>         0.0626
     22 C17        12.0246   -5.7985   -0.3812 C.3       1 <0>         0.0170
     23 H1         -0.9609    1.8855    0.0259 H         1 <0>         0.1341
     24 H2          1.1408    3.1613    0.0078 H         1 <0>         0.1394
     25 H3          3.3039    2.0047   -0.0191 H         1 <0>         0.1360
     26 H4         -0.9244   -0.5591    0.0083 H         1 <0>         0.1329
     27 H5          0.9478   -2.9443   -0.0229 H         1 <0>         0.1716
     28 H6          5.5601   -2.3488   -0.0637 H         1 <0>         0.4078
     29 H7          5.7542   -5.0272    0.8111 H         1 <0>         0.0737
     30 H8          5.7372   -5.0182   -0.9688 H         1 <0>         0.0752
     31 H9          7.6554   -3.4469   -0.9793 H         1 <0>         0.0733
     32 H10         7.6724   -3.4558    0.8006 H         1 <0>         0.0707
     33 H11         8.0955   -5.8991    0.7843 H         1 <0>         0.0676
     34 H12         8.0784   -5.8901   -0.9956 H         1 <0>         0.0775
     35 H13         9.9966   -4.3188   -1.0060 H         1 <0>         0.0776
     36 H14        10.0137   -4.3277    0.7738 H         1 <0>         0.0364
     37 H15        10.8199   -6.2684    1.9563 H         1 <0>         0.0432
     38 H16         9.4191   -7.1324    1.2765 H         1 <0>         0.0897
     39 H17        11.2396   -8.6937    1.9927 H         1 <0>         0.0989
     40 H18        10.9125   -8.7954    0.2452 H         1 <0>         0.0608
     41 H19        13.8951   -6.8520   -0.5752 H         1 <0>         0.0990
     42 H20        12.4983   -7.6956   -1.2883 H         1 <0>         0.0608
     43 H21        12.1119   -5.2648   -1.3276 H         1 <0>         0.0870
     44 H22        12.4014   -5.1716    0.4270 H         1 <0>         0.0433
@<TRIPOS>BOND
     1    1    6 ar
     2    1    2 ar
     3    1   23 1
     4    2    3 ar
     5    2   24 1
     6    3    4 ar
     7    3   25 1
     8    4    9 1
     9    4    5 ar
    10    5    6 ar
    11    5    7 1
    12    6   26 1
    13    7    8 2
    14    7   27 1
    15    8    9 1
    16    8   10 1
    17   10   11 2
    18   10   12 am
    19   12   13 1
    20   12   28 1
    21   13   14 1
    22   13   29 1
    23   13   30 1
    24   14   15 1
    25   14   31 1
    26   14   32 1
    27   15   16 1
    28   15   33 1
    29   15   34 1
    30   16   17 1
    31   16   35 1
    32   16   36 1
    33   17   22 1
    34   17   18 1
    35   18   19 1
    36   18   37 1
    37   18   38 1
    38   19   20 1
    39   19   39 1
    40   19   40 1
    41   20   21 1
    42   21   22 1
    43   21   41 1
    44   21   42 1
    45   22   43 1
    46   22   44 1
@<TRIPOS>MOLECULE
ZINC03924338
   84    86     0     0     0
SMALL
USER_CHARGES
N-[2,2-dimethyl-1-(1-phenylethylcarbamoyl)propyl]-2-(hydroxycarbamoylmethyl)-5-(3-methyl-4-phenyl-phenyl)-pentanamide
@<TRIPOS>ATOM
      1 C1         -7.5706    2.3330   -5.1220 C.3       1 <0>        -0.1160
      2 C2         -6.6629    3.0383   -4.1475 C.ar      1 <0>        -0.0684
      3 C3         -6.3363    2.4383   -2.9480 C.ar      1 <0>        -0.1175
      4 C4         -5.5042    3.0850   -2.0524 C.ar      1 <0>        -0.0693
      5 C5         -4.9984    4.3376   -2.3508 C.ar      1 <0>        -0.1193
      6 C6         -5.3137    4.9442   -3.5495 C.ar      1 <0>        -0.0997
      7 C7         -6.1521    4.2974   -4.4554 C.ar      1 <0>        -0.0596
      8 C8         -6.5000    4.9476   -5.7432 C.ar      1 <0>        -0.0408
      9 C9         -5.4924    5.3660   -6.6099 C.ar      1 <0>        -0.1081
     10 C10        -5.8218    5.9658   -7.8085 C.ar      1 <0>        -0.1190
     11 C11        -7.1490    6.1615   -8.1452 C.ar      1 <0>        -0.1204
     12 C12        -8.1532    5.7528   -7.2862 C.ar      1 <0>        -0.1195
     13 C13        -7.8353    5.1471   -6.0874 C.ar      1 <0>        -0.1058
     14 C14        -5.1521    2.4253   -0.7440 C.3       1 <0>        -0.0781
     15 C15        -3.8860    1.5847   -0.9211 C.3       1 <0>        -0.1134
     16 C16        -3.5285    0.9150    0.4072 C.3       1 <0>        -0.1019
     17 C17        -2.1991    0.1717    0.2621 C.3       1 <0>        -0.0904
     18 H1         -2.2512   -0.5024   -0.5929 H         1 <0>         0.1120
     19 C18        -1.9251   -0.6360    1.5324 C.3       1 <0>        -0.1235
     20 C19        -2.9523   -1.7309    1.6629 C.2       1 <0>         0.5262
     21 O1         -3.7422   -1.9315    0.7647 O.2       1 <0>        -0.5091
     22 N1         -2.9932   -2.4872    2.7777 N.am      1 <0>        -0.5975
     23 O2         -3.9584   -3.5160    2.9003 O.3       1 <0>        -0.3169
     24 C20        -1.0876    1.1670    0.0501 C.2       1 <0>         0.5234
     25 O3         -1.3345    2.3540    0.0183 O.2       1 <0>        -0.5164
     26 N2          0.1807    0.7381   -0.1040 N.am      1 <0>        -0.7143
     27 C21         1.2604    1.7054   -0.3161 C.3       1 <0>         0.1381
     28 H2          0.8875    2.5425   -0.9063 H         1 <0>         0.1088
     29 C22         2.3949    1.0388   -1.0507 C.2       1 <0>         0.5198
     30 O4          2.5547   -0.1600   -0.9600 O.2       1 <0>        -0.5300
     31 N3          3.2320    1.7748   -1.8083 N.am      1 <0>        -0.7198
     32 C23         4.2665    1.1154   -2.6090 C.3       1 <0>         0.1851
     33 H3          3.8871    0.1631   -2.9796 H         1 <0>         0.0971
     34 C24         5.5029    0.8692   -1.7421 C.3       1 <0>        -0.1582
     35 C25         4.6373    1.9961   -3.7743 C.ar      1 <0>        -0.0954
     36 C26         4.7396    3.3639   -3.6019 C.ar      1 <0>        -0.1154
     37 C27         5.0840    4.1713   -4.6697 C.ar      1 <0>        -0.1145
     38 C28         5.3172    3.6119   -5.9122 C.ar      1 <0>        -0.1169
     39 C29         5.2098    2.2447   -6.0858 C.ar      1 <0>        -0.1141
     40 C30         4.8696    1.4369   -5.0169 C.ar      1 <0>        -0.1069
     41 C31         1.7595    2.2173    1.0366 C.3       1 <0>        -0.0702
     42 C32         2.3545    1.0549    1.8338 C.3       1 <0>        -0.1434
     43 C33         2.8326    3.2848    0.8134 C.3       1 <0>        -0.1531
     44 C34         0.5905    2.8242    1.8151 C.3       1 <0>        -0.1316
     45 H4         -8.5953    2.6748   -4.9768 H         1 <0>         0.0703
     46 H5         -7.2539    2.5565   -6.1407 H         1 <0>         0.0683
     47 H6         -7.5190    1.2573   -4.9533 H         1 <0>         0.0654
     48 H7         -6.7317    1.4623   -2.7083 H         1 <0>         0.1226
     49 H8         -4.3526    4.8400   -1.6459 H         1 <0>         0.1231
     50 H9         -4.9150    5.9203   -3.7832 H         1 <0>         0.1213
     51 H10        -4.4557    5.2174   -6.3461 H         1 <0>         0.1219
     52 H11        -5.0416    6.2868   -8.4829 H         1 <0>         0.1230
     53 H12        -7.4022    6.6347   -9.0824 H         1 <0>         0.1218
     54 H13        -9.1879    5.9083   -7.5538 H         1 <0>         0.1232
     55 H14        -8.6202    4.8281   -5.4176 H         1 <0>         0.1224
     56 H15        -5.9738    1.7825   -0.4285 H         1 <0>         0.0694
     57 H16        -4.9776    3.1899    0.0130 H         1 <0>         0.0723
     58 H17        -3.0643    2.2275   -1.2367 H         1 <0>         0.0791
     59 H18        -4.0605    0.8201   -1.6781 H         1 <0>         0.0585
     60 H19        -4.3121    0.2081    0.6802 H         1 <0>         0.0809
     61 H20        -3.4374    1.6742    1.1840 H         1 <0>         0.0701
     62 H21        -0.9297   -1.0765    1.4752 H         1 <0>         0.1048
     63 H22        -1.9822    0.0212    2.4001 H         1 <0>         0.1057
     64 H23        -2.3614   -2.3267    3.4961 H         1 <0>         0.4084
     65 H24        -3.9098   -4.0036    3.7340 H         1 <0>         0.3888
     66 H25         0.3782   -0.2112   -0.0785 H         1 <0>         0.4089
     67 H26         3.1495    2.7412   -1.8234 H         1 <0>         0.4020
     68 H27         5.8822    1.8215   -1.3715 H         1 <0>         0.0597
     69 H28         5.2347    0.2322   -0.8993 H         1 <0>         0.0670
     70 H29         6.2725    0.3786   -2.3379 H         1 <0>         0.0690
     71 H30         4.5537    3.8013   -2.6321 H         1 <0>         0.1194
     72 H31         5.1682    5.2394   -4.5340 H         1 <0>         0.1248
     73 H32         5.5837    4.2430   -6.7471 H         1 <0>         0.1240
     74 H33         5.3920    1.8077   -7.0565 H         1 <0>         0.1254
     75 H34         4.7857    0.3687   -5.1526 H         1 <0>         0.1247
     76 H35         3.1873    0.6225    1.2792 H         1 <0>         0.0586
     77 H36         2.7101    1.4196    2.7975 H         1 <0>         0.0589
     78 H37         1.5900    0.2944    1.9928 H         1 <0>         0.0573
     79 H38         2.4380    4.0667    0.1647 H         1 <0>         0.0605
     80 H39         3.1190    3.7180    1.7718 H         1 <0>         0.0677
     81 H40         3.7055    2.8301    0.3449 H         1 <0>         0.0592
     82 H41        -0.1740    2.0637    1.9740 H         1 <0>         0.0543
     83 H42         0.9461    3.1889    2.7787 H         1 <0>         0.0525
     84 H43         0.1667    3.6523    1.2471 H         1 <0>         0.0688
@<TRIPOS>BOND
     1    1    2 1
     2    1   45 1
     3    1   46 1
     4    1   47 1
     5    2    7 ar
     6    2    3 ar
     7    3    4 ar
     8    3   48 1
     9    4    5 ar
    10    4   14 1
    11    5    6 ar
    12    5   49 1
    13    6    7 ar
    14    6   50 1
    15    7    8 1
    16    8   13 ar
    17    8    9 ar
    18    9   10 ar
    19    9   51 1
    20   10   11 ar
    21   10   52 1
    22   11   12 ar
    23   11   53 1
    24   12   13 ar
    25   12   54 1
    26   13   55 1
    27   14   15 1
    28   14   56 1
    29   14   57 1
    30   15   16 1
    31   15   58 1
    32   15   59 1
    33   16   17 1
    34   16   60 1
    35   16   61 1
    36   17   18 1
    37   17   19 1
    38   17   24 1
    39   19   20 1
    40   19   62 1
    41   19   63 1
    42   20   21 2
    43   20   22 am
    44   22   23 1
    45   22   64 1
    46   23   65 1
    47   24   25 2
    48   24   26 am
    49   26   27 1
    50   26   66 1
    51   27   28 1
    52   27   29 1
    53   27   41 1
    54   29   30 2
    55   29   31 am
    56   31   32 1
    57   31   67 1
    58   32   33 1
    59   32   34 1
    60   32   35 1
    61   34   68 1
    62   34   69 1
    63   34   70 1
    64   35   40 ar
    65   35   36 ar
    66   36   37 ar
    67   36   71 1
    68   37   38 ar
    69   37   72 1
    70   38   39 ar
    71   38   73 1
    72   39   40 ar
    73   39   74 1
    74   40   75 1
    75   41   42 1
    76   41   43 1
    77   41   44 1
    78   42   76 1
    79   42   77 1
    80   42   78 1
    81   43   79 1
    82   43   80 1
    83   43   81 1
    84   44   82 1
    85   44   83 1
    86   44   84 1
@<TRIPOS>MOLECULE
ZINC13804669
   60    63     0     0     0
SMALL
USER_CHARGES

@<TRIPOS>ATOM
      1 C1          2.7760   -8.3026   -8.8748 C.3       1 <0>         0.0223
      2 O1          3.1385   -6.9702   -9.2425 O.3       1 <0>        -0.3114
      3 C2          3.1026   -6.0285   -8.2632 C.ar      1 <0>         0.1854
      4 C3          2.7317   -6.3810   -6.9737 C.ar      1 <0>        -0.2345
      5 C4          2.6964   -5.4220   -5.9799 C.ar      1 <0>         0.0360
      6 C5          3.0299   -4.1119   -6.2696 C.ar      1 <0>        -0.7153
      7 C6          3.3994   -3.7580   -7.5542 C.ar      1 <0>         0.0138
      8 C7          3.4423   -4.7144   -8.5501 C.ar      1 <0>        -0.1769
      9 S1          2.9834   -2.8910   -5.0000 S.o2      1 <0>         2.6831
     10 O2          2.8119   -1.6379   -5.6476 O.2       1 <0>        -0.9512
     11 O3          2.0807   -3.3675   -4.0114 O.2       1 <0>        -0.9291
     12 N1          4.4821   -2.8590   -4.2964 N.pl3     1 <0>        -0.9894
     13 C8          5.5863   -2.1179   -4.9218 C.3       1 <0>         0.1089
     14 C9          6.7666   -3.0760   -5.1249 C.3       1 <0>         0.0938
     15 N2          7.0161   -3.7877   -3.8636 N.am      1 <0>        -0.6047
     16 C10         5.9119   -4.5288   -3.2381 C.3       1 <0>         0.0927
     17 C11         4.7301   -3.5661   -3.0321 C.3       1 <0>         0.1332
     18 H1          4.9738   -2.8453   -2.2515 H         1 <0>         0.1065
     19 C12         3.5020   -4.3461   -2.6395 C.2       1 <0>         0.5382
     20 O4          3.1464   -5.2940   -3.3074 O.2       1 <0>        -0.5123
     21 N3          2.7987   -3.9904   -1.5462 N.am      1 <0>        -0.5719
     22 O5          1.6447   -4.7234   -1.1773 O.3       1 <0>        -0.3016
     23 C13         8.2359   -3.7616   -3.2909 C.2       1 <0>         0.5663
     24 O6          9.1092   -3.0531   -3.7527 O.2       1 <0>        -0.5234
     25 C14         8.5117   -4.5939   -2.1021 C.ar      1 <0>        -0.1380
     26 C15         7.9037   -5.8446   -1.9680 C.ar      1 <0>        -0.0925
     27 C16         8.1618   -6.6196   -0.8599 C.ar      1 <0>        -0.1177
     28 C17         9.0300   -6.1566    0.1289 C.ar      1 <0>        -0.0138
     29 C18         9.6373   -4.9077   -0.0037 C.ar      1 <0>        -0.1170
     30 C19         9.3851   -4.1335   -1.1137 C.ar      1 <0>        -0.0554
     31 C20         9.3072   -6.9922    1.3220 C.ar      1 <0>        -0.0579
     32 C21         8.7063   -8.2430    1.4551 C.ar      1 <0>        -0.1054
     33 C22         8.9684   -9.0166    2.5674 C.ar      1 <0>        -0.1184
     34 C23         9.8256   -8.5530    3.5492 C.ar      1 <0>        -0.1125
     35 C24        10.4248   -7.3127    3.4225 C.ar      1 <0>        -0.1183
     36 C25        10.1743   -6.5326    2.3120 C.ar      1 <0>        -0.1053
     37 H2          3.4514   -8.6618   -8.0983 H         1 <0>         0.0607
     38 H3          1.7530   -8.3102   -8.4987 H         1 <0>         0.0610
     39 H4          2.8472   -8.9523   -9.7472 H         1 <0>         0.1056
     40 H5          2.4705   -7.4041   -6.7470 H         1 <0>         0.1370
     41 H6          2.4078   -5.6959   -4.9759 H         1 <0>         0.1712
     42 H7          3.6591   -2.7339   -7.7781 H         1 <0>         0.1433
     43 H8          3.7352   -4.4384   -9.5523 H         1 <0>         0.1407
     44 H9          5.2636   -1.7254   -5.8862 H         1 <0>         0.1080
     45 H10         5.8896   -1.2964   -4.2727 H         1 <0>         0.0896
     46 H11         6.5242   -3.7940   -5.9084 H         1 <0>         0.0807
     47 H12         7.6538   -2.5089   -5.4067 H         1 <0>         0.1137
     48 H13         5.6087   -5.3503   -3.8872 H         1 <0>         0.0972
     49 H14         6.2346   -4.9213   -2.2738 H         1 <0>         0.1189
     50 H15         3.0830   -3.2323   -1.0120 H         1 <0>         0.4057
     51 H16         1.2075   -4.3938   -0.3802 H         1 <0>         0.3863
     52 H17         7.2312   -6.2032   -2.7333 H         1 <0>         0.1375
     53 H18         7.6916   -7.5864   -0.7560 H         1 <0>         0.1342
     54 H19        10.3090   -4.5500    0.7627 H         1 <0>         0.1346
     55 H20         9.8588   -3.1685   -1.2183 H         1 <0>         0.1367
     56 H21         8.0366   -8.6057    0.6894 H         1 <0>         0.1267
     57 H22         8.5031   -9.9856    2.6718 H         1 <0>         0.1262
     58 H23        10.0275   -9.1617    4.4182 H         1 <0>         0.1247
     59 H24        11.0929   -6.9557    4.1923 H         1 <0>         0.1263
     60 H25        10.6459   -5.5661    2.2122 H         1 <0>         0.1270
@<TRIPOS>BOND
     1    1    2 1
     2    1   37 1
     3    1   38 1
     4    1   39 1
     5    2    3 1
     6    3    8 ar
     7    3    4 ar
     8    4    5 ar
     9    4   40 1
    10    5    6 ar
    11    5   41 1
    12    6    7 ar
    13    6    9 1
    14    7    8 ar
    15    7   42 1
    16    8   43 1
    17    9   10 2
    18    9   11 2
    19    9   12 1
    20   12   17 1
    21   12   13 1
    22   13   14 1
    23   13   44 1
    24   13   45 1
    25   14   15 1
    26   14   46 1
    27   14   47 1
    28   15   16 1
    29   15   23 am
    30   16   17 1
    31   16   48 1
    32   16   49 1
    33   17   18 1
    34   17   19 1
    35   19   20 2
    36   19   21 am
    37   21   22 1
    38   21   50 1
    39   22   51 1
    40   23   24 2
    41   23   25 1
    42   25   30 ar
    43   25   26 ar
    44   26   27 ar
    45   26   52 1
    46   27   28 ar
    47   27   53 1
    48   28   29 ar
    49   28   31 1
    50   29   30 ar
    51   29   54 1
    52   30   55 1
    53   31   36 ar
    54   31   32 ar
    55   32   33 ar
    56   32   56 1
    57   33   34 ar
    58   33   57 1
    59   34   35 ar
    60   34   58 1
    61   35   36 ar
    62   35   59 1
    63   36   60 1
@<TRIPOS>MOLECULE
ZINC13804672
   60    63     0     0     0
SMALL
USER_CHARGES

@<TRIPOS>ATOM
      1 C1          1.9760    2.9793    1.0028 C.3       1 <0>         0.0217
      2 O1          1.8028    1.5697    1.1611 O.3       1 <0>        -0.3102
      3 C2          2.0595    0.7910    0.0774 C.ar      1 <0>         0.1869
      4 C3          2.4752    1.3711   -1.1123 C.ar      1 <0>        -0.2272
      5 C4          2.7360    0.5772   -2.2124 C.ar      1 <0>         0.0272
      6 C5          2.5826   -0.7943   -2.1286 C.ar      1 <0>        -0.7139
      7 C6          2.1680   -1.3749   -0.9442 C.ar      1 <0>         0.0192
      8 C7          1.9119   -0.5860    0.1605 C.ar      1 <0>        -0.1695
      9 S1          2.9155   -1.8040   -3.5337 S.o2      1 <0>         2.6936
     10 O2          2.1724   -3.0024   -3.3580 O.2       1 <0>        -0.9519
     11 O3          2.7623   -0.9732   -4.6763 O.2       1 <0>        -0.9442
     12 N1          4.5157   -2.2252   -3.4659 N.pl3     1 <0>        -0.9739
     13 C8          5.5386   -1.3816   -4.0997 C.3       1 <0>         0.0952
     14 C9          6.3499   -2.2440   -5.0746 C.3       1 <0>         0.1007
     15 N2          6.7724   -3.4678   -4.3792 N.am      1 <0>        -0.6062
     16 C10         5.7494   -4.3114   -3.7454 C.3       1 <0>         0.0949
     17 C11         4.9387   -3.4461   -2.7657 C.3       1 <0>         0.1270
     18 H1          4.0609   -3.9973   -2.4285 H         1 <0>         0.1449
     19 C12         5.7953   -3.0788   -1.5814 C.2       1 <0>         0.5149
     20 O4          6.0317   -1.9136   -1.3421 O.2       1 <0>        -0.4939
     21 N3          6.2987   -4.0453   -0.7883 N.am      1 <0>        -0.5915
     22 O5          7.1035   -3.7002    0.3245 O.3       1 <0>        -0.3105
     23 C13         8.0747   -3.8105   -4.3240 C.2       1 <0>         0.5656
     24 O6          8.9050   -3.1395   -4.9056 O.2       1 <0>        -0.5203
     25 C14         8.4931   -5.0016   -3.5569 C.ar      1 <0>        -0.1288
     26 C15         7.8596   -6.2284   -3.7699 C.ar      1 <0>        -0.0949
     27 C16         8.2506   -7.3378   -3.0548 C.ar      1 <0>        -0.1165
     28 C17         9.2791   -7.2374   -2.1177 C.ar      1 <0>        -0.0194
     29 C18         9.9121   -6.0128   -1.9038 C.ar      1 <0>        -0.1131
     30 C19         9.5266   -4.9033   -2.6219 C.ar      1 <0>        -0.0566
     31 C20         9.6995   -8.4330   -1.3480 C.ar      1 <0>        -0.0569
     32 C21         9.0727   -9.6595   -1.5630 C.ar      1 <0>        -0.1062
     33 C22         9.4684  -10.7690   -0.8441 C.ar      1 <0>        -0.1180
     34 C23        10.4849  -10.6658    0.0884 C.ar      1 <0>        -0.1126
     35 C24        11.1106   -9.4513    0.3060 C.ar      1 <0>        -0.1178
     36 C25        10.7268   -8.3362   -0.4108 C.ar      1 <0>        -0.1063
     37 H2          3.0098    3.1899    0.7291 H         1 <0>         0.0613
     38 H3          1.3115    3.3411    0.2181 H         1 <0>         0.0613
     39 H4          1.7386    3.4821    1.9403 H         1 <0>         0.1065
     40 H5          2.5945    2.4424   -1.1784 H         1 <0>         0.1395
     41 H6          3.0597    1.0284   -3.1387 H         1 <0>         0.1425
     42 H7          2.0486   -2.4464   -0.8814 H         1 <0>         0.1429
     43 H8          1.5923   -1.0403    1.0868 H         1 <0>         0.1413
     44 H9          5.0571   -0.5690   -4.6437 H         1 <0>         0.1119
     45 H10         6.1999   -0.9724   -3.3359 H         1 <0>         0.0959
     46 H11         5.7314   -2.5060   -5.9330 H         1 <0>         0.0831
     47 H12         7.2280   -1.6912   -5.4084 H         1 <0>         0.1114
     48 H13         5.0882   -4.7206   -4.5092 H         1 <0>         0.1035
     49 H14         6.2310   -5.1240   -3.2014 H         1 <0>         0.1095
     50 H15         6.1096   -4.9772   -0.9798 H         1 <0>         0.4057
     51 H16         7.4181   -4.4601    0.8330 H         1 <0>         0.3877
     52 H17         7.0631   -6.3063   -4.4951 H         1 <0>         0.1344
     53 H18         7.7608   -8.2862   -3.2191 H         1 <0>         0.1350
     54 H19        10.7080   -5.9360   -1.1778 H         1 <0>         0.1335
     55 H20        10.0198   -3.9564   -2.4594 H         1 <0>         0.1315
     56 H21         8.2787   -9.7411   -2.2906 H         1 <0>         0.1268
     57 H22         8.9833  -11.7196   -1.0096 H         1 <0>         0.1262
     58 H23        10.7911  -11.5366    0.6490 H         1 <0>         0.1245
     59 H24        11.9034   -9.3765    1.0356 H         1 <0>         0.1260
     60 H25        11.2187   -7.3895   -0.2430 H         1 <0>         0.1264
@<TRIPOS>BOND
     1    1    2 1
     2    1   37 1
     3    1   38 1
     4    1   39 1
     5    2    3 1
     6    3    8 ar
     7    3    4 ar
     8    4    5 ar
     9    4   40 1
    10    5    6 ar
    11    5   41 1
    12    6    7 ar
    13    6    9 1
    14    7    8 ar
    15    7   42 1
    16    8   43 1
    17    9   10 2
    18    9   11 2
    19    9   12 1
    20   12   17 1
    21   12   13 1
    22   13   14 1
    23   13   44 1
    24   13   45 1
    25   14   15 1
    26   14   46 1
    27   14   47 1
    28   15   16 1
    29   15   23 am
    30   16   17 1
    31   16   48 1
    32   16   49 1
    33   17   18 1
    34   17   19 1
    35   19   20 2
    36   19   21 am
    37   21   22 1
    38   21   50 1
    39   22   51 1
    40   23   24 2
    41   23   25 1
    42   25   30 ar
    43   25   26 ar
    44   26   27 ar
    45   26   52 1
    46   27   28 ar
    47   27   53 1
    48   28   29 ar
    49   28   31 1
    50   29   30 ar
    51   29   54 1
    52   30   55 1
    53   31   36 ar
    54   31   32 ar
    55   32   33 ar
    56   32   56 1
    57   33   34 ar
    58   33   57 1
    59   34   35 ar
    60   34   58 1
    61   35   36 ar
    62   35   59 1
    63   36   60 1
@<TRIPOS>MOLECULE
ZINC04054502
   42    44     0     0     0
SMALL
USER_CHARGES

@<TRIPOS>ATOM
      1 C1          4.9240   -2.3680   -2.2463 C.3       1 <0>        -0.1130
      2 C2          3.6223   -2.8389   -1.6507 C.ar      1 <0>        -0.1157
      3 C3          2.4261   -2.5191   -2.2660 C.ar      1 <0>        -0.0828
      4 C4          1.2315   -2.9500   -1.7224 C.ar      1 <0>        -0.1388
      5 C5          1.2327   -3.7043   -0.5578 C.ar      1 <0>         0.1144
      6 C6          2.4345   -4.0238    0.0577 C.ar      1 <0>        -0.1892
      7 C7          3.6266   -3.5950   -0.4929 C.ar      1 <0>        -0.0822
      8 O1          0.0589   -4.1290   -0.0207 O.3       1 <0>        -0.2608
      9 C8          0.1083   -4.8571    1.1233 C.ar      1 <0>         0.1144
     10 C9          0.0626   -4.2157    2.3559 C.ar      1 <0>        -0.1325
     11 C10         0.1120   -4.9512    3.5189 C.ar      1 <0>        -0.0422
     12 C11         0.2082   -6.3440    3.4591 C.ar      1 <0>        -0.1359
     13 C12         0.2539   -6.9849    2.2183 C.ar      1 <0>        -0.0712
     14 C13         0.1987   -6.2429    1.0597 C.ar      1 <0>        -0.1329
     15 C14         0.2619   -7.1360    4.7035 C.2       1 <0>         0.5617
     16 O2          0.2224   -6.5766    5.7823 O.2       1 <0>        -0.5285
     17 N1          0.3547   -8.4792    4.6438 N.am      1 <0>        -0.7231
     18 C15         0.4080   -9.2654    5.8789 C.3       1 <0>         0.1601
     19 C16         0.5094  -10.7298    5.5382 C.ar      1 <0>        -0.0675
     20 C17        -0.6312  -11.5003    5.3712 C.ar      1 <0>        -0.1547
     21 C18        -0.4991  -12.8401    5.0592 C.ar      1 <0>         0.1003
     22 N2          0.6932  -13.3861    4.9209 N.ar      1 <0>        -0.4786
     23 C19         1.7992  -12.6841    5.0724 C.ar      1 <0>         0.1003
     24 C20         1.7453  -11.3375    5.3787 C.ar      1 <0>        -0.1548
     25 H1          5.2919   -3.1136   -2.9511 H         1 <0>         0.0702
     26 H2          4.7649   -1.4235   -2.7666 H         1 <0>         0.0672
     27 H3          5.6568   -2.2262   -1.4519 H         1 <0>         0.0661
     28 H4          2.4257   -1.9317   -3.1722 H         1 <0>         0.1323
     29 H5          0.2974   -2.6996   -2.2032 H         1 <0>         0.1339
     30 H6          2.4382   -4.6108    0.9643 H         1 <0>         0.1272
     31 H7          4.5625   -3.8472   -0.0167 H         1 <0>         0.1266
     32 H8         -0.0114   -3.1392    2.4012 H         1 <0>         0.1413
     33 H9          0.0768   -4.4522    4.4761 H         1 <0>         0.1468
     34 H10         0.3282   -8.0612    2.1680 H         1 <0>         0.1333
     35 H11         0.2295   -6.7379    0.1003 H         1 <0>         0.1397
     36 H12         0.3862   -8.9255    3.7832 H         1 <0>         0.4021
     37 H13         1.2790   -8.9669    6.4623 H         1 <0>         0.0851
     38 H14        -0.4967   -9.0895    6.4609 H         1 <0>         0.0852
     39 H15        -1.6105  -11.0590    5.4839 H         1 <0>         0.1384
     40 H16        -1.3827  -13.4471    4.9275 H         1 <0>         0.1597
     41 H17         2.7581  -13.1661    4.9516 H         1 <0>         0.1596
     42 H18         2.6546  -10.7668    5.4967 H         1 <0>         0.1383
@<TRIPOS>BOND
     1    1    2 1
     2    1   25 1
     3    1   26 1
     4    1   27 1
     5    2    7 ar
     6    2    3 ar
     7    3    4 ar
     8    3   28 1
     9    4    5 ar
    10    4   29 1
    11    5    6 ar
    12    5    8 1
    13    6    7 ar
    14    6   30 1
    15    7   31 1
    16    8    9 1
    17    9   14 ar
    18    9   10 ar
    19   10   11 ar
    20   10   32 1
    21   11   12 ar
    22   11   33 1
    23   12   13 ar
    24   12   15 1
    25   13   14 ar
    26   13   34 1
    27   14   35 1
    28   15   16 2
    29   15   17 am
    30   17   18 1
    31   17   36 1
    32   18   19 1
    33   18   37 1
    34   18   38 1
    35   19   24 ar
    36   19   20 ar
    37   20   21 ar
    38   20   39 1
    39   21   22 ar
    40   21   40 1
    41   22   23 ar
    42   23   24 ar
    43   23   41 1
    44   24   42 1
@<TRIPOS>MOLECULE
ZINC13831240
   54    55     0     0     0
SMALL
USER_CHARGES

@<TRIPOS>ATOM
      1 C1          1.6084    1.4471   -0.3501 C.3       1 <0>        -0.1491
      2 C2          1.3061    0.0344    0.1538 C.3       1 <0>        -0.0899
      3 C3          1.6377   -0.0572    1.6446 C.3       1 <0>        -0.1615
      4 C4         -0.1769   -0.2764   -0.0588 C.3       1 <0>         0.1448
      5 H1         -0.7815    0.4342    0.5048 H         1 <0>         0.1278
      6 C5         -0.4704   -1.6753    0.4185 C.2       1 <0>         0.5128
      7 O1         -0.3600   -2.6119   -0.3440 O.2       1 <0>        -0.4950
      8 N1         -0.8555   -1.8856    1.6929 N.am      1 <0>        -0.5916
      9 O2         -1.0372   -3.2068    2.1687 O.3       1 <0>        -0.3150
     10 N2         -0.4988   -0.1691   -1.4840 N.pl3     1 <0>        -0.8509
     11 O3          0.2740   -0.8727   -2.4394 O.3       1 <0>        -0.0949
     12 C6         -0.2971   -2.1180   -2.8457 C.3       1 <0>         0.0570
     13 C7         -0.6610   -2.0519   -4.3303 C.3       1 <0>        -0.1792
     14 C8          0.7159   -3.2419   -2.6184 C.3       1 <0>        -0.1501
     15 S1         -1.7666    0.7751   -1.9776 S.o2      1 <0>         2.6873
     16 O4         -2.1981    0.2545   -3.2275 O.2       1 <0>        -0.9296
     17 O5         -2.6385    0.8998   -0.8625 O.2       1 <0>        -0.9419
     18 C9         -1.1243    2.3844   -2.2971 C.ar      1 <0>        -0.6741
     19 C10        -1.0799    3.3227   -1.2818 C.ar      1 <0>        -0.0145
     20 C11        -0.5777    4.5847   -1.5264 C.ar      1 <0>        -0.1336
     21 C12        -0.1150    4.9129   -2.7991 C.ar      1 <0>         0.0227
     22 C13        -0.1621    3.9639   -3.8182 C.ar      1 <0>        -0.1334
     23 C14        -0.6610    2.7030   -3.5609 C.ar      1 <0>        -0.0031
     24 C15         0.4256    6.2684   -3.0683 C.ar      1 <0>        -0.0668
     25 C16         0.4776    7.2158   -2.0478 C.ar      1 <0>        -0.1006
     26 C17         0.9817    8.4749   -2.3037 C.ar      1 <0>        -0.1196
     27 C18         1.4345    8.7971   -3.5703 C.ar      1 <0>        -0.1077
     28 C19         1.3848    7.8607   -4.5871 C.ar      1 <0>        -0.1191
     29 C20         0.8883    6.5966   -4.3409 C.ar      1 <0>        -0.1003
     30 H2          2.6649    1.6685   -0.1986 H         1 <0>         0.0659
     31 H3          1.3722    1.5124   -1.4121 H         1 <0>         0.0667
     32 H4          1.0036    2.1668    0.2016 H         1 <0>         0.0556
     33 H5          1.9109   -0.6853   -0.3979 H         1 <0>         0.0953
     34 H6          1.0694    0.6961    2.1902 H         1 <0>         0.0619
     35 H7          1.3760   -1.0484    2.0148 H         1 <0>         0.0608
     36 H8          2.7039    0.1155    1.7909 H         1 <0>         0.0710
     37 H9         -1.0082   -1.1319    2.2840 H         1 <0>         0.4083
     38 H10        -1.3137   -3.2570    3.0940 H         1 <0>         0.3892
     39 H11        -1.1951   -2.3143   -2.2598 H         1 <0>         0.0884
     40 H12        -0.9718   -3.0391   -4.6724 H         1 <0>         0.0678
     41 H13        -1.4776   -1.3442   -4.4730 H         1 <0>         0.0852
     42 H14         0.2070   -1.7255   -4.9030 H         1 <0>         0.0601
     43 H15         0.9752   -3.2889   -1.5607 H         1 <0>         0.0819
     44 H16         0.2803   -4.1918   -2.9283 H         1 <0>         0.0627
     45 H17         1.6139   -3.0456   -3.2042 H         1 <0>         0.0511
     46 H18        -1.4392    3.0673   -0.2958 H         1 <0>         0.1407
     47 H19        -0.5439    5.3167   -0.7330 H         1 <0>         0.1371
     48 H20         0.1950    4.2131   -4.8065 H         1 <0>         0.1373
     49 H21        -0.6936    1.9651   -4.3488 H         1 <0>         0.1448
     50 H22         0.1237    6.9655   -1.0587 H         1 <0>         0.1279
     51 H23         1.0225    9.2100   -1.5135 H         1 <0>         0.1276
     52 H24         1.8279    9.7837   -3.7662 H         1 <0>         0.1261
     53 H25         1.7393    8.1177   -5.5744 H         1 <0>         0.1277
     54 H26         0.8541    5.8648   -5.1344 H         1 <0>         0.1282
@<TRIPOS>BOND
     1    1    2 1
     2    1   30 1
     3    1   31 1
     4    1   32 1
     5    2    3 1
     6    2    4 1
     7    2   33 1
     8    3   34 1
     9    3   35 1
    10    3   36 1
    11    4    5 1
    12    4    6 1
    13    4   10 1
    14    6    7 2
    15    6    8 am
    16    8    9 1
    17    8   37 1
    18    9   38 1
    19   10   11 1
    20   10   15 1
    21   11   12 1
    22   12   13 1
    23   12   14 1
    24   12   39 1
    25   13   40 1
    26   13   41 1
    27   13   42 1
    28   14   43 1
    29   14   44 1
    30   14   45 1
    31   15   16 2
    32   15   17 2
    33   15   18 1
    34   18   23 ar
    35   18   19 ar
    36   19   20 ar
    37   19   46 1
    38   20   21 ar
    39   20   47 1
    40   21   22 ar
    41   21   24 1
    42   22   23 ar
    43   22   48 1
    44   23   49 1
    45   24   29 ar
    46   24   25 ar
    47   25   26 ar
    48   25   50 1
    49   26   27 ar
    50   26   51 1
    51   27   28 ar
    52   27   52 1
    53   28   29 ar
    54   28   53 1
    55   29   54 1
@<TRIPOS>MOLECULE
ZINC03818628
   45    46     0     0     0
SMALL
USER_CHARGES

@<TRIPOS>ATOM
      1 C1          2.6021   -2.0659    1.0178 C.3       1 <0>        -0.1558
      2 C2          2.1237   -0.7034    1.5234 C.3       1 <0>         0.0227
      3 C3          3.0258    0.3957    0.9583 C.3       1 <0>        -0.1646
      4 O1          0.7783   -0.4821    1.0958 O.3       1 <0>        -0.0944
      5 N1         -0.1653   -0.4599    2.1514 N.pl3     1 <0>        -0.8427
      6 C4         -0.9067   -1.6753    2.4967 C.3       1 <0>         0.0952
      7 C5         -0.1403   -2.4533    3.5352 C.2       1 <0>         0.4931
      8 O2          0.9208   -2.0339    3.9462 O.2       1 <0>        -0.5008
      9 N2         -0.6340   -3.6152    4.0070 N.am      1 <0>        -0.5914
     10 O3          0.0862   -4.3463    4.9827 O.3       1 <0>        -0.3153
     11 S1         -0.4306    0.9399    2.9954 S.o2      1 <0>         2.6901
     12 O4         -0.1309    2.0107    2.1107 O.2       1 <0>        -0.9261
     13 O5         -1.6983    0.8019    3.6225 O.2       1 <0>        -0.9379
     14 C6          0.7659    1.0040    4.2873 C.ar      1 <0>        -0.6759
     15 C7          0.4812    0.4421    5.5187 C.ar      1 <0>         0.0080
     16 C8          1.4148    0.4895    6.5342 C.ar      1 <0>        -0.1282
     17 C9          2.6459    1.1048    6.3170 C.ar      1 <0>         0.0214
     18 C10         2.9274    1.6693    5.0746 C.ar      1 <0>        -0.1336
     19 C11         1.9886    1.6112    4.0645 C.ar      1 <0>        -0.0153
     20 C12         3.6534    1.1593    7.4051 C.ar      1 <0>        -0.0633
     21 C13         3.3739    0.5902    8.6459 C.ar      1 <0>        -0.1010
     22 C14         4.3149    0.6433    9.6542 C.ar      1 <0>        -0.1194
     23 C15         5.5332    1.2605    9.4350 C.ar      1 <0>        -0.1096
     24 C16         5.8157    1.8275    8.2054 C.ar      1 <0>        -0.1194
     25 C17         4.8845    1.7747    7.1880 C.ar      1 <0>        -0.1016
     26 H1          2.4780   -2.1160   -0.0640 H         1 <0>         0.0640
     27 H2          3.6544   -2.1978    1.2693 H         1 <0>         0.0698
     28 H3          2.0146   -2.8546    1.4878 H         1 <0>         0.0564
     29 H4          2.1666   -0.6845    2.6124 H         1 <0>         0.1051
     30 H5          2.9829    0.3767   -0.1306 H         1 <0>         0.0703
     31 H6          2.6850    1.3663    1.3186 H         1 <0>         0.0666
     32 H7          4.0520    0.2269    1.2845 H         1 <0>         0.0761
     33 H8         -1.8845   -1.4037    2.8946 H         1 <0>         0.1437
     34 H9         -1.0350   -2.2885    1.6047 H         1 <0>         0.1359
     35 H10        -1.4827   -3.9507    3.6782 H         1 <0>         0.4108
     36 H11        -0.3469   -5.1654    5.2594 H         1 <0>         0.3896
     37 H12        -0.4735   -0.0343    5.6860 H         1 <0>         0.1339
     38 H13         1.1913    0.0507    7.4954 H         1 <0>         0.1333
     39 H14         3.8799    2.1478    4.9010 H         1 <0>         0.1354
     40 H15         2.2075    2.0442    3.0996 H         1 <0>         0.1403
     41 H16         2.4227    0.1087    8.8184 H         1 <0>         0.1271
     42 H17         4.0993    0.2025   10.6164 H         1 <0>         0.1270
     43 H18         6.2664    1.3001   10.2269 H         1 <0>         0.1256
     44 H19         6.7684    2.3084    8.0397 H         1 <0>         0.1272
     45 H20         5.1078    2.2138    6.2269 H         1 <0>         0.1276
@<TRIPOS>BOND
     1    1    2 1
     2    1   26 1
     3    1   27 1
     4    1   28 1
     5    2    3 1
     6    2    4 1
     7    2   29 1
     8    3   30 1
     9    3   31 1
    10    3   32 1
    11    4    5 1
    12    5    6 1
    13    5   11 1
    14    6    7 1
    15    6   33 1
    16    6   34 1
    17    7    8 2
    18    7    9 am
    19    9   10 1
    20    9   35 1
    21   10   36 1
    22   11   12 2
    23   11   13 2
    24   11   14 1
    25   14   19 ar
    26   14   15 ar
    27   15   16 ar
    28   15   37 1
    29   16   17 ar
    30   16   38 1
    31   17   18 ar
    32   17   20 1
    33   18   19 ar
    34   18   39 1
    35   19   40 1
    36   20   25 ar
    37   20   21 ar
    38   21   22 ar
    39   21   41 1
    40   22   23 ar
    41   22   42 1
    42   23   24 ar
    43   23   43 1
    44   24   25 ar
    45   24   44 1
    46   25   45 1
@<TRIPOS>MOLECULE
ZINC03780014
   56    57     0     0     0
SMALL
USER_CHARGES

@<TRIPOS>ATOM
      1 C1         -4.9014   -2.7959   -0.2874 C.3       1 <0>        -0.1475
      2 C2         -3.5376   -2.8042   -0.9809 C.3       1 <0>        -0.0930
      3 C3         -3.1945   -1.3884   -1.4484 C.3       1 <0>        -0.1554
      4 C4         -2.4693   -3.2902    0.0006 C.3       1 <0>        -0.1061
      5 C5         -1.1289   -3.4171   -0.7262 C.3       1 <0>        -0.1051
      6 H1         -0.8997   -2.4792   -1.2321 H         1 <0>         0.1276
      7 C6         -1.2122   -4.5451   -1.7565 C.3       1 <0>        -0.1172
      8 C7         -1.5195   -3.9649   -3.1129 C.2       1 <0>         0.5263
      9 O1         -1.2277   -2.8140   -3.3604 O.2       1 <0>        -0.5111
     10 N1         -2.1186   -4.7249   -4.0510 N.am      1 <0>        -0.5983
     11 O2         -2.4073   -4.1798   -5.3255 O.3       1 <0>        -0.3184
     12 C8         -0.0436   -3.7277    0.2721 C.2       1 <0>         0.5307
     13 O3          0.4797   -4.8218    0.2782 O.2       1 <0>        -0.5430
     14 N2          0.3456   -2.7896    1.1581 N.am      1 <0>        -0.6970
     15 C9          1.4614   -3.0597    2.0683 C.3       1 <0>         0.1359
     16 H2          2.1702   -3.7318    1.5846 H         1 <0>         0.1120
     17 C10         2.1624   -1.7460    2.4196 C.3       1 <0>        -0.0434
     18 C11         2.7912   -1.1648    1.1795 C.2       1 <0>        -0.1770
     19 C12         4.0613   -1.3280    0.7767 C.2       1 <0>         0.0630
     20 N3          4.2699   -0.6520   -0.3945 N.pl3     1 <0>        -0.5937
     21 H3          5.1101   -0.6216   -0.8783 H         1 <0>         0.4168
     22 C13         3.1096   -0.0211   -0.7839 C.ar      1 <0>         0.0948
     23 C14         2.1307   -0.3199    0.1817 C.ar      1 <0>        -0.0926
     24 C15         0.8375    0.1869    0.0425 C.ar      1 <0>        -0.0773
     25 C16         0.5277    0.9690   -1.0346 C.ar      1 <0>        -0.1349
     26 C17         1.4886    1.2632   -1.9919 C.ar      1 <0>        -0.0949
     27 C18         2.7736    0.7811   -1.8692 C.ar      1 <0>        -0.1271
     28 C19         0.9385   -3.7024    3.3271 C.2       1 <0>         0.5025
     29 O4         -0.2172   -3.5389    3.6565 O.2       1 <0>        -0.5287
     30 N4          1.7552   -4.4590    4.0868 N.am      1 <0>        -0.7323
     31 C20         1.2469   -5.0838    5.3105 C.3       1 <0>         0.0869
     32 H4         -5.6625   -2.4497   -0.9866 H         1 <0>         0.0552
     33 H5         -5.1458   -3.8046    0.0457 H         1 <0>         0.0533
     34 H6         -4.8674   -2.1275    0.5729 H         1 <0>         0.0568
     35 H7         -3.5716   -3.4727   -1.8412 H         1 <0>         0.0647
     36 H8         -3.2493   -0.7032   -0.6024 H         1 <0>         0.0525
     37 H9         -2.1857   -1.3764   -1.8609 H         1 <0>         0.0736
     38 H10        -3.9042   -1.0768   -2.2148 H         1 <0>         0.0517
     39 H11        -2.3735   -2.5744    0.8171 H         1 <0>         0.0747
     40 H12        -2.7588   -4.2617    0.4012 H         1 <0>         0.0715
     41 H13        -0.2596   -5.0735   -1.7946 H         1 <0>         0.1205
     42 H14        -2.0020   -5.2401   -1.4712 H         1 <0>         0.0973
     43 H15        -2.3519   -5.6454   -3.8530 H         1 <0>         0.4079
     44 H16        -2.8369   -4.7999   -5.9305 H         1 <0>         0.3870
     45 H17        -0.1130   -1.9356    1.1932 H         1 <0>         0.4054
     46 H18         1.4341   -1.0418    2.8219 H         1 <0>         0.0844
     47 H19         2.9354   -1.9346    3.1647 H         1 <0>         0.0914
     48 H20         4.8080   -1.9070    1.2999 H         1 <0>         0.1699
     49 H21         0.0845   -0.0385    0.7831 H         1 <0>         0.1149
     50 H22        -0.4730    1.3609   -1.1419 H         1 <0>         0.1230
     51 H23         1.2283    1.8821   -2.8378 H         1 <0>         0.1250
     52 H24         3.5139    1.0147   -2.6201 H         1 <0>         0.1186
     53 H25         2.6795   -4.5898    3.8233 H         1 <0>         0.4024
     54 H26         2.0457   -5.6518    5.7873 H         1 <0>         0.0763
     55 H27         0.8932   -4.3111    5.9931 H         1 <0>         0.0605
     56 H28         0.4236   -5.7533    5.0616 H         1 <0>         0.0594
@<TRIPOS>BOND
     1    1    2 1
     2    1   32 1
     3    1   33 1
     4    1   34 1
     5    2    3 1
     6    2    4 1
     7    2   35 1
     8    3   36 1
     9    3   37 1
    10    3   38 1
    11    4    5 1
    12    4   39 1
    13    4   40 1
    14    5    6 1
    15    5    7 1
    16    5   12 1
    17    7    8 1
    18    7   41 1
    19    7   42 1
    20    8    9 2
    21    8   10 am
    22   10   11 1
    23   10   43 1
    24   11   44 1
    25   12   13 2
    26   12   14 am
    27   14   15 1
    28   14   45 1
    29   15   16 1
    30   15   17 1
    31   15   28 1
    32   17   18 1
    33   17   46 1
    34   17   47 1
    35   18   23 1
    36   18   19 2
    37   19   20 1
    38   19   48 1
    39   20   21 1
    40   20   22 1
    41   22   27 ar
    42   22   23 ar
    43   23   24 ar
    44   24   25 ar
    45   24   49 1
    46   25   26 ar
    47   25   50 1
    48   26   27 ar
    49   26   51 1
    50   27   52 1
    51   28   29 2
    52   28   30 am
    53   30   31 1
    54   30   53 1
    55   31   54 1
    56   31   55 1
    57   31   56 1
@<TRIPOS>MOLECULE
ZINC34801833
   79    81     0     0     0
SMALL
USER_CHARGES

@<TRIPOS>ATOM
      1 C1          0.8360   -1.2830   -2.3872 C.3       1 <0>        -0.1477
      2 C2          0.3647   -1.0920   -0.9442 C.3       1 <0>        -0.1318
      3 C3          1.1800   -1.9962   -0.0176 C.3       1 <0>        -0.1149
      4 C4          0.7087   -1.8053    1.4255 C.3       1 <0>        -0.0735
      5 H1         -0.3657   -1.9797    1.4829 H         1 <0>         0.1081
      6 C5          1.4359   -2.7976    2.3350 C.3       1 <0>        -0.1038
      7 H2          1.0332   -2.7269    3.3454 H         1 <0>         0.0969
      8 C6          1.2344   -4.2183    1.8040 C.3       1 <0>        -0.1058
      9 C7          1.8505   -5.2206    2.7822 C.3       1 <0>        -0.1134
     10 C8          1.1005   -5.1599    4.1144 C.3       1 <0>        -0.1555
     11 C9          1.7441   -6.6318    2.2008 C.3       1 <0>        -0.1422
     12 C10         2.9075   -2.4737    2.3570 C.2       1 <0>         0.5184
     13 O1          3.3836   -1.7575    1.5017 O.2       1 <0>        -0.5075
     14 N1          3.6946   -2.9797    3.3270 N.am      1 <0>        -0.7104
     15 C11         5.1039   -2.5875    3.4058 C.3       1 <0>         0.1312
     16 H3          5.2115   -1.5455    3.1046 H         1 <0>         0.1113
     17 C12         5.6069   -2.7627    4.8408 C.3       1 <0>        -0.1212
     18 C13         6.7891   -1.8497    5.1112 C.3       1 <0>        -0.1192
     19 C14         8.0328   -2.2063    4.3177 C.3       1 <0>        -0.1427
     20 C15         7.8143   -1.9637    2.8231 C.3       1 <0>         0.1049
     21 N2          7.2015   -3.1661    2.2354 N.am      1 <0>        -0.5999
     22 C16         5.9292   -3.4690    2.4921 C.2       1 <0>         0.5106
     23 O2          5.4323   -4.4578    1.9957 O.2       1 <0>        -0.5284
     24 C17         7.9937   -4.0322    1.3587 C.3       1 <0>         0.1526
     25 C18         8.6793   -5.0904    2.1840 C.ar      1 <0>        -0.0914
     26 C19         9.9366   -4.8511    2.7079 C.ar      1 <0>        -0.1040
     27 C20        10.5681   -5.8196    3.4658 C.ar      1 <0>        -0.1068
     28 C21         9.9444   -7.0297    3.7014 C.ar      1 <0>        -0.1190
     29 C22         8.6831   -7.2723    3.1770 C.ar      1 <0>         0.0824
     30 C23         8.0490   -6.2962    2.4213 C.ar      1 <0>        -0.1068
     31 O3          8.0675   -8.4617    3.4072 O.3       1 <0>        -0.2594
     32 C24         8.0287   -9.3665    2.3942 C.ar      1 <0>         0.1223
     33 C25         8.7067   -9.1138    1.2103 C.ar      1 <0>        -0.1928
     34 C26         8.6656  -10.0353    0.1820 C.ar      1 <0>        -0.0819
     35 C27         7.9493  -11.2085    0.3316 C.ar      1 <0>        -0.1524
     36 C28         7.2724  -11.4626    1.5102 C.ar      1 <0>        -0.0825
     37 C29         7.3157  -10.5474    2.5441 C.ar      1 <0>        -0.1462
     38 C30         1.0138   -0.3985    1.8715 C.2       1 <0>         0.5295
     39 O4          1.5228    0.3857    1.0990 O.2       1 <0>        -0.4899
     40 N3          0.7208   -0.0118    3.1290 N.am      1 <0>        -0.6048
     41 O5          0.9087    1.3371    3.5168 O.3       1 <0>        -0.3187
     42 H4          0.6968   -2.3236   -2.6802 H         1 <0>         0.0492
     43 H5          0.2551   -0.6388   -3.0474 H         1 <0>         0.0512
     44 H6          1.8917   -1.0226   -2.4621 H         1 <0>         0.0543
     45 H7          0.5039   -0.0514   -0.6512 H         1 <0>         0.0801
     46 H8         -0.6911   -1.3525   -0.8693 H         1 <0>         0.0508
     47 H9          1.0408   -3.0368   -0.3106 H         1 <0>         0.0699
     48 H10         2.2358   -1.7358   -0.0925 H         1 <0>         0.1047
     49 H11         0.1681   -4.4198    1.7008 H         1 <0>         0.0815
     50 H12         1.7181   -4.3149    0.8320 H         1 <0>         0.0800
     51 H13         2.8994   -4.9724    2.9441 H         1 <0>         0.0857
     52 H14         1.1763   -4.1545    4.5285 H         1 <0>         0.0506
     53 H15         0.0515   -5.4081    3.9524 H         1 <0>         0.0607
     54 H16         1.5394   -5.8740    4.8112 H         1 <0>         0.0587
     55 H17         2.2784   -6.6750    1.2517 H         1 <0>         0.0559
     56 H18         2.1830   -7.3459    2.8977 H         1 <0>         0.0552
     57 H19         0.6952   -6.8800    2.0389 H         1 <0>         0.0540
     58 H20         3.3279   -3.6035    3.9729 H         1 <0>         0.4040
     59 H21         4.8018   -2.5224    5.5352 H         1 <0>         0.0833
     60 H22         5.9118   -3.7984    4.9903 H         1 <0>         0.0732
     61 H23         6.5019   -0.8270    4.8670 H         1 <0>         0.0682
     62 H24         7.0289   -1.8964    6.1735 H         1 <0>         0.0739
     63 H25         8.8657   -1.5934    4.6623 H         1 <0>         0.0807
     64 H26         8.2717   -3.2575    4.4790 H         1 <0>         0.0743
     65 H27         7.1509   -1.1101    2.6843 H         1 <0>         0.0800
     66 H28         8.7718   -1.7681    2.3405 H         1 <0>         0.0894
     67 H29         7.3381   -4.5082    0.6295 H         1 <0>         0.0949
     68 H30         8.7428   -3.4351    0.8386 H         1 <0>         0.0903
     69 H31        10.4261   -3.9061    2.5243 H         1 <0>         0.1270
     70 H32        11.5499   -5.6302    3.8738 H         1 <0>         0.1321
     71 H33        10.4384   -7.7862    4.2930 H         1 <0>         0.1312
     72 H34         7.0653   -6.4810    2.0154 H         1 <0>         0.1354
     73 H35         9.2658   -8.1973    1.0926 H         1 <0>         0.1266
     74 H36         9.1932   -9.8390   -0.7397 H         1 <0>         0.1258
     75 H37         7.9182  -11.9274   -0.4737 H         1 <0>         0.1255
     76 H38         6.7133  -12.3795    1.6244 H         1 <0>         0.1313
     77 H39         6.7908  -10.7485    3.4662 H         1 <0>         0.1315
     78 H40         0.3812   -0.6574    3.7683 H         1 <0>         0.4013
     79 H41         0.6715    1.5186    4.4365 H         1 <0>         0.3841
@<TRIPOS>BOND
     1    1    2 1
     2    1   42 1
     3    1   43 1
     4    1   44 1
     5    2    3 1
     6    2   45 1
     7    2   46 1
     8    3    4 1
     9    3   47 1
    10    3   48 1
    11    4    5 1
    12    4    6 1
    13    4   38 1
    14    6    7 1
    15    6    8 1
    16    6   12 1
    17    8    9 1
    18    8   49 1
    19    8   50 1
    20    9   10 1
    21    9   11 1
    22    9   51 1
    23   10   52 1
    24   10   53 1
    25   10   54 1
    26   11   55 1
    27   11   56 1
    28   11   57 1
    29   12   13 2
    30   12   14 am
    31   14   15 1
    32   14   58 1
    33   15   16 1
    34   15   22 1
    35   15   17 1
    36   17   18 1
    37   17   59 1
    38   17   60 1
    39   18   19 1
    40   18   61 1
    41   18   62 1
    42   19   20 1
    43   19   63 1
    44   19   64 1
    45   20   21 1
    46   20   65 1
    47   20   66 1
    48   21   22 am
    49   21   24 1
    50   22   23 2
    51   24   25 1
    52   24   67 1
    53   24   68 1
    54   25   30 ar
    55   25   26 ar
    56   26   27 ar
    57   26   69 1
    58   27   28 ar
    59   27   70 1
    60   28   29 ar
    61   28   71 1
    62   29   30 ar
    63   29   31 1
    64   30   72 1
    65   31   32 1
    66   32   37 ar
    67   32   33 ar
    68   33   34 ar
    69   33   73 1
    70   34   35 ar
    71   34   74 1
    72   35   36 ar
    73   35   75 1
    74   36   37 ar
    75   36   76 1
    76   37   77 1
    77   38   39 2
    78   38   40 am
    79   40   41 1
    80   40   78 1
    81   41   79 1
@<TRIPOS>MOLECULE
ZINC28571311
   49    50     0     0     0
SMALL
USER_CHARGES

@<TRIPOS>ATOM
      1 C1          0.0712    1.2280   -0.1256 C.3       1 <0>        -0.1497
      2 C2          0.0048   -0.2903    0.0515 C.3       1 <0>        -0.0217
      3 C3         -1.4480   -0.7174    0.2899 C.3       1 <0>         0.1595
      4 H1         -1.4991   -1.8033    0.3689 H         1 <0>         0.1142
      5 N1         -1.9361   -0.1144    1.5311 N.pl3     1 <0>        -0.9927
      6 C4         -1.3637   -0.4927    2.8240 C.3       1 <0>         0.1168
      7 C5          0.0991   -0.0388    2.8875 C.3       1 <0>        -0.1071
      8 S1          0.9991   -0.7805    1.4926 S.3       1 <0>        -0.2279
      9 S2         -3.1505    1.0099    1.4718 S.o2      1 <0>         2.6643
     10 O1         -3.0347    1.7953    2.6503 O.2       1 <0>        -0.9472
     11 O2         -3.1137    1.5792    0.1703 O.2       1 <0>        -0.9115
     12 C6         -4.6757    0.1365    1.5964 C.ar      1 <0>        -0.7178
     13 C7         -5.3954   -0.1620    0.4542 C.ar      1 <0>         0.0016
     14 C8         -6.5917   -0.8463    0.5493 C.ar      1 <0>        -0.1732
     15 C9         -7.0706   -1.2344    1.7922 C.ar      1 <0>         0.1909
     16 C10        -6.3463   -0.9341    2.9367 C.ar      1 <0>        -0.2298
     17 C11        -5.1480   -0.2541    2.8358 C.ar      1 <0>         0.0253
     18 O3         -8.2474   -1.9073    1.8884 O.3       1 <0>        -0.3032
     19 C12        -8.6789   -2.2753    3.2000 C.3       1 <0>         0.1764
     20 C13        -9.9623   -2.9907    3.1116 C.1       1 <0>        -0.1764
     21 C14       -10.9859   -3.5613    3.0411 C.1       1 <0>        -0.1309
     22 C15       -12.2693   -4.2768    2.9527 C.3       1 <0>         0.1860
     23 O4        -12.7008   -4.6448    4.2643 O.3       1 <0>        -0.5671
     24 C16        -2.3027   -0.2566   -0.8626 C.2       1 <0>         0.5046
     25 O5         -1.9845    0.7257   -1.4987 O.2       1 <0>        -0.4359
     26 N2         -3.4206   -0.9362   -1.1863 N.am      1 <0>        -0.6035
     27 O6         -4.2237   -0.5033   -2.2692 O.3       1 <0>        -0.3025
     28 C17         0.5463   -0.9776   -1.2036 C.3       1 <0>        -0.1341
     29 H2          1.1032    1.5617   -0.0175 H         1 <0>         0.0670
     30 H3         -0.2949    1.4945   -1.1171 H         1 <0>         0.1074
     31 H4         -0.5475    1.7095    0.6317 H         1 <0>         0.0435
     32 H5         -1.9276   -0.0145    3.6249 H         1 <0>         0.1082
     33 H6         -1.4136   -1.5753    2.9407 H         1 <0>         0.0949
     34 H7          0.1483    1.0479    2.8181 H         1 <0>         0.0937
     35 H8          0.5439   -0.3684    3.8264 H         1 <0>         0.1239
     36 H9         -5.0222    0.1404   -0.5131 H         1 <0>         0.1686
     37 H10        -7.1538   -1.0786   -0.3431 H         1 <0>         0.1436
     38 H11        -6.7170   -1.2351    3.9054 H         1 <0>         0.1421
     39 H12        -4.5816   -0.0240    3.7261 H         1 <0>         0.1411
     40 H13        -7.9326   -2.9232    3.6596 H         1 <0>         0.0955
     41 H14        -8.8041   -1.3782    3.8064 H         1 <0>         0.0956
     42 H15       -13.0156   -3.6288    2.4931 H         1 <0>         0.0789
     43 H16       -12.1441   -5.1739    2.3464 H         1 <0>         0.0788
     44 H17       -13.5422   -5.1210    4.2824 H         1 <0>         0.3928
     45 H18        -3.6751   -1.7219   -0.6775 H         1 <0>         0.4050
     46 H19        -5.0036   -1.0533   -2.4250 H         1 <0>         0.3867
     47 H20         1.5815   -0.6767   -1.3648 H         1 <0>         0.0776
     48 H21         0.4981   -2.0589   -1.0752 H         1 <0>         0.0675
     49 H22        -0.0549   -0.6869   -2.0651 H         1 <0>         0.0802
@<TRIPOS>BOND
     1    1    2 1
     2    1   29 1
     3    1   30 1
     4    1   31 1
     5    2    8 1
     6    2    3 1
     7    2   28 1
     8    3    4 1
     9    3    5 1
    10    3   24 1
    11    5    6 1
    12    5    9 1
    13    6    7 1
    14    6   32 1
    15    6   33 1
    16    7    8 1
    17    7   34 1
    18    7   35 1
    19    9   10 2
    20    9   11 2
    21    9   12 1
    22   12   17 ar
    23   12   13 ar
    24   13   14 ar
    25   13   36 1
    26   14   15 ar
    27   14   37 1
    28   15   16 ar
    29   15   18 1
    30   16   17 ar
    31   16   38 1
    32   17   39 1
    33   18   19 1
    34   19   20 1
    35   19   40 1
    36   19   41 1
    37   20   21 3
    38   21   22 1
    39   22   23 1
    40   22   42 1
    41   22   43 1
    42   23   44 1
    43   24   25 2
    44   24   26 am
    45   26   27 1
    46   26   45 1
    47   27   46 1
    48   28   47 1
    49   28   48 1
    50   28   49 1
@<TRIPOS>MOLECULE
ZINC28640034
   49    50     0     0     0
SMALL
USER_CHARGES

@<TRIPOS>ATOM
      1 C1          0.0802    1.7020    0.0022 C.3       1 <0>        -0.1407
      2 C2          0.2270    0.2073   -0.2894 C.3       1 <0>        -0.0962
      3 C3          0.9985   -0.4613    0.8501 C.3       1 <0>        -0.4312
      4 H1          0.4075   -0.4156    1.7649 H         1 <0>         0.1044
      5 P1          1.3241   -2.2035    0.4234 P.3       1 <0>         2.2344
      6 O1          2.4286   -2.7624    1.3480 O.2       1 <0>        -1.0693
      7 O2          0.0314   -3.0292    0.6080 O.3       1 <0>        -1.0844
      8 O3          1.8079   -2.2993   -1.1092 O.3       1 <0>        -0.9010
      9 N1          2.2699    0.2372    1.0548 N.pl3     1 <0>        -1.0882
     10 S1          2.6610    0.8229    2.5535 S.o2      1 <0>         2.6928
     11 O4          3.9346    1.4406    2.4286 O.2       1 <0>        -0.9763
     12 O5          1.5183    1.5224    3.0271 O.2       1 <0>        -0.9702
     13 C4          2.8771   -0.5662    3.6157 C.ar      1 <0>        -0.6542
     14 C5          1.8060   -1.0561    4.3394 C.ar      1 <0>        -0.0108
     15 C6          1.9755   -2.1460    5.1727 C.ar      1 <0>        -0.1320
     16 C7          3.2160   -2.7462    5.2820 C.ar      1 <0>        -0.0252
     17 C8          4.2868   -2.2568    4.5576 C.ar      1 <0>        -0.1294
     18 C9          4.1163   -1.1696    3.7210 C.ar      1 <0>         0.0130
     19 C10         3.4010   -3.9337    6.1912 C.3       1 <0>        -0.0747
     20 C11         3.1311   -5.2211    5.4099 C.3       1 <0>        -0.0808
     21 C12         3.3161   -6.4086    6.3191 C.ar      1 <0>        -0.0722
     22 C13         4.5579   -7.0053    6.4327 C.ar      1 <0>        -0.1176
     23 C14         4.7276   -8.0946    7.2667 C.ar      1 <0>        -0.1207
     24 C15         3.6557   -8.5869    7.9875 C.ar      1 <0>        -0.1311
     25 C16         2.4142   -7.9897    7.8746 C.ar      1 <0>        -0.1200
     26 C17         2.2454   -6.8977    7.0438 C.ar      1 <0>        -0.1171
     27 C18        -1.1599   -0.4279   -0.4078 C.3       1 <0>        -0.1641
     28 H2          1.0682    2.1545    0.0866 H         1 <0>         0.0466
     29 H3         -0.4695    2.1784   -0.8096 H         1 <0>         0.0478
     30 H4         -0.4628    1.8381    0.9375 H         1 <0>         0.0572
     31 H5          0.7700    0.0712   -1.2247 H         1 <0>         0.0754
     32 H6          1.9996   -3.1995   -1.4056 H         1 <0>         0.4108
     33 H7          2.8827    0.3565    0.3124 H         1 <0>         0.4134
     34 H8          0.8369   -0.5872    4.2540 H         1 <0>         0.1275
     35 H9          1.1389   -2.5283    5.7387 H         1 <0>         0.1246
     36 H10         5.2561   -2.7255    4.6432 H         1 <0>         0.1241
     37 H11         4.9521   -0.7896    3.1522 H         1 <0>         0.1298
     38 H12         4.4232   -3.9458    6.5696 H         1 <0>         0.0732
     39 H13         2.7050   -3.8632    7.0271 H         1 <0>         0.0730
     40 H14         2.1089   -5.2090    5.0316 H         1 <0>         0.0828
     41 H15         3.8271   -5.2916    4.5740 H         1 <0>         0.0824
     42 H16         5.3954   -6.6207    5.8696 H         1 <0>         0.1220
     43 H17         5.6976   -8.5612    7.3549 H         1 <0>         0.1185
     44 H18         3.7882   -9.4384    8.6385 H         1 <0>         0.1170
     45 H19         1.5766   -8.3745    8.4374 H         1 <0>         0.1189
     46 H20         1.2763   -6.4288    6.9585 H         1 <0>         0.1227
     47 H21        -1.7004    0.0314   -1.2355 H         1 <0>         0.0518
     48 H22        -1.0553   -1.4973   -0.5910 H         1 <0>         0.0879
     49 H23        -1.7120   -0.2702    0.5187 H         1 <0>         0.0550
@<TRIPOS>BOND
     1    1    2 1
     2    1   28 1
     3    1   29 1
     4    1   30 1
     5    2    3 1
     6    2   27 1
     7    2   31 1
     8    3    4 1
     9    3    5 1
    10    3    9 1
    11    5    6 2
    12    5    7 1
    13    5    8 1
    14    8   32 1
    15    9   10 1
    16    9   33 1
    17   10   11 2
    18   10   12 2
    19   10   13 1
    20   13   18 ar
    21   13   14 ar
    22   14   15 ar
    23   14   34 1
    24   15   16 ar
    25   15   35 1
    26   16   17 ar
    27   16   19 1
    28   17   18 ar
    29   17   36 1
    30   18   37 1
    31   19   20 1
    32   19   38 1
    33   19   39 1
    34   20   21 1
    35   20   40 1
    36   20   41 1
    37   21   26 ar
    38   21   22 ar
    39   22   23 ar
    40   22   42 1
    41   23   24 ar
    42   23   43 1
    43   24   25 ar
    44   24   44 1
    45   25   26 ar
    46   25   45 1
    47   26   46 1
    48   27   47 1
    49   27   48 1
    50   27   49 1
@<TRIPOS>MOLECULE
ZINC28640034
   48    49     0     0     0
SMALL
USER_CHARGES

@<TRIPOS>ATOM
      1 C1          1.3052    1.7703    0.4699 C.3       1 <0>        -0.1810
      2 C2          1.4427    0.2677    0.2163 C.3       1 <0>        -0.0800
      3 C3          0.6668   -0.5032    1.2861 C.3       1 <0>        -0.4271
      4 H1          1.0685   -0.2626    2.2704 H         1 <0>         0.0589
      5 P1         -1.0933   -0.0338    1.2168 P.3       1 <0>         2.2026
      6 O1         -1.2338    1.5055    1.4726 O.2       1 <0>        -1.1566
      7 O2         -1.6717   -0.3832   -0.1966 O.3       1 <0>        -1.1544
      8 O3         -1.8872   -0.8202    2.3149 O.3       1 <0>        -1.1704
      9 N1          0.7985   -1.9419    1.0432 N.pl3     1 <0>        -1.0607
     10 S1          1.9680   -2.8109    1.8302 S.o2      1 <0>         2.6814
     11 O4          1.7984   -4.1666    1.4400 O.2       1 <0>        -0.9884
     12 O5          3.1902   -2.1110    1.6413 O.2       1 <0>        -0.9778
     13 C4          1.6044   -2.7333    3.5525 C.ar      1 <0>        -0.6610
     14 C5          2.2114   -1.7769    4.3448 C.ar      1 <0>        -0.0172
     15 C6          1.9261   -1.7160    5.6960 C.ar      1 <0>        -0.1412
     16 C7          1.0334   -2.6113    6.2549 C.ar      1 <0>        -0.0400
     17 C8          0.4257   -3.5672    5.4625 C.ar      1 <0>        -0.1358
     18 C9          0.7077   -3.6253    4.1105 C.ar      1 <0>         0.0001
     19 C10         0.7231   -2.5456    7.7281 C.3       1 <0>        -0.0699
     20 C11        -0.4659   -1.6105    7.9577 C.3       1 <0>        -0.0867
     21 C12        -0.7762   -1.5448    9.4309 C.ar      1 <0>        -0.0687
     22 C13        -1.6646   -2.4437    9.9909 C.ar      1 <0>        -0.1163
     23 C14        -1.9492   -2.3835   11.3423 C.ar      1 <0>        -0.1206
     24 C15        -1.3451   -1.4246   12.1338 C.ar      1 <0>        -0.1327
     25 C16        -0.4560   -0.5263   11.5740 C.ar      1 <0>        -0.1209
     26 C17        -0.1681   -0.5892   10.2234 C.ar      1 <0>        -0.1171
     27 C18         0.8789   -0.0699   -1.1654 C.3       1 <0>        -0.1778
     28 H2          1.7069    2.0109    1.4542 H         1 <0>         0.0306
     29 H3          1.8580    2.3195   -0.2922 H         1 <0>         0.0243
     30 H4          0.2528    2.0510    0.4285 H         1 <0>         0.1341
     31 H5          2.4952   -0.0129    0.2577 H         1 <0>         0.0321
     32 H6          0.2006   -2.3855    0.4214 H         1 <0>         0.4180
     33 H7          2.9089   -1.0774    3.9081 H         1 <0>         0.1343
     34 H8          2.4009   -0.9692    6.3150 H         1 <0>         0.1256
     35 H9         -0.2715   -4.2669    5.8992 H         1 <0>         0.1279
     36 H10         0.2301   -4.3697    3.4907 H         1 <0>         0.1372
     37 H11         0.4766   -3.5430    8.0923 H         1 <0>         0.0736
     38 H12         1.5923   -2.1670    8.2660 H         1 <0>         0.0724
     39 H13        -0.2194   -0.6132    7.5935 H         1 <0>         0.0819
     40 H14        -1.3351   -1.9892    7.4199 H         1 <0>         0.0846
     41 H15        -2.1366   -3.1929    9.3725 H         1 <0>         0.1235
     42 H16        -2.6439   -3.0853   11.7797 H         1 <0>         0.1184
     43 H17        -1.5680   -1.3771   13.1895 H         1 <0>         0.1160
     44 H18         0.0157    0.2231   12.1923 H         1 <0>         0.1180
     45 H19         0.5293    0.1102    9.7867 H         1 <0>         0.1224
     46 H20        -0.1735    0.2107   -1.2068 H         1 <0>         0.1323
     47 H21         1.4317    0.4793   -1.9275 H         1 <0>         0.0193
     48 H22         0.9768   -1.1404   -1.3461 H         1 <0>         0.0328
@<TRIPOS>BOND
     1    1    2 1
     2    1   28 1
     3    1   29 1
     4    1   30 1
     5    2    3 1
     6    2   27 1
     7    2   31 1
     8    3    4 1
     9    3    5 1
    10    3    9 1
    11    5    6 2
    12    5    7 1
    13    5    8 1
    14    9   10 1
    15    9   32 1
    16   10   11 2
    17   10   12 2
    18   10   13 1
    19   13   18 ar
    20   13   14 ar
    21   14   15 ar
    22   14   33 1
    23   15   16 ar
    24   15   34 1
    25   16   17 ar
    26   16   19 1
    27   17   18 ar
    28   17   35 1
    29   18   36 1
    30   19   20 1
    31   19   37 1
    32   19   38 1
    33   20   21 1
    34   20   39 1
    35   20   40 1
    36   21   26 ar
    37   21   22 ar
    38   22   23 ar
    39   22   41 1
    40   23   24 ar
    41   23   42 1
    42   24   25 ar
    43   24   43 1
    44   25   26 ar
    45   25   44 1
    46   26   45 1
    47   27   46 1
    48   27   47 1
    49   27   48 1
@<TRIPOS>MOLECULE
ZINC03916209
   85    87     0     0     0
SMALL
USER_CHARGES
3-[[1-[(2-methoxy-1-phenyl-ethyl)carbamoyl]-2,2-dimethyl-propyl]carbamoyl]-6-(3-methyl-4-phenyl-phenyl)-hexanoic acid
@<TRIPOS>ATOM
      1 C1         -2.9569  -11.3733   -8.7587 C.3       1 <0>        -0.1144
      2 C2         -1.8989  -10.3133   -8.5912 C.ar      1 <0>        -0.0694
      3 C3         -2.1948   -8.9923   -8.8611 C.ar      1 <0>        -0.1175
      4 C4         -1.2245   -8.0186   -8.7087 C.ar      1 <0>        -0.0584
      5 C5          0.0483   -8.3628   -8.2898 C.ar      1 <0>        -0.1205
      6 C6          0.3534   -9.6795   -8.0116 C.ar      1 <0>        -0.1004
      7 C7         -0.6203  -10.6648   -8.1640 C.ar      1 <0>        -0.0694
      8 C8         -0.2962  -12.0834   -7.8727 C.ar      1 <0>        -0.0329
      9 C9          0.2192  -12.4416   -6.6288 C.ar      1 <0>        -0.1090
     10 C10         0.5144  -13.7632   -6.3616 C.ar      1 <0>        -0.1198
     11 C11         0.3092  -14.7296   -7.3297 C.ar      1 <0>        -0.1245
     12 C12        -0.1973  -14.3788   -8.5681 C.ar      1 <0>        -0.1207
     13 C13        -0.5009  -13.0610   -8.8442 C.ar      1 <0>        -0.1067
     14 C14        -1.5532   -6.5782   -9.0059 C.3       1 <0>        -0.0813
     15 C15        -2.0707   -5.9006   -7.7355 C.3       1 <0>        -0.1106
     16 C16        -2.4044   -4.4382   -8.0372 C.3       1 <0>        -0.0947
     17 C17        -2.8247   -3.7340   -6.7456 C.3       1 <0>        -0.0845
     18 H1         -3.6312   -4.2941   -6.2722 H         1 <0>         0.0985
     19 C18        -3.3084   -2.3193   -7.0702 C.3       1 <0>        -0.1495
     20 C19        -4.5692   -2.3957   -7.8921 C.2       1 <0>         0.4642
     21 O1         -5.0940   -3.4649   -8.0954 O.co2     1 <0>        -0.6328
     22 C20        -1.6472   -3.6596   -5.8080 C.2       1 <0>         0.5259
     23 O2         -0.5773   -4.1240   -6.1402 O.2       1 <0>        -0.5367
     24 N1         -1.7832   -3.0769   -4.6003 N.am      1 <0>        -0.7184
     25 C21        -0.6385   -3.0045   -3.6889 C.3       1 <0>         0.1413
     26 H2         -0.0298   -3.9020   -3.7981 H         1 <0>         0.1037
     27 C22        -1.1328   -2.9025   -2.2689 C.2       1 <0>         0.5202
     28 O3         -2.2138   -2.4038   -2.0374 O.2       1 <0>        -0.5288
     29 N2         -0.3734   -3.3655   -1.2562 N.am      1 <0>        -0.7154
     30 C23        -0.8060   -3.1743    0.1304 C.3       1 <0>         0.1909
     31 H3         -1.8924   -3.2435    0.1849 H         1 <0>         0.1121
     32 C24        -0.3576   -1.7955    0.6190 C.3       1 <0>         0.0535
     33 O4          1.0699   -1.7450    0.6580 O.3       1 <0>        -0.3801
     34 C25         1.5953   -0.4929    1.1034 C.3       1 <0>         0.0323
     35 C26        -0.1905   -4.2401    1.0001 C.ar      1 <0>        -0.0893
     36 C27         1.1174   -4.6346    0.7887 C.ar      1 <0>        -0.0894
     37 C28         1.6834   -5.6091    1.5893 C.ar      1 <0>        -0.1204
     38 C29         0.9384   -6.1959    2.5950 C.ar      1 <0>        -0.1179
     39 C30        -0.3710   -5.8048    2.8033 C.ar      1 <0>        -0.1205
     40 C31        -0.9356   -4.8273    2.0055 C.ar      1 <0>        -0.1083
     41 C32         0.2042   -1.7726   -4.0253 C.3       1 <0>        -0.0690
     42 C33         1.4365   -1.7347   -3.1193 C.3       1 <0>        -0.1493
     43 C34         0.6483   -1.8424   -5.4878 C.3       1 <0>        -0.1318
     44 C35        -0.6296   -0.5087   -3.8054 C.3       1 <0>        -0.1435
     45 H4         -2.8598  -11.8311   -9.7432 H         1 <0>         0.0682
     46 H5         -2.8325  -12.1356   -7.9896 H         1 <0>         0.0660
     47 H6         -3.9436  -10.9199   -8.6646 H         1 <0>         0.0662
     48 H7         -3.1856   -8.7186   -9.1924 H         1 <0>         0.1248
     49 H8          0.8034   -7.5990   -8.1767 H         1 <0>         0.1233
     50 H9          1.3461   -9.9466   -7.6808 H         1 <0>         0.1189
     51 H10         0.3836  -11.6872   -5.8736 H         1 <0>         0.1225
     52 H11         0.9101  -14.0426   -5.3964 H         1 <0>         0.1214
     53 H12         0.5451  -15.7620   -7.1177 H         1 <0>         0.1195
     54 H13        -0.3552  -15.1374   -9.3205 H         1 <0>         0.1215
     55 H14        -0.8966  -12.7882   -9.8113 H         1 <0>         0.1226
     56 H15        -2.3193   -6.5326   -9.7799 H         1 <0>         0.0712
     57 H16        -0.6561   -6.0648   -9.3519 H         1 <0>         0.0708
     58 H17        -1.3046   -5.9462   -6.9615 H         1 <0>         0.0738
     59 H18        -2.9678   -6.4141   -7.3895 H         1 <0>         0.0547
     60 H19        -3.2210   -4.3931   -8.7579 H         1 <0>         0.0895
     61 H20        -1.5262   -3.9432   -8.4517 H         1 <0>         0.0574
     62 H21        -3.5110   -1.7829   -6.1431 H         1 <0>         0.0657
     63 H22        -2.5386   -1.7925   -7.6339 H         1 <0>         0.0679
     64 H23        -2.6390   -2.7054   -4.3346 H         1 <0>         0.4104
     65 H24         0.4594   -3.8252   -1.4454 H         1 <0>         0.4041
     66 H25        -0.7549   -1.6173    1.6183 H         1 <0>         0.0590
     67 H26        -0.7298   -1.0300   -0.0618 H         1 <0>         0.0603
     68 H27         2.6844   -0.5357    1.1047 H         1 <0>         0.0850
     69 H28         1.2636    0.2996    0.4326 H         1 <0>         0.0406
     70 H29         1.2385   -0.2877    2.1128 H         1 <0>         0.0388
     71 H30         1.6981   -4.1790    0.0003 H         1 <0>         0.1241
     72 H31         2.7065   -5.9144    1.4268 H         1 <0>         0.1220
     73 H32         1.3795   -6.9597    3.2183 H         1 <0>         0.1203
     74 H33        -0.9531   -6.2633    3.5891 H         1 <0>         0.1222
     75 H34        -1.9588   -4.5220    2.1680 H         1 <0>         0.1229
     76 H35         2.0322   -2.6335   -3.2784 H         1 <0>         0.0568
     77 H36         2.0351   -0.8553   -3.3567 H         1 <0>         0.0604
     78 H37         1.1200   -1.6884   -2.0773 H         1 <0>         0.0643
     79 H38        -0.2296   -1.8694   -6.1332 H         1 <0>         0.0610
     80 H39         1.2487   -0.9648   -5.7275 H         1 <0>         0.0483
     81 H40         1.2423   -2.7428   -5.6445 H         1 <0>         0.0660
     82 H41        -0.9461   -0.4590   -2.7635 H         1 <0>         0.0537
     83 H42        -0.0292    0.3689   -4.0451 H         1 <0>         0.0553
     84 H43        -1.5075   -0.5357   -4.4508 H         1 <0>         0.0635
     85 O5         -5.1092   -1.2760   -8.3984 O.co2     1 <0>        -0.7720
@<TRIPOS>BOND
     1    1    2 1
     2    1   45 1
     3    1   46 1
     4    1   47 1
     5    2    7 ar
     6    2    3 ar
     7    3    4 ar
     8    3   48 1
     9    4    5 ar
    10    4   14 1
    11    5    6 ar
    12    5   49 1
    13    6    7 ar
    14    6   50 1
    15    7    8 1
    16    8   13 ar
    17    8    9 ar
    18    9   10 ar
    19    9   51 1
    20   10   11 ar
    21   10   52 1
    22   11   12 ar
    23   11   53 1
    24   12   13 ar
    25   12   54 1
    26   13   55 1
    27   14   15 1
    28   14   56 1
    29   14   57 1
    30   15   16 1
    31   15   58 1
    32   15   59 1
    33   16   17 1
    34   16   60 1
    35   16   61 1
    36   17   18 1
    37   17   19 1
    38   17   22 1
    39   19   20 1
    40   19   62 1
    41   19   63 1
    42   20   21 2
    43   20   85 1
    44   22   23 2
    45   22   24 am
    46   24   25 1
    47   24   64 1
    48   25   26 1
    49   25   27 1
    50   25   41 1
    51   27   28 2
    52   27   29 am
    53   29   30 1
    54   29   65 1
    55   30   31 1
    56   30   32 1
    57   30   35 1
    58   32   33 1
    59   32   66 1
    60   32   67 1
    61   33   34 1
    62   34   68 1
    63   34   69 1
    64   34   70 1
    65   35   40 ar
    66   35   36 ar
    67   36   37 ar
    68   36   71 1
    69   37   38 ar
    70   37   72 1
    71   38   39 ar
    72   38   73 1
    73   39   40 ar
    74   39   74 1
    75   40   75 1
    76   41   42 1
    77   41   43 1
    78   41   44 1
    79   42   76 1
    80   42   77 1
    81   42   78 1
    82   43   79 1
    83   43   80 1
    84   43   81 1
    85   44   82 1
    86   44   83 1
    87   44   84 1
@<TRIPOS>MOLECULE
ZINC00538656
   46    48     0     0     0
SMALL
USER_CHARGES
4-[4-(4-chlorophenyl)phenyl]-4-oxo-2-(phenylsulfanylmethyl)butanoic acid
@<TRIPOS>ATOM
      1 C1          1.1201   -0.4538   -7.4017 C.ar      1 <0>        -0.1478
      2 C2         -0.0171    0.2963   -7.6403 C.ar      1 <0>        -0.1014
      3 C3         -0.6896    0.8871   -6.5889 C.ar      1 <0>        -0.1105
      4 C4         -0.2223    0.7275   -5.2899 C.ar      1 <0>        -0.0980
      5 C5          0.9243   -0.0218   -5.0546 C.ar      1 <0>        -0.1474
      6 C6          1.5879   -0.6151   -6.1102 C.ar      1 <0>        -0.1005
      7 S1         -1.0772    1.4794   -3.9451 S.3       1 <0>        -0.0149
      8 C7         -0.1114    0.9981   -2.4870 C.3       1 <0>        -0.0921
      9 C8         -0.7527    1.5927   -1.2315 C.3       1 <0>        -0.1170
     10 H1         -1.7985    1.2898   -1.1795 H         1 <0>         0.0844
     11 C9         -0.0127    1.0858    0.0080 C.3       1 <0>        -0.1288
     12 C10        -0.7181    1.5718    1.2479 C.2       1 <0>         0.3986
     13 O1         -1.7145    2.2562    1.1498 O.2       1 <0>        -0.4246
     14 C11        -0.1984    1.2164    2.5760 C.ar      1 <0>        -0.1404
     15 C12         0.9485    0.4217    2.6905 C.ar      1 <0>        -0.0740
     16 C13         1.4347    0.0964    3.9303 C.ar      1 <0>        -0.1194
     17 C14         0.7808    0.5475    5.0780 C.ar      1 <0>        -0.0362
     18 C15        -0.3664    1.3347    4.9664 C.ar      1 <0>        -0.1182
     19 C16        -0.8529    1.6674    3.7287 C.ar      1 <0>        -0.0627
     20 C17         1.3051    0.1895    6.4173 C.ar      1 <0>        -0.0353
     21 C18         0.6576    0.6427    7.5662 C.ar      1 <0>        -0.0980
     22 C19         1.1465    0.3018    8.8104 C.ar      1 <0>        -0.1072
     23 C20         2.2846   -0.4792    8.9196 C.ar      1 <0>        -0.0369
     24 C21         2.9347   -0.9271    7.7819 C.ar      1 <0>        -0.1075
     25 C22         2.4509   -0.5968    6.5329 C.ar      1 <0>        -0.0981
     26 Cl1         2.8991   -0.8980   10.4883 Cl        1 <0>        -0.0729
     27 C23        -0.6673    3.0962   -1.2877 C.2       1 <0>         0.4712
     28 O2         -0.0754    3.7004   -0.4249 O.co2     1 <0>        -0.6348
     29 H2          1.6439   -0.9150   -8.2259 H         1 <0>         0.1162
     30 H3         -0.3797    0.4199   -8.6500 H         1 <0>         0.1203
     31 H4         -1.5776    1.4727   -6.7759 H         1 <0>         0.1244
     32 H5          1.2929   -0.1442   -4.0469 H         1 <0>         0.1184
     33 H6          2.4760   -1.2019   -5.9277 H         1 <0>         0.1172
     34 H7          0.9076    1.3722   -2.5864 H         1 <0>         0.0804
     35 H8         -0.0932   -0.0887   -2.4058 H         1 <0>         0.0761
     36 H9          0.0008    0.0859    0.0024 H         1 <0>         0.0782
     37 H10         1.0099    1.4631    0.0003 H         1 <0>         0.0999
     38 H11         1.4522    0.0687    1.8028 H         1 <0>         0.1352
     39 H12         2.3217   -0.5133    4.0192 H         1 <0>         0.1297
     40 H13        -0.8709    1.6823    5.8558 H         1 <0>         0.1294
     41 H14        -1.7406    2.2765    3.6428 H         1 <0>         0.1369
     42 H15        -0.2274    1.2559    7.4821 H         1 <0>         0.1373
     43 H16         0.6434    0.6489    9.7008 H         1 <0>         0.1354
     44 H17         3.8223   -1.5357    7.8726 H         1 <0>         0.1354
     45 H18         2.9589   -0.9463    5.6462 H         1 <0>         0.1374
     46 O3         -1.2489    3.7642   -2.2963 O.co2     1 <0>        -0.7375
@<TRIPOS>BOND
     1    1    6 ar
     2    1    2 ar
     3    1   29 1
     4    2    3 ar
     5    2   30 1
     6    3    4 ar
     7    3   31 1
     8    4    5 ar
     9    4    7 1
    10    5    6 ar
    11    5   32 1
    12    6   33 1
    13    7    8 1
    14    8    9 1
    15    8   34 1
    16    8   35 1
    17    9   10 1
    18    9   11 1
    19    9   27 1
    20   11   12 1
    21   11   36 1
    22   11   37 1
    23   12   13 2
    24   12   14 1
    25   14   19 ar
    26   14   15 ar
    27   15   16 ar
    28   15   38 1
    29   16   17 ar
    30   16   39 1
    31   17   18 ar
    32   17   20 1
    33   18   19 ar
    34   18   40 1
    35   19   41 1
    36   20   25 ar
    37   20   21 ar
    38   21   22 ar
    39   21   42 1
    40   22   23 ar
    41   22   43 1
    42   23   24 ar
    43   23   26 1
    44   24   25 ar
    45   24   44 1
    46   25   45 1
    47   27   28 2
    48   27   46 1
@<TRIPOS>MOLECULE
ZINC01544157
   52    51     0     0     0
SMALL
USER_CHARGES
(2R)-N-[(1S)-2,2-dimethyl-1-(methylcarbamoyl)propyl]-2-[(1S)-1-hydroxy-2-(hydroxyamino)-2-oxo-ethyl]-4-methyl-pentanamide
@<TRIPOS>ATOM
      1 C1          3.0091    4.5674    0.8752 C.3       1 <0>        -0.1725
      2 C2          2.8370    3.3040    1.7207 C.3       1 <0>        -0.1114
      3 C3          3.7850    3.3601    2.9204 C.3       1 <0>        -0.1515
      4 C4          1.3922    3.2147    2.2162 C.3       1 <0>        -0.1277
      5 C5          0.4588    2.9800    1.0268 C.3       1 <0>        -0.1436
      6 H1         -0.5517    2.7917    1.3896 H         1 <0>         0.1129
      7 C6          0.9468    1.7708    0.2264 C.3       1 <0>         0.1266
      8 H2          1.9895    1.9182   -0.0550 H         1 <0>         0.1368
      9 C7          0.8250    0.5278    1.0698 C.2       1 <0>         0.4947
     10 O1         -0.0196   -0.3023    0.8080 O.2       1 <0>        -0.5059
     11 N1          1.6547    0.3386    2.1149 N.am      1 <0>        -0.5951
     12 O2          1.6054   -0.8719    2.8479 O.3       1 <0>        -0.3178
     13 O3          0.1511    1.6269   -0.9518 O.3       1 <0>        -0.5050
     14 C8          0.4558    4.2000    0.1421 C.2       1 <0>         0.5376
     15 O4          0.7344    4.0970   -1.0337 O.2       1 <0>        -0.5056
     16 N2          0.1435    5.4054    0.6577 N.am      1 <0>        -0.7140
     17 C9          0.0346    6.5722   -0.2215 C.3       1 <0>         0.1387
     18 H3          0.7694    6.4932   -1.0227 H         1 <0>         0.1119
     19 C10         0.2914    7.8262    0.5738 C.2       1 <0>         0.5166
     20 O5          0.1388    7.8231    1.7769 O.2       1 <0>        -0.5316
     21 N3          0.6907    8.9512   -0.0520 N.am      1 <0>        -0.7302
     22 C11         1.0400   10.1397    0.7300 C.3       1 <0>         0.0849
     23 C12        -1.3712    6.6284   -0.8226 C.3       1 <0>        -0.0724
     24 C13        -2.3961    6.8315    0.2951 C.3       1 <0>        -0.1441
     25 C14        -1.4571    7.7931   -1.8111 C.3       1 <0>        -0.1546
     26 C15        -1.6664    5.3168   -1.5531 C.3       1 <0>        -0.1327
     27 H4          2.5718    5.4175    1.3989 H         1 <0>         0.0600
     28 H5          4.0704    4.7508    0.7077 H         1 <0>         0.0593
     29 H6          2.5076    4.4342   -0.0834 H         1 <0>         0.0774
     30 H7          3.0684    2.4275    1.1155 H         1 <0>         0.0727
     31 H8          3.6624    2.4600    3.5228 H         1 <0>         0.0526
     32 H9          4.8143    3.4237    2.5674 H         1 <0>         0.0633
     33 H10         3.5536    4.2366    3.5256 H         1 <0>         0.0627
     34 H11         1.1203    4.1460    2.7131 H         1 <0>         0.0885
     35 H12         1.2997    2.3871    2.9195 H         1 <0>         0.0814
     36 H13         2.2857    1.0316    2.3649 H         1 <0>         0.4083
     37 H14         2.2374   -0.9154    3.5784 H         1 <0>         0.3884
     38 H15        -0.7903    1.4920   -0.7766 H         1 <0>         0.3809
     39 H16        -0.0092    5.5005    1.6109 H         1 <0>         0.4088
     40 H17         0.7467    8.9738   -1.0201 H         1 <0>         0.4052
     41 H18         0.1766   10.4562    1.3153 H         1 <0>         0.0629
     42 H19         1.8665    9.9037    1.4002 H         1 <0>         0.0614
     43 H20         1.3367   10.9436    0.0563 H         1 <0>         0.0787
     44 H21        -2.1858    7.7659    0.8155 H         1 <0>         0.0563
     45 H22        -3.3976    6.8716   -0.1331 H         1 <0>         0.0602
     46 H23        -2.3349    6.0018    0.9993 H         1 <0>         0.0579
     47 H24        -0.7527    7.6300   -2.6268 H         1 <0>         0.0633
     48 H25        -2.4688    7.8559   -2.2117 H         1 <0>         0.0678
     49 H26        -1.2108    8.7232   -1.2989 H         1 <0>         0.0593
     50 H27        -1.6053    4.4871   -0.8489 H         1 <0>         0.0527
     51 H28        -2.6680    5.3569   -1.9813 H         1 <0>         0.0548
     52 H29        -0.9363    5.1721   -2.3494 H         1 <0>         0.0702
@<TRIPOS>BOND
     1    1    2 1
     2    1   27 1
     3    1   28 1
     4    1   29 1
     5    2    3 1
     6    2    4 1
     7    2   30 1
     8    3   31 1
     9    3   32 1
    10    3   33 1
    11    4    5 1
    12    4   34 1
    13    4   35 1
    14    5    6 1
    15    5    7 1
    16    5   14 1
    17    7    8 1
    18    7    9 1
    19    7   13 1
    20    9   10 2
    21    9   11 am
    22   11   12 1
    23   11   36 1
    24   12   37 1
    25   13   38 1
    26   14   15 2
    27   14   16 am
    28   16   17 1
    29   16   39 1
    30   17   18 1
    31   17   19 1
    32   17   23 1
    33   19   20 2
    34   19   21 am
    35   21   22 1
    36   21   40 1
    37   22   41 1
    38   22   42 1
    39   22   43 1
    40   23   24 1
    41   23   25 1
    42   23   26 1
    43   24   44 1
    44   24   45 1
    45   24   46 1
    46   25   47 1
    47   25   48 1
    48   25   49 1
    49   26   50 1
    50   26   51 1
    51   26   52 1
@<TRIPOS>MOLECULE
ZINC03789788
   63    64     0     0     0
SMALL
USER_CHARGES
2-[1-(hydroxycarbamoyl)-2-(2-thienylsulfanyl)ethyl]-4-methyl-N-[1-(methylcarbamoyl)-2-phenyl-ethyl]-pentanamide
@<TRIPOS>ATOM
      1 C1          3.1221    2.9557    1.7202 C.3       1 <0>        -0.1431
      2 C2          2.5102    1.7687    0.9736 C.3       1 <0>        -0.1379
      3 C3          2.7420    0.4870    1.7763 C.3       1 <0>        -0.1394
      4 C4          1.0073    1.9961    0.7987 C.3       1 <0>        -0.1065
      5 C5          0.4069    0.8410   -0.0051 C.3       1 <0>        -0.0885
      6 H1          0.8505   -0.0991    0.3229 H         1 <0>         0.1149
      7 C6          0.6967    1.0500   -1.4928 C.3       1 <0>        -0.0588
      8 H2          0.1623    1.9316   -1.8467 H         1 <0>         0.1151
      9 C7          0.2335   -0.1774   -2.2801 C.3       1 <0>        -0.1124
     10 S1          0.4407    0.1297   -4.0558 S.3       1 <0>        -0.0144
     11 C8         -0.1286   -1.3552   -4.8145 C.2       1 <0>        -0.1714
     12 C9         -0.1962   -1.6718   -6.1386 C.2       1 <0>        -0.1349
     13 C10        -0.6846   -2.9141   -6.5020 C.2       1 <0>        -0.1423
     14 C11        -1.0794   -3.7751   -5.5344 C.2       1 <0>        -0.1732
     15 S2         -0.7596   -2.8391   -4.0484 S.3       1 <0>         0.0560
     16 C12         2.1774    1.2461   -1.6934 C.2       1 <0>         0.5371
     17 O1          2.9647    0.4671   -1.1991 O.2       1 <0>        -0.4942
     18 N1          2.6267    2.2870   -2.4221 N.am      1 <0>        -0.5886
     19 O2          4.0180    2.4712   -2.6105 O.3       1 <0>        -0.3117
     20 C13        -1.0833    0.7970    0.2150 C.2       1 <0>         0.5303
     21 O3         -1.8280    1.3539   -0.5637 O.2       1 <0>        -0.5294
     22 N2         -1.5885    0.1389    1.2771 N.am      1 <0>        -0.7016
     23 C14        -3.0392    0.0187    1.4421 C.3       1 <0>         0.1370
     24 H3         -3.5070   -0.1037    0.4652 H         1 <0>         0.1156
     25 C15        -3.3542   -1.1982    2.3144 C.3       1 <0>        -0.0835
     26 C16        -2.9289   -2.4537    1.5975 C.ar      1 <0>        -0.0870
     27 C17        -3.8193   -3.1126    0.7704 C.ar      1 <0>        -0.1132
     28 C18        -3.4277   -4.2617    0.1091 C.ar      1 <0>        -0.1147
     29 C19        -2.1491   -4.7576    0.2830 C.ar      1 <0>        -0.1168
     30 C20        -1.2605   -4.1016    1.1142 C.ar      1 <0>        -0.1145
     31 C21        -1.6504   -2.9497    1.7715 C.ar      1 <0>        -0.1117
     32 C22        -3.5745    1.2627    2.1031 C.2       1 <0>         0.5023
     33 O4         -2.8083    2.1045    2.5217 O.2       1 <0>        -0.5232
     34 N3         -4.9046    1.4397    2.2291 N.am      1 <0>        -0.7333
     35 C23        -5.4250    2.6490    2.8717 C.3       1 <0>         0.0870
     36 H4          2.6525    3.0503    2.6993 H         1 <0>         0.0504
     37 H5          4.1928    2.7937    1.8448 H         1 <0>         0.0547
     38 H6          2.9569    3.8689    1.1484 H         1 <0>         0.0490
     39 H7          2.9797    1.6742   -0.0055 H         1 <0>         0.1157
     40 H8          2.1362    0.5109    2.6821 H         1 <0>         0.0464
     41 H9          2.4595   -0.3757    1.1729 H         1 <0>         0.0583
     42 H10         3.7956    0.4125    2.0457 H         1 <0>         0.0537
     43 H11         0.8410    2.9333    0.2676 H         1 <0>         0.0699
     44 H12         0.5307    2.0437    1.7778 H         1 <0>         0.0792
     45 H13         0.8298   -1.0421   -1.9888 H         1 <0>         0.1037
     46 H14        -0.8173   -0.3716   -2.0651 H         1 <0>         0.1097
     47 H15         0.1259   -0.9660   -6.8900 H         1 <0>         0.1365
     48 H16        -0.7498   -3.1935   -7.5431 H         1 <0>         0.1390
     49 H17        -1.4800   -4.7730   -5.6354 H         1 <0>         0.1882
     50 H18         1.9971    2.9101   -2.8174 H         1 <0>         0.4091
     51 H19         4.2434    3.2439   -3.1465 H         1 <0>         0.3897
     52 H20        -0.9916   -0.2550    1.9324 H         1 <0>         0.4059
     53 H21        -2.8146   -1.1182    3.2581 H         1 <0>         0.0879
     54 H22        -4.4256   -1.2370    2.5106 H         1 <0>         0.0954
     55 H23        -4.8196   -2.7277    0.6380 H         1 <0>         0.1221
     56 H24        -4.1221   -4.7744   -0.5400 H         1 <0>         0.1223
     57 H25        -1.8446   -5.6577   -0.2302 H         1 <0>         0.1213
     58 H26        -0.2617   -4.4892    1.2504 H         1 <0>         0.1233
     59 H27        -0.9562   -2.4373    2.4211 H         1 <0>         0.1193
     60 H28        -5.5174    0.7664    1.8943 H         1 <0>         0.4018
     61 H29        -6.5144    2.6151    2.8818 H         1 <0>         0.0772
     62 H30        -5.0537    2.7052    3.8950 H         1 <0>         0.0606
     63 H31        -5.0940    3.5267    2.3165 H         1 <0>         0.0603
@<TRIPOS>BOND
     1    1    2 1
     2    1   36 1
     3    1   37 1
     4    1   38 1
     5    2    3 1
     6    2    4 1
     7    2   39 1
     8    3   40 1
     9    3   41 1
    10    3   42 1
    11    4    5 1
    12    4   43 1
    13    4   44 1
    14    5    6 1
    15    5    7 1
    16    5   20 1
    17    7    8 1
    18    7    9 1
    19    7   16 1
    20    9   10 1
    21    9   45 1
    22    9   46 1
    23   10   11 1
    24   11   15 1
    25   11   12 2
    26   12   13 1
    27   12   47 1
    28   13   14 2
    29   13   48 1
    30   14   15 1
    31   14   49 1
    32   16   17 2
    33   16   18 am
    34   18   19 1
    35   18   50 1
    36   19   51 1
    37   20   21 2
    38   20   22 am
    39   22   23 1
    40   22   52 1
    41   23   24 1
    42   23   25 1
    43   23   32 1
    44   25   26 1
    45   25   53 1
    46   25   54 1
    47   26   31 ar
    48   26   27 ar
    49   27   28 ar
    50   27   55 1
    51   28   29 ar
    52   28   56 1
    53   29   30 ar
    54   29   57 1
    55   30   31 ar
    56   30   58 1
    57   31   59 1
    58   32   33 2
    59   32   34 am
    60   34   35 1
    61   34   60 1
    62   35   61 1
    63   35   62 1
    64   35   63 1
@<TRIPOS>MOLECULE
ZINC00578599
   41    42     0     0     0
SMALL
USER_CHARGES

@<TRIPOS>ATOM
      1 C1         -0.0187    1.5258    0.0104 C.3       1 <0>        -0.1455
      2 C2          0.0021   -0.0041    0.0020 C.3       1 <0>        -0.0797
      3 C3          0.7421   -0.5109    1.2415 C.3       1 <0>        -0.1453
      4 C4         -1.4333   -0.5336    0.0129 C.3       1 <0>         0.0800
      5 H1         -1.9435   -0.1821    0.9097 H         1 <0>         0.0809
      6 C5         -2.1622   -0.0344   -1.2080 C.2       1 <0>         0.4843
      7 O1         -2.4620   -0.8108   -2.0990 O.co2     1 <0>        -0.6780
      8 O2         -2.4521    1.1459   -1.3048 O.co2     1 <0>        -0.6890
      9 N1         -1.4134   -1.9985    0.0048 N.pl3     1 <0>        -1.0818
     10 S1         -2.5690   -2.8468    0.8339 S.o2      1 <0>         2.6971
     11 O3         -2.2983   -4.2242    0.6130 O.2       1 <0>        -0.9763
     12 O4         -2.6312   -2.2820    2.1364 O.2       1 <0>        -0.9696
     13 C6         -4.1170   -2.5080    0.0637 C.ar      1 <0>        -0.6484
     14 C7         -4.8801   -1.4368    0.4922 C.ar      1 <0>        -0.0083
     15 C8         -6.0936   -1.1670   -0.1073 C.ar      1 <0>        -0.1252
     16 C9         -6.5496   -1.9758   -1.1463 C.ar      1 <0>        -0.0035
     17 C10        -5.7766   -3.0533   -1.5743 C.ar      1 <0>        -0.1287
     18 C11        -4.5621   -3.3107   -0.9711 C.ar      1 <0>         0.0010
     19 C12        -7.8537   -1.6910   -1.7943 C.ar      1 <0>        -0.0368
     20 C13        -8.6240   -0.6103   -1.3697 C.ar      1 <0>        -0.0935
     21 C14        -9.8359   -0.3493   -1.9758 C.ar      1 <0>        -0.1081
     22 C15       -10.2870   -1.1593   -3.0039 C.ar      1 <0>        -0.0354
     23 C16        -9.5255   -2.2345   -3.4290 C.ar      1 <0>        -0.1089
     24 C17        -8.3093   -2.5000   -2.8334 C.ar      1 <0>        -0.0944
     25 Cl1       -11.8127   -0.8261   -3.7621 Cl        1 <0>        -0.0753
     26 H2          1.0039    1.9031    0.0027 H         1 <0>         0.0394
     27 H3         -0.5459    1.8868   -0.8726 H         1 <0>         0.0871
     28 H4         -0.5289    1.8773    0.9072 H         1 <0>         0.0484
     29 H5          0.5123   -0.3556   -0.8948 H         1 <0>         0.0671
     30 H6          0.7568   -1.6008    1.2356 H         1 <0>         0.0506
     31 H7          1.7647   -0.1336    1.2338 H         1 <0>         0.0485
     32 H8          0.2319   -0.1594    2.1383 H         1 <0>         0.0540
     33 H9         -0.7234   -2.4715   -0.4862 H         1 <0>         0.4129
     34 H10        -4.5257   -0.8106    1.2976 H         1 <0>         0.1363
     35 H11        -6.6890   -0.3309    0.2286 H         1 <0>         0.1302
     36 H12        -6.1252   -3.6833   -2.3792 H         1 <0>         0.1297
     37 H13        -3.9602   -4.1429   -1.3050 H         1 <0>         0.1373
     38 H14        -8.2733    0.0218   -0.5673 H         1 <0>         0.1384
     39 H15       -10.4337    0.4881   -1.6474 H         1 <0>         0.1356
     40 H16        -9.8817   -2.8638   -4.2312 H         1 <0>         0.1352
     41 H17        -7.7138   -3.3361   -3.1690 H         1 <0>         0.1378
@<TRIPOS>BOND
     1    1    2 1
     2    1   26 1
     3    1   27 1
     4    1   28 1
     5    2    3 1
     6    2    4 1
     7    2   29 1
     8    3   30 1
     9    3   31 1
    10    3   32 1
    11    4    5 1
    12    4    6 1
    13    4    9 1
    14    6    7 2
    15    6    8 1
    16    9   10 1
    17    9   33 1
    18   10   11 2
    19   10   12 2
    20   10   13 1
    21   13   18 ar
    22   13   14 ar
    23   14   15 ar
    24   14   34 1
    25   15   16 ar
    26   15   35 1
    27   16   17 ar
    28   16   19 1
    29   17   18 ar
    30   17   36 1
    31   18   37 1
    32   19   24 ar
    33   19   20 ar
    34   20   21 ar
    35   20   38 1
    36   21   22 ar
    37   21   39 1
    38   22   23 ar
    39   22   25 1
    40   23   24 ar
    41   23   40 1
    42   24   41 1
@<TRIPOS>MOLECULE
ZINC00836095
   67    69     0     0     0
SMALL
USER_CHARGES
3-(cyclopentylmethyl)-4-oxo-4-(1-piperidyl)-2-[(3,4,4-trimethyl-2,5-dioxo-imidazolidin-1-yl)methyl]butanehydroxamic acid
@<TRIPOS>ATOM
      1 C1         10.4671   -2.6652    0.2435 C.3       1 <0>        -0.1431
      2 C2         10.1863   -1.1655    0.1302 C.3       1 <0>         0.1170
      3 C3          9.1803   -0.7266    1.1756 C.2       1 <0>         0.5224
      4 O1          9.3030   -0.7855    2.3803 O.2       1 <0>        -0.4408
      5 N1          8.1202   -0.2588    0.4873 N.am      1 <0>        -0.5835
      6 C4          8.3177   -0.3335   -0.8338 C.2       1 <0>         0.6957
      7 O2          7.5049    0.0322   -1.6602 O.2       1 <0>        -0.5329
      8 N2          9.5164   -0.8586   -1.1454 N.am      1 <0>        -0.6190
      9 C5         10.0510   -1.0823   -2.4909 C.3       1 <0>         0.1148
     10 C6          6.9044    0.2719    1.1090 C.3       1 <0>         0.1265
     11 C7          5.8483   -0.8324    1.1880 C.3       1 <0>        -0.0990
     12 H1          5.6684   -1.2350    0.1912 H         1 <0>         0.1108
     13 C8          4.5468   -0.2543    1.7470 C.3       1 <0>        -0.0966
     14 H2          4.7267    0.1484    2.7438 H         1 <0>         0.1117
     15 C9          4.0487    0.8630    0.8280 C.3       1 <0>        -0.1048
     16 C10         2.8463    1.5555    1.4725 C.3       1 <0>        -0.0926
     17 C11         1.6306    0.6059    1.4794 C.3       1 <0>        -0.1404
     18 C12         0.4217    1.5356    1.2046 C.3       1 <0>        -0.1230
     19 C13         0.9905    2.5414    0.1732 C.3       1 <0>        -0.1248
     20 C14         2.4395    2.7859    0.6427 C.3       1 <0>        -0.1191
     21 C15         3.5066   -1.3419    1.8248 C.2       1 <0>         0.5322
     22 O3          3.1445   -1.9080    0.8152 O.2       1 <0>        -0.5404
     23 N3          2.9786   -1.6855    3.0163 N.am      1 <0>        -0.6010
     24 C16         1.8886   -2.6674    3.0969 C.3       1 <0>         0.1107
     25 C17         0.7262   -2.0504    3.8811 C.3       1 <0>        -0.1358
     26 C18         1.2346   -1.5627    5.2397 C.3       1 <0>        -0.1203
     27 C19         2.3016   -0.4857    5.0304 C.3       1 <0>        -0.1389
     28 C20         3.4818   -1.0850    4.2592 C.3       1 <0>         0.1069
     29 C21         6.3389   -1.9328    2.0932 C.2       1 <0>         0.5300
     30 O4          6.2580   -1.8091    3.2970 O.2       1 <0>        -0.4994
     31 N4          6.8674   -3.0545    1.5651 N.am      1 <0>        -0.5932
     32 O5          7.2305   -4.1317    2.4095 O.3       1 <0>        -0.3102
     33 C22        11.4835   -0.3651    0.2632 C.3       1 <0>        -0.1464
     34 H3         11.1119   -2.9773   -0.5780 H         1 <0>         0.0822
     35 H4         10.9622   -2.8715    1.1925 H         1 <0>         0.0863
     36 H5          9.5273   -3.2154    0.1969 H         1 <0>         0.0598
     37 H6          9.3213   -0.7542   -3.2310 H         1 <0>         0.0928
     38 H7         10.9737   -0.5153   -2.6141 H         1 <0>         0.0700
     39 H8         10.2559   -2.1440   -2.6285 H         1 <0>         0.0693
     40 H9          6.5216    1.0987    0.5108 H         1 <0>         0.1195
     41 H10         7.1351    0.6265    2.1136 H         1 <0>         0.1111
     42 H11         4.8467    1.5893    0.6737 H         1 <0>         0.0797
     43 H12         3.7526    0.4392   -0.1316 H         1 <0>         0.0839
     44 H13         3.0909    1.8564    2.4912 H         1 <0>         0.0725
     45 H14         1.7249   -0.1403    0.6904 H         1 <0>         0.0776
     46 H15         1.5288    0.1236    2.4516 H         1 <0>         0.0730
     47 H16         0.1149    2.0488    2.1160 H         1 <0>         0.0631
     48 H17        -0.4112    0.9757    0.7793 H         1 <0>         0.0629
     49 H18         0.4213    3.4707    0.1927 H         1 <0>         0.0631
     50 H19         0.9816    2.1083   -0.8270 H         1 <0>         0.0646
     51 H20         2.4859    3.6838    1.2589 H         1 <0>         0.0641
     52 H21         3.0988    2.8896   -0.2191 H         1 <0>         0.0664
     53 H22         2.2405   -3.5628    3.6093 H         1 <0>         0.0654
     54 H23         1.5549   -2.9262    2.0921 H         1 <0>         0.0910
     55 H24        -0.0503   -2.8005    4.0311 H         1 <0>         0.0749
     56 H25         0.3166   -1.2088    3.3225 H         1 <0>         0.0695
     57 H26         0.4044   -1.1454    5.8096 H         1 <0>         0.0660
     58 H27         1.6665   -2.4001    5.7877 H         1 <0>         0.0645
     59 H28         1.8771    0.3411    4.4609 H         1 <0>         0.0688
     60 H29         2.6464   -0.1222    5.9984 H         1 <0>         0.0765
     61 H30         3.9637   -1.8514    4.8663 H         1 <0>         0.0748
     62 H31         4.1994   -0.2997    4.0212 H         1 <0>         0.0911
     63 H32         6.9991   -3.1239    0.6066 H         1 <0>         0.4019
     64 H33         7.6006   -4.8918    1.9401 H         1 <0>         0.3856
     65 H34        11.2577    0.7008    0.2304 H         1 <0>         0.0674
     66 H35        11.9633   -0.6058    1.2119 H         1 <0>         0.0855
     67 H36        12.1535   -0.6200   -0.5579 H         1 <0>         0.0814
@<TRIPOS>BOND
     1    1    2 1
     2    1   34 1
     3    1   35 1
     4    1   36 1
     5    2    8 1
     6    2    3 1
     7    2   33 1
     8    3    4 2
     9    3    5 am
    10    5    6 am
    11    5   10 1
    12    6    7 2
    13    6    8 am
    14    8    9 1
    15    9   37 1
    16    9   38 1
    17    9   39 1
    18   10   11 1
    19   10   40 1
    20   10   41 1
    21   11   12 1
    22   11   13 1
    23   11   29 1
    24   13   14 1
    25   13   15 1
    26   13   21 1
    27   15   16 1
    28   15   42 1
    29   15   43 1
    30   16   20 1
    31   16   17 1
    32   16   44 1
    33   17   18 1
    34   17   45 1
    35   17   46 1
    36   18   19 1
    37   18   47 1
    38   18   48 1
    39   19   20 1
    40   19   49 1
    41   19   50 1
    42   20   51 1
    43   20   52 1
    44   21   22 2
    45   21   23 am
    46   23   28 1
    47   23   24 1
    48   24   25 1
    49   24   53 1
    50   24   54 1
    51   25   26 1
    52   25   55 1
    53   25   56 1
    54   26   27 1
    55   26   57 1
    56   26   58 1
    57   27   28 1
    58   27   59 1
    59   27   60 1
    60   28   61 1
    61   28   62 1
    62   29   30 2
    63   29   31 am
    64   31   32 1
    65   31   63 1
    66   32   64 1
    67   33   65 1
    68   33   66 1
    69   33   67 1
@<TRIPOS>MOLECULE
ZINC03818629
   41    41     0     0     0
SMALL
USER_CHARGES

@<TRIPOS>ATOM
      1 C1          0.3217    1.2381   -0.4555 C.3       1 <0>        -0.1483
      2 C2          0.1189   -0.2089   -0.0016 C.3       1 <0>        -0.1216
      3 C3          0.8424   -0.4325    1.3278 C.3       1 <0>        -0.1516
      4 C4         -1.3757   -0.4820    0.1789 C.3       1 <0>         0.1171
      5 N1         -1.5796   -1.9006    0.4828 N.pl3     1 <0>        -0.9744
      6 C5         -1.4984   -2.3721    1.8675 C.3       1 <0>         0.1129
      7 C6         -2.8306   -2.1756    2.5440 C.2       1 <0>         0.5050
      8 O1         -3.7567   -1.6895    1.9300 O.2       1 <0>        -0.5035
      9 N2         -2.9929   -2.5400    3.8314 N.am      1 <0>        -0.5967
     10 O2         -4.2447   -2.3553    4.4670 O.3       1 <0>        -0.3162
     11 S1         -1.9019   -2.9711   -0.7389 S.o2      1 <0>         2.6937
     12 O3         -2.5809   -4.0702   -0.1471 O.2       1 <0>        -0.9505
     13 O4         -2.4604   -2.2150   -1.8046 O.2       1 <0>        -0.9449
     14 C7         -0.3543   -3.5859   -1.3146 C.ar      1 <0>        -0.7163
     15 C8          0.3126   -2.9311   -2.3335 C.ar      1 <0>         0.0203
     16 C9          1.5258   -3.4114   -2.7870 C.ar      1 <0>        -0.1694
     17 C10         2.0753   -4.5515   -2.2188 C.ar      1 <0>         0.1849
     18 C11         1.4045   -5.2065   -1.1963 C.ar      1 <0>        -0.2285
     19 C12         0.1939   -4.7192   -0.7428 C.ar      1 <0>         0.0201
     20 O5          3.2686   -5.0262   -2.6635 O.3       1 <0>        -0.3098
     21 C13         3.7739   -6.2044   -2.0322 C.3       1 <0>         0.0218
     22 H1          1.3864    1.4327   -0.5841 H         1 <0>         0.0600
     23 H2         -0.1938    1.3974   -1.4026 H         1 <0>         0.0607
     24 H3         -0.0831    1.9150    0.2968 H         1 <0>         0.0590
     25 H4          0.5237   -0.8858   -0.7539 H         1 <0>         0.0739
     26 H5          0.8024   -1.4898    1.5899 H         1 <0>         0.0573
     27 H6          1.8826   -0.1210    1.2323 H         1 <0>         0.0583
     28 H7          0.3577    0.1539    2.1084 H         1 <0>         0.0575
     29 H8         -1.7593    0.1241    0.9995 H         1 <0>         0.0896
     30 H9         -1.9051   -0.2274   -0.7393 H         1 <0>         0.1005
     31 H10        -1.2392   -3.4308    1.8762 H         1 <0>         0.1169
     32 H11        -0.7337   -1.8064    2.3997 H         1 <0>         0.1252
     33 H12        -2.2523   -2.9287    4.3224 H         1 <0>         0.4079
     34 H13        -4.2643   -2.6463    5.3890 H         1 <0>         0.3880
     35 H14        -0.1156   -2.0436   -2.7755 H         1 <0>         0.1477
     36 H15         2.0460   -2.9000   -3.5834 H         1 <0>         0.1429
     37 H16         1.8301   -6.0943   -0.7524 H         1 <0>         0.1395
     38 H17        -0.3266   -5.2262    0.0562 H         1 <0>         0.1420
     39 H18         3.9123   -6.0154   -0.9677 H         1 <0>         0.0609
     40 H19         3.0651   -7.0214   -2.1670 H         1 <0>         0.0613
     41 H20         4.7299   -6.4752   -2.4804 H         1 <0>         0.1066
@<TRIPOS>BOND
     1    1    2 1
     2    1   22 1
     3    1   23 1
     4    1   24 1
     5    2    3 1
     6    2    4 1
     7    2   25 1
     8    3   26 1
     9    3   27 1
    10    3   28 1
    11    4    5 1
    12    4   29 1
    13    4   30 1
    14    5    6 1
    15    5   11 1
    16    6    7 1
    17    6   31 1
    18    6   32 1
    19    7    8 2
    20    7    9 am
    21    9   10 1
    22    9   33 1
    23   10   34 1
    24   11   12 2
    25   11   13 2
    26   11   14 1
    27   14   19 ar
    28   14   15 ar
    29   15   16 ar
    30   15   35 1
    31   16   17 ar
    32   16   36 1
    33   17   18 ar
    34   17   20 1
    35   18   19 ar
    36   18   37 1
    37   19   38 1
    38   20   21 1
    39   21   39 1
    40   21   40 1
    41   21   41 1
@<TRIPOS>MOLECULE
ZINC01483836
   47    49     0     0     0
SMALL
USER_CHARGES

@<TRIPOS>ATOM
      1 C1          0.0463    1.6744   -0.8009 C.ar      1 <0>        -0.1524
      2 C2          1.2532    2.2769   -0.5033 C.ar      1 <0>        -0.0025
      3 C3          2.4154    1.5280   -0.4862 C.ar      1 <0>        -0.6838
      4 C4          2.3730    0.1748   -0.7670 C.ar      1 <0>        -0.0007
      5 C5          1.1688   -0.4325   -1.0656 C.ar      1 <0>        -0.1388
      6 C6          0.0009    0.3165   -1.0826 C.ar      1 <0>         0.1464
      7 O1         -1.1852   -0.2786   -1.3752 O.3       1 <0>        -0.2562
      8 C7         -1.7137   -0.0748   -2.6105 C.ar      1 <0>         0.1246
      9 C8         -0.9929    0.6245   -3.5678 C.ar      1 <0>        -0.1827
     10 C9         -1.5317    0.8302   -4.8230 C.ar      1 <0>        -0.0697
     11 C10        -2.7897    0.3398   -5.1258 C.ar      1 <0>        -0.0640
     12 C11        -3.5104   -0.3575   -4.1723 C.ar      1 <0>        -0.0708
     13 C12        -2.9726   -0.5707   -2.9180 C.ar      1 <0>        -0.1276
     14 Cl1        -3.4648    0.6001   -6.7038 Cl        1 <0>        -0.0629
     15 S1          3.9533    2.2996   -0.1063 S.o2      1 <0>         2.6789
     16 O2          4.9691    1.3568   -0.4200 O.2       1 <0>        -0.9288
     17 O3          3.9115    3.5959   -0.6867 O.2       1 <0>        -0.9446
     18 N1          3.9998    2.5170    1.5348 N.pl3     1 <0>        -1.1144
     19 C13         4.1097    1.3582    2.4244 C.3       1 <0>         0.1796
     20 C14         4.3099    1.8361    3.8659 C.3       1 <0>        -0.1521
     21 C15         3.0783    2.6309    4.3074 C.3       1 <0>         0.0614
     22 O4          1.9141    1.8118    4.1816 O.3       1 <0>        -0.3715
     23 C16         1.6499    1.3743    2.8471 C.3       1 <0>         0.0663
     24 C17         2.8242    0.5290    2.3469 C.3       1 <0>        -0.1728
     25 C18         5.2827    0.5102    2.0050 C.2       1 <0>         0.5244
     26 O5          5.2076   -0.6990    2.0611 O.2       1 <0>        -0.5035
     27 N2          6.4152    1.0955    1.5676 N.am      1 <0>        -0.5698
     28 O6          7.4779    0.3005    1.0737 O.3       1 <0>        -0.3043
     29 H1         -0.8619    2.2589   -0.8098 H         1 <0>         0.1447
     30 H2          1.2891    3.3338   -0.2843 H         1 <0>         0.1463
     31 H3          3.2823   -0.4079   -0.7533 H         1 <0>         0.1557
     32 H4          1.1363   -1.4894   -1.2856 H         1 <0>         0.1475
     33 H5         -0.0113    1.0081   -3.3317 H         1 <0>         0.1370
     34 H6         -0.9709    1.3745   -5.5684 H         1 <0>         0.1401
     35 H7         -4.4924   -0.7389   -4.4104 H         1 <0>         0.1454
     36 H8         -3.5336   -1.1188   -2.1755 H         1 <0>         0.1455
     37 H9          3.9542    3.4116    1.9069 H         1 <0>         0.4258
     38 H10         4.4412    0.9744    4.5203 H         1 <0>         0.1029
     39 H11         5.1928    2.4730    3.9192 H         1 <0>         0.0925
     40 H12         3.1967    2.9372    5.3468 H         1 <0>         0.1079
     41 H13         2.9709    3.5143    3.6780 H         1 <0>         0.0564
     42 H14         0.7394    0.7753    2.8345 H         1 <0>         0.1040
     43 H15         1.5239    2.2413    2.1986 H         1 <0>         0.0536
     44 H16         2.6445    0.2311    1.3139 H         1 <0>         0.0889
     45 H17         2.9254   -0.3591    2.9707 H         1 <0>         0.1102
     46 H18         6.5023    2.0613    1.5910 H         1 <0>         0.4014
     47 H19         8.2753    0.8019    0.8549 H         1 <0>         0.3863
@<TRIPOS>BOND
     1    1    6 ar
     2    1    2 ar
     3    1   29 1
     4    2    3 ar
     5    2   30 1
     6    3    4 ar
     7    3   15 1
     8    4    5 ar
     9    4   31 1
    10    5    6 ar
    11    5   32 1
    12    6    7 1
    13    7    8 1
    14    8   13 ar
    15    8    9 ar
    16    9   10 ar
    17    9   33 1
    18   10   11 ar
    19   10   34 1
    20   11   12 ar
    21   11   14 1
    22   12   13 ar
    23   12   35 1
    24   13   36 1
    25   15   16 2
    26   15   17 2
    27   15   18 1
    28   18   19 1
    29   18   37 1
    30   19   24 1
    31   19   20 1
    32   19   25 1
    33   20   21 1
    34   20   38 1
    35   20   39 1
    36   21   22 1
    37   21   40 1
    38   21   41 1
    39   22   23 1
    40   23   24 1
    41   23   42 1
    42   23   43 1
    43   24   44 1
    44   24   45 1
    45   25   26 2
    46   25   27 am
    47   27   28 1
    48   27   46 1
    49   28   47 1
@<TRIPOS>MOLECULE
ZINC01490030
   42    43     0     0     0
SMALL
USER_CHARGES

@<TRIPOS>ATOM
      1 C1          1.2434   -2.3394   -0.3131 C.3       1 <0>        -0.1944
      2 C2          0.2659   -1.5966   -1.2261 C.3       1 <0>         0.1863
      3 C3          0.4263   -2.1000   -2.6620 C.3       1 <0>        -0.1713
      4 C4         -1.1454   -1.8471   -0.7607 C.2       1 <0>         0.5337
      5 O1         -1.8013   -2.7346   -1.2638 O.2       1 <0>        -0.4994
      6 N1         -1.6787   -1.0849    0.2146 N.am      1 <0>        -0.5937
      7 O2         -3.0047   -1.3203    0.6519 O.3       1 <0>        -0.3131
      8 N2          0.5482   -0.1599   -1.1779 N.pl3     1 <0>        -1.1175
      9 S1          2.0896    0.3900   -1.4310 S.o2      1 <0>         2.6988
     10 O3          2.5841   -0.2980   -2.5718 O.2       1 <0>        -0.9438
     11 O4          2.0313    1.8081   -1.3626 O.2       1 <0>        -0.9507
     12 C5          3.0634   -0.1406   -0.0617 C.ar      1 <0>        -0.7143
     13 C6          3.0261    0.5656    1.1265 C.ar      1 <0>         0.0220
     14 C7          3.7889    0.1520    2.2013 C.ar      1 <0>        -0.2165
     15 C8          4.5926   -0.9734    2.0880 C.ar      1 <0>         0.1810
     16 C9          4.6278   -1.6805    0.8946 C.ar      1 <0>        -0.1630
     17 C10         3.8591   -1.2657   -0.1755 C.ar      1 <0>         0.0183
     18 O5          5.3442   -1.3820    3.1437 O.3       1 <0>        -0.2466
     19 C11         5.1981   -0.7238    4.3240 C.ar      1 <0>         0.0621
     20 C12         4.0986   -0.9799    5.1303 C.ar      1 <0>        -0.0992
     21 C13         3.9517   -0.3105    6.3297 C.ar      1 <0>        -0.1391
     22 C14         4.9011    0.6157    6.7273 C.ar      1 <0>         0.1086
     23 C15         5.9990    0.8723    5.9236 C.ar      1 <0>        -0.1379
     24 C16         6.1513    0.2006    4.7261 C.ar      1 <0>        -0.0875
     25 F1          4.7559    1.2699    7.9003 F         1 <0>        -0.1310
     26 H1          2.2408   -2.3145   -0.7519 H         1 <0>         0.0896
     27 H2          1.2645   -1.8581    0.6647 H         1 <0>         0.0779
     28 H3          0.9212   -3.3747   -0.2016 H         1 <0>         0.0944
     29 H4          0.0314   -3.1131   -2.7381 H         1 <0>         0.0878
     30 H5         -0.1209   -1.4449   -3.3400 H         1 <0>         0.0727
     31 H6          1.4826   -2.1006   -2.9309 H         1 <0>         0.1003
     32 H7         -1.1541   -0.3751    0.6169 H         1 <0>         0.4075
     33 H8         -3.2990   -0.7240    1.3540 H         1 <0>         0.3902
     34 H9         -0.1677    0.4693   -0.9978 H         1 <0>         0.4192
     35 H10         2.4003    1.4414    1.2142 H         1 <0>         0.1424
     36 H11         3.7599    0.7043    3.1290 H         1 <0>         0.1388
     37 H12         5.2529   -2.5566    0.8037 H         1 <0>         0.1469
     38 H13         3.8831   -1.8180   -1.1033 H         1 <0>         0.1569
     39 H14         3.3577   -1.7019    4.8203 H         1 <0>         0.1427
     40 H15         3.0957   -0.5093    6.9575 H         1 <0>         0.1467
     41 H16         6.7387    1.5950    6.2349 H         1 <0>         0.1483
     42 H17         7.0098    0.3980    4.1013 H         1 <0>         0.1458
@<TRIPOS>BOND
     1    1    2 1
     2    1   26 1
     3    1   27 1
     4    1   28 1
     5    2    3 1
     6    2    4 1
     7    2    8 1
     8    3   29 1
     9    3   30 1
    10    3   31 1
    11    4    5 2
    12    4    6 am
    13    6    7 1
    14    6   32 1
    15    7   33 1
    16    8    9 1
    17    8   34 1
    18    9   10 2
    19    9   11 2
    20    9   12 1
    21   12   17 ar
    22   12   13 ar
    23   13   14 ar
    24   13   35 1
    25   14   15 ar
    26   14   36 1
    27   15   16 ar
    28   15   18 1
    29   16   17 ar
    30   16   37 1
    31   17   38 1
    32   18   19 1
    33   19   24 ar
    34   19   20 ar
    35   20   21 ar
    36   20   39 1
    37   21   22 ar
    38   21   40 1
    39   22   23 ar
    40   22   25 1
    41   23   24 ar
    42   23   41 1
    43   24   42 1
@<TRIPOS>MOLECULE
ZINC03924227
   75    79     0     0     0
SMALL
USER_CHARGES

@<TRIPOS>ATOM
      1 C1         -0.0184    1.5028    0.0103 C.3       1 <0>        -0.1188
      2 C2          0.0021   -0.0041    0.0020 C.ar      1 <0>        -0.0732
      3 C3          0.0057   -0.6868   -1.2043 C.ar      1 <0>        -0.0887
      4 C4          0.0238   -2.0661   -1.2263 C.ar      1 <0>        -0.0782
      5 C5          0.0387   -2.7812   -0.0349 C.ar      1 <0>         0.1880
      6 C6          0.0356   -2.0928    1.1881 C.ar      1 <0>        -0.0942
      7 C7          0.0228   -0.6955    1.1932 C.ar      1 <0>        -0.0944
      8 C8          0.0513   -2.8391    2.4594 C.2       1 <0>         0.5637
      9 O1          0.0669   -4.0550    2.4505 O.2       1 <0>        -0.4781
     10 N1          0.0482   -2.1738    3.6315 N.am      1 <0>        -0.5935
     11 O2          0.0632   -2.8906    4.8526 O.3       1 <0>        -0.3063
     12 N2          0.0561   -4.1697   -0.0544 N.pl3     1 <0>        -0.9323
     13 C9          1.3339   -4.8861   -0.0709 C.3       1 <0>         0.1686
     14 C10         1.8398   -5.0434    1.3399 C.ar      1 <0>        -0.0747
     15 C11         2.6500   -4.0713    1.8961 C.ar      1 <0>        -0.1124
     16 C12         3.1141   -4.2156    3.1902 C.ar      1 <0>        -0.1209
     17 C13         2.7676   -5.3319    3.9282 C.ar      1 <0>        -0.1101
     18 C14         1.9567   -6.3037    3.3723 C.ar      1 <0>        -0.1135
     19 C15         1.4891   -6.1572    2.0797 C.ar      1 <0>        -0.0746
     20 S1         -1.3675   -5.0156   -0.0589 S.o2      1 <0>         2.6965
     21 O3         -1.0777   -6.3012    0.4726 O.2       1 <0>        -0.9388
     22 O4         -2.3500   -4.1603    0.5089 O.2       1 <0>        -0.9457
     23 C16        -1.8240   -5.2582   -1.7434 C.ar      1 <0>        -0.7233
     24 C17        -2.6101   -4.3206   -2.3874 C.ar      1 <0>         0.0237
     25 C18        -2.9697   -4.5088   -3.7078 C.ar      1 <0>        -0.1688
     26 C19        -2.5410   -5.6394   -4.3879 C.ar      1 <0>         0.1874
     27 C20        -1.7520   -6.5785   -3.7397 C.ar      1 <0>        -0.2285
     28 C21        -1.3908   -6.3831   -2.4207 C.ar      1 <0>         0.0231
     29 O5         -2.8938   -5.8270   -5.6869 O.3       1 <0>        -0.3058
     30 C22        -2.4165   -7.0137   -6.3239 C.3       1 <0>         0.0402
     31 C23        -2.9119   -7.0503   -7.7710 C.3       1 <0>         0.1215
     32 N3         -2.3150   -5.9416   -8.5197 N.am      1 <0>        -0.7168
     33 C24        -2.6094   -5.7735   -9.8242 C.2       1 <0>         0.6038
     34 O6         -3.3709   -6.5425  -10.3798 O.2       1 <0>        -0.5109
     35 C25        -2.0106   -4.6612  -10.5753 C.2       1 <0>        -0.0339
     36 C26        -2.2378   -4.3920  -11.8869 C.2       1 <0>        -0.1031
     37 C27        -1.4400   -3.2073  -12.2014 C.ar      1 <0>        -0.1474
     38 C28        -1.2407   -2.4457  -13.3555 C.ar      1 <0>        -0.0573
     39 C29        -0.4059   -1.3649  -13.3177 C.ar      1 <0>        -0.1372
     40 C30         0.2451   -1.0195  -12.1411 C.ar      1 <0>        -0.0788
     41 C31         0.0624   -1.7579  -10.9921 C.ar      1 <0>        -0.1124
     42 C32        -0.7831   -2.8616  -11.0058 C.ar      1 <0>         0.0721
     43 O7         -1.1565   -3.7499  -10.0644 O.3       1 <0>        -0.1861
     44 C33         0.0271   -2.7979   -2.5436 C.3       1 <0>        -0.1327
     45 H1          1.0042    1.8801    0.0026 H         1 <0>         0.0762
     46 H2         -0.5455    1.8639   -0.8728 H         1 <0>         0.0724
     47 H3         -0.5286    1.8543    0.9071 H         1 <0>         0.0706
     48 H4         -0.0062   -0.1355   -2.1329 H         1 <0>         0.1352
     49 H5          0.0243   -0.1583    2.1301 H         1 <0>         0.1287
     50 H6          0.0357   -1.2039    3.6386 H         1 <0>         0.4022
     51 H7          0.0597   -2.3280    5.6390 H         1 <0>         0.3841
     52 H8          1.1930   -5.8700   -0.5183 H         1 <0>         0.0926
     53 H9          2.0595   -4.3213   -0.6563 H         1 <0>         0.0883
     54 H10         2.9207   -3.1991    1.3194 H         1 <0>         0.1063
     55 H11         3.7477   -3.4565    3.6245 H         1 <0>         0.1082
     56 H12         3.1308   -5.4451    4.9390 H         1 <0>         0.1104
     57 H13         1.6863   -7.1760    3.9488 H         1 <0>         0.1131
     58 H14         0.8525   -6.9146    1.6467 H         1 <0>         0.1290
     59 H15        -2.9435   -3.4406   -1.8575 H         1 <0>         0.1456
     60 H16        -3.5843   -3.7765   -4.2102 H         1 <0>         0.1429
     61 H17        -1.4171   -7.4595   -4.2670 H         1 <0>         0.1399
     62 H18        -0.7729   -7.1117   -1.9169 H         1 <0>         0.1441
     63 H19        -1.3265   -7.0188   -6.3128 H         1 <0>         0.0785
     64 H20        -2.7893   -7.8878   -5.7900 H         1 <0>         0.0908
     65 H21        -2.6232   -7.9959   -8.2301 H         1 <0>         0.1002
     66 H22        -3.9977   -6.9558   -7.7858 H         1 <0>         0.0886
     67 H23        -1.7078   -5.3285   -8.0767 H         1 <0>         0.4107
     68 H24        -2.8777   -4.9416  -12.5613 H         1 <0>         0.1718
     69 H25        -1.7441   -2.7104  -14.2736 H         1 <0>         0.1329
     70 H26        -0.2510   -0.7753  -14.2093 H         1 <0>         0.1342
     71 H27         0.9024   -0.1627  -12.1262 H         1 <0>         0.1395
     72 H28         0.5742   -1.4796  -10.0827 H         1 <0>         0.1359
     73 H29         1.0554   -2.9608   -2.8663 H         1 <0>         0.0792
     74 H30        -0.4735   -3.7591   -2.4265 H         1 <0>         0.0753
     75 H31        -0.4984   -2.2033   -3.2909 H         1 <0>         0.0748
@<TRIPOS>BOND
     1    1    2 1
     2    1   45 1
     3    1   46 1
     4    1   47 1
     5    2    7 ar
     6    2    3 ar
     7    3    4 ar
     8    3   48 1
     9    4    5 ar
    10    4   44 1
    11    5    6 ar
    12    5   12 1
    13    6    7 ar
    14    6    8 1
    15    7   49 1
    16    8    9 2
    17    8   10 am
    18   10   11 1
    19   10   50 1
    20   11   51 1
    21   12   13 1
    22   12   20 1
    23   13   14 1
    24   13   52 1
    25   13   53 1
    26   14   19 ar
    27   14   15 ar
    28   15   16 ar
    29   15   54 1
    30   16   17 ar
    31   16   55 1
    32   17   18 ar
    33   17   56 1
    34   18   19 ar
    35   18   57 1
    36   19   58 1
    37   20   21 2
    38   20   22 2
    39   20   23 1
    40   23   28 ar
    41   23   24 ar
    42   24   25 ar
    43   24   59 1
    44   25   26 ar
    45   25   60 1
    46   26   27 ar
    47   26   29 1
    48   27   28 ar
    49   27   61 1
    50   28   62 1
    51   29   30 1
    52   30   31 1
    53   30   63 1
    54   30   64 1
    55   31   32 1
    56   31   65 1
    57   31   66 1
    58   32   33 am
    59   32   67 1
    60   33   34 2
    61   33   35 1
    62   35   43 1
    63   35   36 2
    64   36   37 1
    65   36   68 1
    66   37   42 ar
    67   37   38 ar
    68   38   39 ar
    69   38   69 1
    70   39   40 ar
    71   39   70 1
    72   40   41 ar
    73   40   71 1
    74   41   42 ar
    75   41   72 1
    76   42   43 1
    77   44   73 1
    78   44   74 1
    79   44   75 1
@<TRIPOS>MOLECULE
ZINC29133346
   44    47     0     0     0
SMALL
USER_CHARGES
benzyl 6-benzyl-5,7-dioxo-thiazolo[2,3-f]pyrimidine-2-carboxylate
@<TRIPOS>ATOM
      1 C1          3.6126    0.5264   -4.0571 C.ar      1 <0>        -0.1066
      2 C2          4.0050    1.6793   -3.4030 C.ar      1 <0>        -0.1266
      3 C3          3.6156    1.8984   -2.0949 C.ar      1 <0>        -0.0941
      4 C4          2.8338    0.9647   -1.4408 C.ar      1 <0>        -0.1241
      5 C5          2.4459   -0.1907   -2.0931 C.ar      1 <0>        -0.0908
      6 C6          2.8309   -0.4074   -3.4029 C.ar      1 <0>        -0.1254
      7 C7          2.4097    1.2034   -0.0145 C.3       1 <0>         0.1455
      8 N1          1.1331    1.9219    0.0016 N.am      1 <0>        -0.5395
      9 C8         -0.0145    1.2159    0.0087 C.2       1 <0>         0.5611
     10 O1          0.0021   -0.0041    0.0020 O.2       1 <0>        -0.4865
     11 C9         -1.2297    1.9187    0.0182 C.2       1 <0>        -0.2327
     12 C10        -1.1929    3.2843    0.0307 C.2       1 <0>         0.1180
     13 N2         -0.0075    3.9945    0.0228 N.am      1 <0>        -0.4793
     14 C11         1.1413    3.2601    0.0083 C.2       1 <0>         0.7077
     15 O2          2.2093    3.8407    0.0008 O.2       1 <0>        -0.5038
     16 C12        -0.1119    5.3558    0.0307 C.2       1 <0>         0.1745
     17 C13        -1.3220    5.9593    0.0447 C.2       1 <0>        -0.2214
     18 S1         -2.4308    4.5583    0.0486 S.3       1 <0>         0.1408
     19 C14        -1.6412    7.3908    0.0546 C.2       1 <0>         0.5675
     20 O3         -0.7457    8.2134    0.0494 O.2       1 <0>        -0.4827
     21 O4         -2.9278    7.7947    0.0693 O.3       1 <0>        -0.3388
     22 C15        -3.1692    9.2265    0.0784 C.3       1 <0>         0.1108
     23 C16        -4.6537    9.4856    0.0944 C.ar      1 <0>        -0.1046
     24 C17        -5.3455    9.6156   -1.0953 C.ar      1 <0>        -0.0925
     25 C18        -6.7081    9.8481   -1.0806 C.ar      1 <0>        -0.1227
     26 C19        -7.3770    9.9613    0.1239 C.ar      1 <0>        -0.1048
     27 C20        -6.6841    9.8369    1.3136 C.ar      1 <0>        -0.1227
     28 C21        -5.3225    9.5989    1.2989 C.ar      1 <0>        -0.0924
     29 H1          3.9171    0.3550   -5.0790 H         1 <0>         0.1241
     30 H2          4.6160    2.4087   -3.9140 H         1 <0>         0.1245
     31 H3          3.9224    2.7990   -1.5838 H         1 <0>         0.1286
     32 H4          1.8388   -0.9223   -1.5806 H         1 <0>         0.1313
     33 H5          2.5247   -1.3083   -3.9138 H         1 <0>         0.1256
     34 H6          2.2937    0.2381    0.5000 H         1 <0>         0.1186
     35 H7          3.1747    1.8034    0.5000 H         1 <0>         0.1127
     36 H8         -2.1724    1.3917    0.0197 H         1 <0>         0.1885
     37 H9          0.7841    5.9588    0.0253 H         1 <0>         0.2039
     38 H10        -2.7099    9.6701    0.9741 H         1 <0>         0.0883
     39 H11        -2.7278    9.6785   -0.8221 H         1 <0>         0.0883
     40 H12        -4.8221    9.5316   -2.0362 H         1 <0>         0.1256
     41 H13        -7.2494    9.9449   -2.0101 H         1 <0>         0.1272
     42 H14        -8.4409   10.1466    0.1354 H         1 <0>         0.1261
     43 H15        -7.2067    9.9254    2.2546 H         1 <0>         0.1272
     44 H16        -4.7812    9.5017    2.2284 H         1 <0>         0.1256
@<TRIPOS>BOND
     1    1    6 ar
     2    1    2 ar
     3    1   29 1
     4    2    3 ar
     5    2   30 1
     6    3    4 ar
     7    3   31 1
     8    4    5 ar
     9    4    7 1
    10    5    6 ar
    11    5   32 1
    12    6   33 1
    13    7    8 1
    14    7   34 1
    15    7   35 1
    16    8   14 am
    17    8    9 am
    18    9   10 2
    19    9   11 1
    20   11   12 2
    21   11   36 1
    22   12   18 1
    23   12   13 1
    24   13   14 am
    25   13   16 1
    26   14   15 2
    27   16   17 2
    28   16   37 1
    29   17   18 1
    30   17   19 1
    31   19   20 2
    32   19   21 1
    33   21   22 1
    34   22   23 1
    35   22   38 1
    36   22   39 1
    37   23   28 ar
    38   23   24 ar
    39   24   25 ar
    40   24   40 1
    41   25   26 ar
    42   25   41 1
    43   26   27 ar
    44   26   42 1
    45   27   28 ar
    46   27   43 1
    47   28   44 1
@<TRIPOS>MOLECULE
ZINC13680271
   41    42     0     0     0
SMALL
USER_CHARGES

@<TRIPOS>ATOM
      1 C1         -0.0187    1.5258    0.0104 C.3       1 <0>        -0.1420
      2 C2          0.0021   -0.0041    0.0020 C.3       1 <0>        -0.0834
      3 C3          0.7421   -0.5109    1.2415 C.3       1 <0>        -0.1433
      4 C4         -1.4333   -0.5336    0.0129 C.3       1 <0>         0.0853
      5 H1         -1.9605   -0.1726   -0.8702 H         1 <0>         0.0718
      6 C5         -2.1387   -0.0476    1.2528 C.2       1 <0>         0.4973
      7 O1         -2.7455    1.0097    1.2340 O.co2     1 <0>        -0.6921
      8 O2         -2.1025   -0.7118    2.2746 O.co2     1 <0>        -0.6812
      9 N1         -1.4134   -1.9985    0.0048 N.pl3     1 <0>        -1.0833
     10 S1         -2.5847   -2.8380   -0.8111 S.o2      1 <0>         2.6874
     11 O3         -2.2793   -4.2170   -0.6549 O.2       1 <0>        -0.9729
     12 O4         -3.8319   -2.2842   -0.4148 O.2       1 <0>        -0.9439
     13 C6         -2.3918   -2.4703   -2.5235 C.ar      1 <0>        -0.6674
     14 C7         -3.0596   -1.3925   -3.0763 C.ar      1 <0>        -0.0141
     15 C8         -2.9125   -1.1002   -4.4172 C.ar      1 <0>        -0.1278
     16 C9         -2.0891   -1.8929   -5.2141 C.ar      1 <0>        -0.0060
     17 C10        -1.4185   -2.9772   -4.6519 C.ar      1 <0>        -0.1321
     18 C11        -1.5688   -3.2573   -3.3088 C.ar      1 <0>        -0.0170
     19 C12        -1.9275   -1.5839   -6.6564 C.ar      1 <0>        -0.0331
     20 C13        -2.5942   -0.4964   -7.2173 C.ar      1 <0>        -0.0994
     21 C14        -2.4406   -0.2132   -8.5592 C.ar      1 <0>        -0.0880
     22 C15        -1.6263   -1.0076   -9.3477 C.ar      1 <0>        -0.0887
     23 C16        -0.9623   -2.0892   -8.7955 C.ar      1 <0>        -0.0891
     24 C17        -1.1040   -2.3768   -7.4532 C.ar      1 <0>        -0.1006
     25 Br1        -1.4208   -0.6142  -11.1859 Br        1 <0>        -0.0514
     26 H2          1.0039    1.9031    0.0027 H         1 <0>         0.0449
     27 H3         -0.5459    1.8868   -0.8726 H         1 <0>         0.0498
     28 H4         -0.5289    1.8773    0.9072 H         1 <0>         0.0737
     29 H5          0.5123   -0.3556   -0.8948 H         1 <0>         0.0592
     30 H6          0.7568   -1.6008    1.2356 H         1 <0>         0.0486
     31 H7          1.7647   -0.1336    1.2338 H         1 <0>         0.0431
     32 H8          0.2319   -0.1594    2.1383 H         1 <0>         0.0736
     33 H9         -0.7142   -2.4767    0.4774 H         1 <0>         0.4140
     34 H10        -3.6975   -0.7787   -2.4577 H         1 <0>         0.1476
     35 H11        -3.4349   -0.2588   -4.8479 H         1 <0>         0.1355
     36 H12        -0.7791   -3.5949   -5.2651 H         1 <0>         0.1335
     37 H13        -1.0460   -4.0948   -2.8710 H         1 <0>         0.1427
     38 H14        -3.2303    0.1236   -6.6030 H         1 <0>         0.1391
     39 H15        -2.9568    0.6294   -8.9949 H         1 <0>         0.1367
     40 H16        -0.3284   -2.7062   -9.4150 H         1 <0>         0.1359
     41 H17        -0.5818   -3.2182   -7.0222 H         1 <0>         0.1375
@<TRIPOS>BOND
     1    1    2 1
     2    1   26 1
     3    1   27 1
     4    1   28 1
     5    2    3 1
     6    2    4 1
     7    2   29 1
     8    3   30 1
     9    3   31 1
    10    3   32 1
    11    4    5 1
    12    4    6 1
    13    4    9 1
    14    6    7 2
    15    6    8 1
    16    9   10 1
    17    9   33 1
    18   10   11 2
    19   10   12 2
    20   10   13 1
    21   13   18 ar
    22   13   14 ar
    23   14   15 ar
    24   14   34 1
    25   15   16 ar
    26   15   35 1
    27   16   17 ar
    28   16   19 1
    29   17   18 ar
    30   17   36 1
    31   18   37 1
    32   19   24 ar
    33   19   20 ar
    34   20   21 ar
    35   20   38 1
    36   21   22 ar
    37   21   39 1
    38   22   23 ar
    39   22   25 1
    40   23   24 ar
    41   23   40 1
    42   24   41 1
@<TRIPOS>MOLECULE
ZINC13803827
   44    45     0     0     0
SMALL
USER_CHARGES

@<TRIPOS>ATOM
      1 C1         -0.0184    1.5028    0.0103 C.3       1 <0>        -0.1136
      2 C2          0.0021   -0.0041    0.0020 C.ar      1 <0>        -0.0875
      3 C3          0.0057   -0.6865   -1.2011 C.ar      1 <0>        -0.1212
      4 C4          0.0244   -2.0665   -1.2146 C.ar      1 <0>        -0.1008
      5 C5          0.0396   -2.7722   -0.0132 C.ar      1 <0>        -0.0517
      6 C6          0.0359   -2.0796    1.1958 C.ar      1 <0>        -0.0992
      7 C7          0.0229   -0.6995    1.1975 C.ar      1 <0>        -0.1202
      8 C8          0.0592   -4.2560   -0.0214 C.ar      1 <0>         0.0037
      9 C9          0.0683   -4.9485   -1.2304 C.ar      1 <0>        -0.1342
     10 C10         0.0871   -6.3285   -1.2322 C.ar      1 <0>        -0.0051
     11 C11         0.0964   -7.0241   -0.0366 C.ar      1 <0>        -0.6613
     12 C12         0.0870   -6.3418    1.1665 C.ar      1 <0>        -0.0026
     13 C13         0.0745   -4.9617    1.1800 C.ar      1 <0>        -0.1264
     14 S1          0.1197   -8.7860   -0.0463 S.o2      1 <0>         2.6965
     15 O1         -0.4255   -9.2062    1.1968 O.2       1 <0>        -0.9693
     16 O2         -0.4259   -9.1925   -1.2939 O.2       1 <0>        -0.9757
     17 N1          1.7080   -9.2546   -0.0492 N.pl3     1 <0>        -1.0852
     18 C14         2.5625   -8.9539    1.1022 C.3       1 <0>         0.0766
     19 H1          1.9452   -8.8432    1.9937 H         1 <0>         0.0797
     20 C15         3.5586  -10.0965    1.3103 C.3       1 <0>        -0.0813
     21 C16         4.5063  -10.1715    0.1115 C.3       1 <0>        -0.1415
     22 C17         4.3668   -9.8428    2.5843 C.3       1 <0>        -0.1423
     23 C18         3.3139   -7.6723    0.8491 C.2       1 <0>         0.4916
     24 O3          3.6287   -6.9555    1.7838 O.co2     1 <0>        -0.6921
     25 O4          3.6069   -7.3523   -0.2903 O.co2     1 <0>        -0.6796
     26 H2          1.0042    1.8801    0.0026 H         1 <0>         0.0700
     27 H3         -0.5455    1.8639   -0.8728 H         1 <0>         0.0649
     28 H4         -0.5286    1.8543    0.9071 H         1 <0>         0.0651
     29 H5         -0.0065   -0.1385   -2.1317 H         1 <0>         0.1229
     30 H6          0.0268   -2.5984   -2.1545 H         1 <0>         0.1274
     31 H7          0.0473   -2.6217    2.1299 H         1 <0>         0.1285
     32 H8          0.0248   -0.1616    2.1340 H         1 <0>         0.1235
     33 H9          0.0603   -4.4064   -2.1645 H         1 <0>         0.1295
     34 H10         0.0941   -6.8663   -2.1687 H         1 <0>         0.1372
     35 H11         0.0940   -6.8898    2.0971 H         1 <0>         0.1372
     36 H12         0.0717   -4.4298    2.1199 H         1 <0>         0.1304
     37 H13         2.0726   -9.7281   -0.8132 H         1 <0>         0.4133
     38 H14         3.0172  -11.0378    1.4049 H         1 <0>         0.0627
     39 H15         5.2159  -10.9855    0.2597 H         1 <0>         0.0417
     40 H16         3.9305  -10.3522   -0.7962 H         1 <0>         0.0489
     41 H17         5.0477   -9.2302    0.0169 H         1 <0>         0.0712
     42 H18         3.6916   -9.7894    3.4384 H         1 <0>         0.0509
     43 H19         5.0764  -10.6568    2.7326 H         1 <0>         0.0456
     44 H20         4.9082   -8.9015    2.4898 H         1 <0>         0.0718
@<TRIPOS>BOND
     1    1    2 1
     2    1   26 1
     3    1   27 1
     4    1   28 1
     5    2    7 ar
     6    2    3 ar
     7    3    4 ar
     8    3   29 1
     9    4    5 ar
    10    4   30 1
    11    5    6 ar
    12    5    8 1
    13    6    7 ar
    14    6   31 1
    15    7   32 1
    16    8   13 ar
    17    8    9 ar
    18    9   10 ar
    19    9   33 1
    20   10   11 ar
    21   10   34 1
    22   11   12 ar
    23   11   14 1
    24   12   13 ar
    25   12   35 1
    26   13   36 1
    27   14   15 2
    28   14   16 2
    29   14   17 1
    30   17   18 1
    31   17   37 1
    32   18   19 1
    33   18   20 1
    34   18   23 1
    35   20   21 1
    36   20   22 1
    37   20   38 1
    38   21   39 1
    39   21   40 1
    40   21   41 1
    41   22   42 1
    42   22   43 1
    43   22   44 1
    44   23   24 2
    45   23   25 1
@<TRIPOS>MOLECULE
ZINC03961071
   41    42     0     0     0
SMALL
USER_CHARGES

@<TRIPOS>ATOM
      1 C1         -0.0187    1.5258    0.0104 C.3       1 <0>        -0.1455
      2 C2          0.0021   -0.0041    0.0020 C.3       1 <0>        -0.0797
      3 C3          0.7421   -0.5109    1.2415 C.3       1 <0>        -0.1454
      4 C4         -1.4333   -0.5336    0.0129 C.3       1 <0>         0.0799
      5 H1         -1.9435   -0.1821    0.9097 H         1 <0>         0.0809
      6 C5         -2.1622   -0.0344   -1.2080 C.2       1 <0>         0.4843
      7 O1         -2.4620   -0.8108   -2.0990 O.co2     1 <0>        -0.6780
      8 O2         -2.4521    1.1459   -1.3048 O.co2     1 <0>        -0.6888
      9 N1         -1.4134   -1.9985    0.0048 N.pl3     1 <0>        -1.0817
     10 S1         -2.5690   -2.8468    0.8339 S.o2      1 <0>         2.6970
     11 O3         -2.2983   -4.2242    0.6130 O.2       1 <0>        -0.9761
     12 O4         -2.6312   -2.2820    2.1364 O.2       1 <0>        -0.9694
     13 C6         -4.1170   -2.5080    0.0637 C.ar      1 <0>        -0.6473
     14 C7         -4.8801   -1.4368    0.4922 C.ar      1 <0>        -0.0087
     15 C8         -6.0936   -1.1670   -0.1073 C.ar      1 <0>        -0.1237
     16 C9         -6.5496   -1.9758   -1.1463 C.ar      1 <0>        -0.0063
     17 C10        -5.7766   -3.0533   -1.5743 C.ar      1 <0>        -0.1272
     18 C11        -4.5621   -3.3107   -0.9711 C.ar      1 <0>         0.0006
     19 C12        -7.8537   -1.6910   -1.7944 C.ar      1 <0>        -0.0247
     20 C13        -8.6241   -0.6104   -1.3697 C.ar      1 <0>        -0.1006
     21 C14        -9.8363   -0.3497   -1.9756 C.ar      1 <0>        -0.0883
     22 C15       -10.2874   -1.1600   -3.0032 C.ar      1 <0>        -0.0919
     23 C16        -9.5261   -2.2349   -3.4283 C.ar      1 <0>        -0.0891
     24 C17        -8.3094   -2.5000   -2.8334 C.ar      1 <0>        -0.1015
     25 Br1       -11.9496   -0.7974   -3.8285 Br        1 <0>        -0.0566
     26 H2          1.0039    1.9031    0.0027 H         1 <0>         0.0394
     27 H3         -0.5459    1.8868   -0.8726 H         1 <0>         0.0871
     28 H4         -0.5289    1.8773    0.9072 H         1 <0>         0.0484
     29 H5          0.5123   -0.3556   -0.8948 H         1 <0>         0.0671
     30 H6          0.7568   -1.6008    1.2356 H         1 <0>         0.0505
     31 H7          1.7647   -0.1336    1.2338 H         1 <0>         0.0486
     32 H8          0.2319   -0.1594    2.1383 H         1 <0>         0.0540
     33 H9         -0.7234   -2.4715   -0.4862 H         1 <0>         0.4130
     34 H10        -4.5257   -0.8106    1.2976 H         1 <0>         0.1366
     35 H11        -6.6890   -0.3309    0.2286 H         1 <0>         0.1305
     36 H12        -6.1252   -3.6833   -2.3792 H         1 <0>         0.1301
     37 H13        -3.9602   -4.1429   -1.3050 H         1 <0>         0.1376
     38 H14        -8.2733    0.0220   -0.5675 H         1 <0>         0.1381
     39 H15       -10.4341    0.4876   -1.6472 H         1 <0>         0.1349
     40 H16        -9.8825   -2.8643   -4.2303 H         1 <0>         0.1345
     41 H17        -7.7139   -3.3361   -3.1691 H         1 <0>         0.1375
@<TRIPOS>BOND
     1    1    2 1
     2    1   26 1
     3    1   27 1
     4    1   28 1
     5    2    3 1
     6    2    4 1
     7    2   29 1
     8    3   30 1
     9    3   31 1
    10    3   32 1
    11    4    5 1
    12    4    6 1
    13    4    9 1
    14    6    7 2
    15    6    8 1
    16    9   10 1
    17    9   33 1
    18   10   11 2
    19   10   12 2
    20   10   13 1
    21   13   18 ar
    22   13   14 ar
    23   14   15 ar
    24   14   34 1
    25   15   16 ar
    26   15   35 1
    27   16   17 ar
    28   16   19 1
    29   17   18 ar
    30   17   36 1
    31   18   37 1
    32   19   24 ar
    33   19   20 ar
    34   20   21 ar
    35   20   38 1
    36   21   22 ar
    37   21   39 1
    38   22   23 ar
    39   22   25 1
    40   23   24 ar
    41   23   40 1
    42   24   41 1
@<TRIPOS>MOLECULE
ZINC13680273
   44    45     0     0     0
SMALL
USER_CHARGES

@<TRIPOS>ATOM
      1 C1         -1.5998   -2.0555   -1.9255 C.3       1 <0>        -0.1562
      2 C2         -0.6461   -1.2347   -1.0550 C.3       1 <0>        -0.0936
      3 C3          0.3274   -0.4655   -1.9504 C.3       1 <0>        -0.1502
      4 C4         -1.4509   -0.2459   -0.2092 C.3       1 <0>         0.1583
      5 H1         -0.7730    0.3263    0.4242 H         1 <0>         0.1091
      6 C5         -2.4273   -1.0021    0.6544 C.2       1 <0>         0.5128
      7 O1         -3.5962   -1.0640    0.3369 O.2       1 <0>        -0.4975
      8 N1         -2.0016   -1.6096    1.7797 N.am      1 <0>        -0.5954
      9 O2         -2.8964   -2.4031    2.5378 O.3       1 <0>        -0.3147
     10 N2         -2.1835    0.6671   -1.0901 N.pl3     1 <0>        -1.0899
     11 S1         -2.3836    2.2529   -0.6572 S.o2      1 <0>         2.6888
     12 O3         -3.1119    2.8721   -1.7087 O.2       1 <0>        -0.9464
     13 O4         -2.8405    2.2520    0.6883 O.2       1 <0>        -0.9452
     14 C6         -0.7858    2.9955   -0.6460 C.ar      1 <0>        -0.6772
     15 C7         -0.0097    2.9433    0.4978 C.ar      1 <0>        -0.0209
     16 C8          1.2424    3.5237    0.5123 C.ar      1 <0>        -0.1288
     17 C9          1.7246    4.1626   -0.6283 C.ar      1 <0>         0.0130
     18 C10         0.9387    4.2118   -1.7779 C.ar      1 <0>        -0.1282
     19 C11        -0.3099    3.6236   -1.7828 C.ar      1 <0>        -0.0104
     20 C12         3.0698    4.7888   -0.6185 C.ar      1 <0>        -0.0482
     21 C13         3.8576    4.7350    0.5296 C.ar      1 <0>        -0.0961
     22 C14         5.1079    5.3189    0.5336 C.ar      1 <0>        -0.0891
     23 C15         5.5796    5.9578   -0.6001 C.ar      1 <0>        -0.0825
     24 C16         4.8007    6.0144   -1.7429 C.ar      1 <0>        -0.0887
     25 C17         3.5517    5.4278   -1.7592 C.ar      1 <0>        -0.0957
     26 Br1         7.2937    6.7564   -0.5875 Br        1 <0>        -0.0420
     27 H2         -1.0235   -2.7237   -2.5653 H         1 <0>         0.0676
     28 H3         -2.2596   -2.6430   -1.2871 H         1 <0>         0.0622
     29 H4         -2.1957   -1.3844   -2.5441 H         1 <0>         0.0621
     30 H5         -0.0868   -1.9023   -0.3996 H         1 <0>         0.0923
     31 H6         -0.2262    0.2502   -2.5583 H         1 <0>         0.0633
     32 H7          1.0490    0.0661   -1.3301 H         1 <0>         0.0599
     33 H8          0.8528   -1.1649   -2.6008 H         1 <0>         0.0674
     34 H9         -1.0822   -1.5033    2.0702 H         1 <0>         0.4068
     35 H10        -2.5004   -2.7975    3.3270 H         1 <0>         0.3884
     36 H11        -2.5513    0.3426   -1.9270 H         1 <0>         0.4276
     37 H12        -0.3844    2.4478    1.3812 H         1 <0>         0.1417
     38 H13         1.8473    3.4830    1.4061 H         1 <0>         0.1380
     39 H14         1.3076    4.7058   -2.6646 H         1 <0>         0.1384
     40 H15        -0.9180    3.6573   -2.6747 H         1 <0>         0.1460
     41 H16         3.4902    4.2374    1.4149 H         1 <0>         0.1377
     42 H17         5.7193    5.2777    1.4229 H         1 <0>         0.1386
     43 H18         5.1731    6.5143   -2.6249 H         1 <0>         0.1388
     44 H19         2.9467    5.4683   -2.6529 H         1 <0>         0.1381
@<TRIPOS>BOND
     1    1    2 1
     2    1   27 1
     3    1   28 1
     4    1   29 1
     5    2    3 1
     6    2    4 1
     7    2   30 1
     8    3   31 1
     9    3   32 1
    10    3   33 1
    11    4    5 1
    12    4    6 1
    13    4   10 1
    14    6    7 2
    15    6    8 am
    16    8    9 1
    17    8   34 1
    18    9   35 1
    19   10   11 1
    20   10   36 1
    21   11   12 2
    22   11   13 2
    23   11   14 1
    24   14   19 ar
    25   14   15 ar
    26   15   16 ar
    27   15   37 1
    28   16   17 ar
    29   16   38 1
    30   17   18 ar
    31   17   20 1
    32   18   19 ar
    33   18   39 1
    34   19   40 1
    35   20   25 ar
    36   20   21 ar
    37   21   22 ar
    38   21   41 1
    39   22   23 ar
    40   22   42 1
    41   23   24 ar
    42   23   26 1
    43   24   25 ar
    44   24   43 1
    45   25   44 1
@<TRIPOS>MOLECULE
ZINC13534671
   45    46     0     0     0
SMALL
USER_CHARGES

@<TRIPOS>ATOM
      1 C1         -0.0187    1.5258    0.0104 C.3       1 <0>        -0.1413
      2 C2          0.0021   -0.0041    0.0020 C.3       1 <0>        -0.0786
      3 C3          0.7182   -0.4975   -1.2568 C.3       1 <0>        -0.1477
      4 C4          0.7421   -0.5109    1.2415 C.3       1 <0>         0.0758
      5 H1          0.8346   -1.5958    1.1912 H         1 <0>         0.0799
      6 C5          2.1149    0.1084    1.2952 C.2       1 <0>         0.4897
      7 O1          2.3764    0.9381    2.1495 O.co2     1 <0>        -0.6772
      8 O2          2.9641   -0.2203    0.4845 O.co2     1 <0>        -0.6912
      9 N1         -0.0083   -0.1401    2.4439 N.pl3     1 <0>        -1.0834
     10 S1         -0.0331   -1.1568    3.7508 S.o2      1 <0>         2.6976
     11 O3         -0.8106   -0.5134    4.7512 O.2       1 <0>        -0.9776
     12 O4         -0.3504   -2.4496    3.2537 O.2       1 <0>        -0.9720
     13 C6          1.6131   -1.2463    4.3726 C.ar      1 <0>        -0.6532
     14 C7          2.4803   -2.2101    3.8904 C.ar      1 <0>        -0.0064
     15 C8          3.7710   -2.2846    4.3735 C.ar      1 <0>        -0.1317
     16 C9          4.2000   -1.3864    5.3488 C.ar      1 <0>         0.0098
     17 C10         3.3221   -0.4175    5.8309 C.ar      1 <0>        -0.1358
     18 C11         2.0352   -0.3489    5.3369 C.ar      1 <0>         0.0030
     19 C12         5.5861   -1.4618    5.8723 C.ar      1 <0>        -0.0821
     20 C13         6.4648   -2.4280    5.3854 C.ar      1 <0>        -0.0638
     21 C14         7.7528   -2.4953    5.8736 C.ar      1 <0>        -0.1497
     22 C15         8.1744   -1.6023    6.8494 C.ar      1 <0>         0.1265
     23 C16         7.3014   -0.6388    7.3363 C.ar      1 <0>        -0.2074
     24 C17         6.0140   -0.5629    6.8478 C.ar      1 <0>        -0.0640
     25 O5          9.4437   -1.6716    7.3291 O.3       1 <0>        -0.3182
     26 C18         9.8110   -0.7221    8.3320 C.3       1 <0>         0.0269
     27 H2          1.0039    1.9031    0.0027 H         1 <0>         0.0651
     28 H3         -0.5459    1.8868   -0.8726 H         1 <0>         0.0449
     29 H4         -0.5289    1.8773    0.9072 H         1 <0>         0.0481
     30 H5         -1.0205   -0.3814    0.0098 H         1 <0>         0.0607
     31 H6          1.7408   -0.1202   -1.2645 H         1 <0>         0.0874
     32 H7          0.7330   -1.5874   -1.2628 H         1 <0>         0.0474
     33 H8          0.1910   -0.1364   -2.1398 H         1 <0>         0.0409
     34 H9         -0.4906    0.7010    2.4745 H         1 <0>         0.4119
     35 H10         2.1466   -2.9059    3.1348 H         1 <0>         0.1346
     36 H11         4.4471   -3.0377    3.9966 H         1 <0>         0.1289
     37 H12         3.6494    0.2811    6.5868 H         1 <0>         0.1273
     38 H13         1.3554    0.4044    5.7065 H         1 <0>         0.1354
     39 H14         6.1372   -3.1234    4.6269 H         1 <0>         0.1362
     40 H15         8.4341   -3.2438    5.4967 H         1 <0>         0.1331
     41 H16         7.6320    0.0544    8.0956 H         1 <0>         0.1295
     42 H17         5.3365    0.1894    7.2239 H         1 <0>         0.1309
     43 H18         9.7030    0.2869    7.9340 H         1 <0>         0.0561
     44 H19         9.1628   -0.8416    9.2001 H         1 <0>         0.0551
     45 H20        10.8473   -0.8875    8.6267 H         1 <0>         0.0987
@<TRIPOS>BOND
     1    1    2 1
     2    1   27 1
     3    1   28 1
     4    1   29 1
     5    2    3 1
     6    2    4 1
     7    2   30 1
     8    3   31 1
     9    3   32 1
    10    3   33 1
    11    4    5 1
    12    4    6 1
    13    4    9 1
    14    6    7 2
    15    6    8 1
    16    9   10 1
    17    9   34 1
    18   10   11 2
    19   10   12 2
    20   10   13 1
    21   13   18 ar
    22   13   14 ar
    23   14   15 ar
    24   14   35 1
    25   15   16 ar
    26   15   36 1
    27   16   17 ar
    28   16   19 1
    29   17   18 ar
    30   17   37 1
    31   18   38 1
    32   19   24 ar
    33   19   20 ar
    34   20   21 ar
    35   20   39 1
    36   21   22 ar
    37   21   40 1
    38   22   23 ar
    39   22   25 1
    40   23   24 ar
    41   23   41 1
    42   24   42 1
    43   25   26 1
    44   26   43 1
    45   26   44 1
    46   26   45 1
@<TRIPOS>MOLECULE
ZINC03093383
   43    43     0     0     0
SMALL
USER_CHARGES

@<TRIPOS>ATOM
      1 C1         -6.8110   10.5081   -0.8098 C.3       1 <0>        -0.1536
      2 C2         -6.5729    9.0123   -0.5934 C.3       1 <0>        -0.1264
      3 C3         -5.0857    8.7014   -0.7732 C.3       1 <0>        -0.1189
      4 C4         -4.8475    7.2056   -0.5568 C.3       1 <0>        -0.1183
      5 C5         -3.3603    6.8947   -0.7366 C.3       1 <0>        -0.1178
      6 C6         -3.1222    5.3989   -0.5202 C.3       1 <0>         0.0584
      7 O1         -1.7331    5.1085   -0.6882 O.3       1 <0>        -0.3187
      8 C7         -1.3496    3.8145   -0.5287 C.ar      1 <0>         0.1204
      9 C8         -0.0162    3.4616   -0.6774 C.ar      1 <0>        -0.1531
     10 C9          0.3710    2.1455   -0.5152 C.ar      1 <0>        -0.0738
     11 C10        -0.5692    1.1802   -0.2055 C.ar      1 <0>        -0.1028
     12 C11        -1.8997    1.5284   -0.0624 C.ar      1 <0>        -0.0641
     13 C12        -2.2910    2.8442   -0.2175 C.ar      1 <0>        -0.2061
     14 C13        -0.1442   -0.2548   -0.0296 C.3       1 <0>        -0.0474
     15 H1          0.9318   -0.3366   -0.1839 H         1 <0>         0.0975
     16 C14        -0.4934   -0.7205    1.3853 C.3       1 <0>        -0.1422
     17 C15         0.0613   -2.1035    1.6103 C.2       1 <0>         0.4639
     18 O2          0.7446   -2.6258    0.7616 O.co2     1 <0>        -0.6417
     19 C16        -0.8627   -1.1183   -1.0343 C.2       1 <0>         0.5508
     20 O3         -1.9807   -1.5235   -0.7961 O.2       1 <0>        -0.5491
     21 N1         -0.2628   -1.4402   -2.1975 N.am      1 <0>        -0.8529
     22 H2         -6.2305   11.0772   -0.0837 H         1 <0>         0.0534
     23 H3         -6.5017   10.7831   -1.8181 H         1 <0>         0.0532
     24 H4         -7.8706   10.7296   -0.6816 H         1 <0>         0.0529
     25 H5         -7.1535    8.4432   -1.3194 H         1 <0>         0.0612
     26 H6         -6.8822    8.7373    0.4150 H         1 <0>         0.0615
     27 H7         -4.5051    9.2705   -0.0471 H         1 <0>         0.0630
     28 H8         -4.7763    8.9764   -1.7815 H         1 <0>         0.0627
     29 H9         -5.4281    6.6365   -1.2829 H         1 <0>         0.0652
     30 H10        -5.1569    6.9306    0.4516 H         1 <0>         0.0657
     31 H11        -2.7797    7.4638   -0.0106 H         1 <0>         0.0729
     32 H12        -3.0510    7.1697   -1.7450 H         1 <0>         0.0723
     33 H13        -3.7027    4.8298   -1.2463 H         1 <0>         0.0605
     34 H14        -3.4315    5.1239    0.4881 H         1 <0>         0.0615
     35 H15         0.7186    4.2153   -0.9194 H         1 <0>         0.1284
     36 H16         1.4089    1.8703   -0.6309 H         1 <0>         0.1313
     37 H17        -2.6329    0.7718    0.1748 H         1 <0>         0.1330
     38 H18        -3.3297    3.1163   -0.1016 H         1 <0>         0.1250
     39 H19        -0.0601   -0.0326    2.1115 H         1 <0>         0.0734
     40 H20        -1.5767   -0.7397    1.5045 H         1 <0>         0.0785
     41 H21         0.6579   -1.1798   -2.3567 H         1 <0>         0.3982
     42 H22        -0.7518   -1.9323   -2.8754 H         1 <0>         0.3930
     43 O4         -0.2037   -2.7551    2.7535 O.co2     1 <0>        -0.7712
@<TRIPOS>BOND
     1    1    2 1
     2    1   22 1
     3    1   23 1
     4    1   24 1
     5    2    3 1
     6    2   25 1
     7    2   26 1
     8    3    4 1
     9    3   27 1
    10    3   28 1
    11    4    5 1
    12    4   29 1
    13    4   30 1
    14    5    6 1
    15    5   31 1
    16    5   32 1
    17    6    7 1
    18    6   33 1
    19    6   34 1
    20    7    8 1
    21    8   13 ar
    22    8    9 ar
    23    9   10 ar
    24    9   35 1
    25   10   11 ar
    26   10   36 1
    27   11   12 ar
    28   11   14 1
    29   12   13 ar
    30   12   37 1
    31   13   38 1
    32   14   15 1
    33   14   16 1
    34   14   19 1
    35   16   17 1
    36   16   39 1
    37   16   40 1
    38   17   18 2
    39   17   43 1
    40   19   20 2
    41   19   21 am
    42   21   41 1
    43   21   42 1
@<TRIPOS>MOLECULE
ZINC03093384
   43    43     0     0     0
SMALL
USER_CHARGES

@<TRIPOS>ATOM
      1 C1         -0.1648    2.0292   -1.2079 C.3       1 <0>        -0.1533
      2 C2         -0.1232    0.5085   -1.0452 C.3       1 <0>        -0.1262
      3 C3          0.5585   -0.1164   -2.2641 C.3       1 <0>        -0.1190
      4 C4          0.6001   -1.6372   -2.1013 C.3       1 <0>        -0.1178
      5 C5          1.2818   -2.2621   -3.3203 C.3       1 <0>        -0.1178
      6 C6          1.3234   -3.7828   -3.1575 C.3       1 <0>         0.0598
      7 O1          1.9601   -4.3664   -4.2960 O.3       1 <0>        -0.3213
      8 C7          2.0792   -5.7202   -4.3098 C.ar      1 <0>         0.1168
      9 C8          1.5881   -6.4717   -3.2521 C.ar      1 <0>        -0.2149
     10 C9          1.7100   -7.8477   -3.2688 C.ar      1 <0>        -0.0395
     11 C10         2.3212   -8.4758   -4.3382 C.ar      1 <0>        -0.0693
     12 C11         2.8118   -7.7290   -5.3933 C.ar      1 <0>        -0.0501
     13 C12         2.6868   -6.3532   -5.3843 C.ar      1 <0>        -0.1605
     14 C13         2.4532   -9.9770   -4.3536 C.3       1 <0>        -0.0452
     15 H1          2.0127  -10.3897   -3.4460 H         1 <0>         0.1050
     16 C14         3.9335  -10.3580   -4.4209 C.3       1 <0>        -0.1740
     17 C15         4.6203   -9.9318   -3.1491 C.2       1 <0>         0.4956
     18 O2          3.9654   -9.4851   -2.2228 O.co2     1 <0>        -0.6853
     19 O3          5.8309  -10.0336   -3.0464 O.co2     1 <0>        -0.7036
     20 C16         1.7363  -10.5320   -5.5573 C.2       1 <0>         0.5213
     21 O4          1.2815   -9.7795   -6.3926 O.2       1 <0>        -0.5444
     22 N1          1.6005  -11.8647   -5.7056 N.am      1 <0>        -0.8599
     23 H2          0.8517    2.4135   -1.2926 H         1 <0>         0.0534
     24 H3         -0.7254    2.2831   -2.1076 H         1 <0>         0.0529
     25 H4         -0.6504    2.4744   -0.3396 H         1 <0>         0.0522
     26 H5          0.4374    0.2546   -0.1455 H         1 <0>         0.0615
     27 H6         -1.1397    0.1241   -0.9605 H         1 <0>         0.0607
     28 H7         -0.0021    0.1375   -3.1638 H         1 <0>         0.0622
     29 H8          1.5749    0.2679   -2.3488 H         1 <0>         0.0630
     30 H9          1.1607   -1.8911   -1.2017 H         1 <0>         0.0656
     31 H10        -0.4164   -2.0215   -2.0167 H         1 <0>         0.0643
     32 H11         0.7212   -2.0082   -4.2200 H         1 <0>         0.0710
     33 H12         2.2982   -1.8777   -3.4049 H         1 <0>         0.0722
     34 H13         1.8840   -4.0367   -2.2578 H         1 <0>         0.0603
     35 H14         0.3069   -4.1671   -3.0729 H         1 <0>         0.0579
     36 H15         1.1113   -5.9815   -2.4162 H         1 <0>         0.1196
     37 H16         1.3279   -8.4332   -2.4456 H         1 <0>         0.1224
     38 H17         3.2891   -8.2220   -6.2274 H         1 <0>         0.1198
     39 H18         3.0663   -5.7707   -6.2108 H         1 <0>         0.1219
     40 H19         4.0257  -11.4377   -4.5394 H         1 <0>         0.0624
     41 H20         4.3990   -9.8582   -5.2704 H         1 <0>         0.0640
     42 H21         2.0268  -12.4685   -5.0774 H         1 <0>         0.4017
     43 H22         1.0765  -12.2200   -6.4405 H         1 <0>         0.3943
@<TRIPOS>BOND
     1    1    2 1
     2    1   23 1
     3    1   24 1
     4    1   25 1
     5    2    3 1
     6    2   26 1
     7    2   27 1
     8    3    4 1
     9    3   28 1
    10    3   29 1
    11    4    5 1
    12    4   30 1
    13    4   31 1
    14    5    6 1
    15    5   32 1
    16    5   33 1
    17    6    7 1
    18    6   34 1
    19    6   35 1
    20    7    8 1
    21    8   13 ar
    22    8    9 ar
    23    9   10 ar
    24    9   36 1
    25   10   11 ar
    26   10   37 1
    27   11   12 ar
    28   11   14 1
    29   12   13 ar
    30   12   38 1
    31   13   39 1
    32   14   15 1
    33   14   16 1
    34   14   20 1
    35   16   17 1
    36   16   40 1
    37   16   41 1
    38   17   18 2
    39   17   19 1
    40   20   21 2
    41   20   22 am
    42   22   42 1
    43   22   43 1
@<TRIPOS>MOLECULE
ZINC04399653
   40    43     0     0     0
SMALL
USER_CHARGES

@<TRIPOS>ATOM
      1 C1          0.1218    1.1558    0.7610 C.ar      1 <0>        -0.1163
      2 C2          1.3090    1.8596    0.7553 C.ar      1 <0>        -0.0875
      3 C3          2.3823    1.4139    0.0016 C.ar      1 <0>        -0.1047
      4 C4          2.2664    0.2584   -0.7499 C.ar      1 <0>        -0.0787
      5 C5          1.0783   -0.4503   -0.7470 C.ar      1 <0>        -0.1269
      6 C6          0.0024   -0.0045    0.0078 C.ar      1 <0>         0.1392
      7 N1         -1.1987   -0.7224    0.0101 N.am      1 <0>        -0.6614
      8 C7         -2.3728   -0.0710    0.1270 C.2       1 <0>         0.5032
      9 O1         -2.3955    1.1416    0.1339 O.2       1 <0>        -0.4941
     10 C8         -3.6574   -0.8494    0.2491 C.3       1 <0>         0.1129
     11 N2         -4.7833    0.0810    0.3624 N.pl3     1 <0>        -0.1281
     12 N3         -5.2511    0.5544    1.4660 N.2       1 <0>        -0.2810
     13 C9         -6.2568    1.3528    1.1683 C.2       1 <0>         0.2095
     14 N4         -6.3752    1.3399   -0.1669 N.2       1 <0>        -0.2594
     15 N5         -5.4571    0.5584   -0.6252 N.2       1 <0>        -0.0393
     16 C10        -7.0955    2.1170    2.1255 C.ar      1 <0>         0.0329
     17 C11        -6.8611    2.0452    3.5011 C.ar      1 <0>        -0.1366
     18 C12        -7.6645    2.7719    4.3560 C.ar      1 <0>         0.1021
     19 N6         -8.6415    3.5257    3.8899 N.ar      1 <0>        -0.4738
     20 C13        -8.8959    3.6211    2.5990 C.ar      1 <0>         0.1031
     21 C14        -8.1371    2.9322    1.6749 C.ar      1 <0>        -0.1325
     22 C15         3.5665   -0.0114   -1.4770 C.3       1 <0>        -0.0823
     23 C16         4.3363    1.3256   -1.4377 C.3       1 <0>        -0.1215
     24 C17         3.7684    1.9981   -0.1699 C.3       1 <0>        -0.0836
     25 H1         -0.7111    1.5044    1.3535 H         1 <0>         0.1339
     26 H2          1.4014    2.7622    1.3410 H         1 <0>         0.1258
     27 H3          0.9878   -1.3525   -1.3336 H         1 <0>         0.1262
     28 H4         -1.1863   -1.6888   -0.0724 H         1 <0>         0.4159
     29 H5         -3.7894   -1.4736   -0.6346 H         1 <0>         0.1551
     30 H6         -3.6169   -1.4805    1.1369 H         1 <0>         0.1540
     31 H7         -6.0631    1.4298    3.8895 H         1 <0>         0.1445
     32 H8         -7.4912    2.7225    5.4208 H         1 <0>         0.1645
     33 H9         -9.7061    4.2499    2.2606 H         1 <0>         0.1659
     34 H10        -8.3479    3.0184    0.6192 H         1 <0>         0.1488
     35 H11         4.1324   -0.7889   -0.9638 H         1 <0>         0.0828
     36 H12         3.3693   -0.3042   -2.5082 H         1 <0>         0.0767
     37 H13         5.4079    1.1529   -1.3377 H         1 <0>         0.0790
     38 H14         4.1201    1.9233   -2.3232 H         1 <0>         0.0736
     39 H15         3.7093    3.0777   -0.3086 H         1 <0>         0.0763
     40 H16         4.3886    1.7605    0.6944 H         1 <0>         0.0817
@<TRIPOS>BOND
     1    1    6 ar
     2    1    2 ar
     3    1   25 1
     4    2    3 ar
     5    2   26 1
     6    3   24 1
     7    3    4 ar
     8    4    5 ar
     9    4   22 1
    10    5    6 ar
    11    5   27 1
    12    6    7 1
    13    7    8 am
    14    7   28 1
    15    8    9 2
    16    8   10 1
    17   10   11 1
    18   10   29 1
    19   10   30 1
    20   11   15 1
    21   11   12 1
    22   12   13 2
    23   13   14 1
    24   13   16 1
    25   14   15 2
    26   16   21 ar
    27   16   17 ar
    28   17   18 ar
    29   17   31 1
    30   18   19 ar
    31   18   32 1
    32   19   20 ar
    33   20   21 ar
    34   20   33 1
    35   21   34 1
    36   22   23 1
    37   22   35 1
    38   22   36 1
    39   23   24 1
    40   23   37 1
    41   23   38 1
    42   24   39 1
    43   24   40 1
@<TRIPOS>MOLECULE
ZINC08741242
   37    39     0     0     0
SMALL
USER_CHARGES

@<TRIPOS>ATOM
      1 C1         -0.0167    1.3781    0.0096 C.ar      1 <0>        -0.1258
      2 C2          1.1709    2.0855    0.0021 C.ar      1 <0>        -0.1157
      3 C3          2.3773    1.4107   -0.0130 C.ar      1 <0>        -0.1106
      4 C4          2.3960    0.0285   -0.0201 C.ar      1 <0>        -0.0386
      5 C5          1.2084   -0.6789   -0.0117 C.ar      1 <0>        -0.1035
      6 C6          0.0021   -0.0041    0.0020 C.ar      1 <0>        -0.1194
      7 C7          3.7112   -0.7071   -0.0376 C.3       1 <0>        -0.0980
      8 C8          4.3885   -0.4315   -1.3660 C.2       1 <0>         0.4932
      9 O1          3.7885   -0.7405   -2.5267 O.3       1 <0>        -0.6216
     10 N1          5.5762    0.1166   -1.3453 N.2       1 <0>        -0.6688
     11 C9          6.2032    0.4369   -0.2086 C.2       1 <0>         0.6703
     12 O2          7.3059    0.9433   -0.2964 O.2       1 <0>        -0.5701
     13 N2          5.7062    0.2416    1.0192 N.am      1 <0>        -0.6999
     14 C10         4.4885   -0.3146    1.2054 C.2       1 <0>         0.5476
     15 O3          4.0369   -0.4917    2.3165 O.2       1 <0>        -0.5108
     16 C11         3.4155   -2.2063    0.0394 C.3       1 <0>        -0.0843
     17 C12         4.7312   -2.9871    0.0239 C.3       1 <0>        -0.0929
     18 C13         4.4399   -4.4637    0.0998 C.ar      1 <0>        -0.0251
     19 C14         4.3421   -5.1058    1.3248 C.ar      1 <0>        -0.1702
     20 C15         4.0738   -6.4612    1.3551 C.ar      1 <0>         0.0950
     21 N3          3.9122   -7.1421    0.2374 N.ar      1 <0>        -0.4940
     22 C16         3.9983   -6.5645   -0.9450 C.ar      1 <0>         0.0965
     23 C17         4.2578   -5.2114   -1.0536 C.ar      1 <0>        -0.1647
     24 H1         -0.9591    1.9053    0.0259 H         1 <0>         0.1192
     25 H2          1.1563    3.1654    0.0076 H         1 <0>         0.1207
     26 H3          3.3051    1.9634   -0.0196 H         1 <0>         0.1138
     27 H4          1.2231   -1.7588   -0.0176 H         1 <0>         0.1271
     28 H5         -0.9258   -0.5567    0.0082 H         1 <0>         0.1212
     29 H6          6.2312    0.5045    1.7913 H         1 <0>         0.4001
     30 H7          2.8751   -2.4232    0.9609 H         1 <0>         0.0777
     31 H8          2.8079   -2.5012   -0.8161 H         1 <0>         0.0928
     32 H9          5.2715   -2.7702   -0.8975 H         1 <0>         0.0881
     33 H10         5.3388   -2.6922    0.8795 H         1 <0>         0.0709
     34 H11         4.4742   -4.5538    2.2436 H         1 <0>         0.1333
     35 H12         3.9961   -6.9688    2.3052 H         1 <0>         0.1529
     36 H13         3.8602   -7.1549   -1.8387 H         1 <0>         0.1546
     37 H14         4.3221   -4.7431   -2.0246 H         1 <0>         0.1389
@<TRIPOS>BOND
     1    1    6 ar
     2    1    2 ar
     3    1   24 1
     4    2    3 ar
     5    2   25 1
     6    3    4 ar
     7    3   26 1
     8    4    5 ar
     9    4    7 1
    10    5    6 ar
    11    5   27 1
    12    6   28 1
    13    7   14 1
    14    7    8 1
    15    7   16 1
    16    8    9 1
    17    8   10 2
    18   10   11 1
    19   11   12 2
    20   11   13 am
    21   13   14 am
    22   13   29 1
    23   14   15 2
    24   16   17 1
    25   16   30 1
    26   16   31 1
    27   17   18 1
    28   17   32 1
    29   17   33 1
    30   18   23 ar
    31   18   19 ar
    32   19   20 ar
    33   19   34 1
    34   20   21 ar
    35   20   35 1
    36   21   22 ar
    37   22   23 ar
    38   22   36 1
    39   23   37 1
@<TRIPOS>MOLECULE
ZINC08741242
   38    40     0     0     0
SMALL
USER_CHARGES

@<TRIPOS>ATOM
      1 C1         -0.0167    1.3781    0.0096 C.ar      1 <0>        -0.1034
      2 C2          1.1709    2.0855    0.0021 C.ar      1 <0>        -0.1105
      3 C3          2.3773    1.4107   -0.0130 C.ar      1 <0>        -0.1112
      4 C4          2.3960    0.0285   -0.0201 C.ar      1 <0>        -0.0831
      5 C5          1.2084   -0.6789   -0.0117 C.ar      1 <0>        -0.0906
      6 C6          0.0021   -0.0041    0.0020 C.ar      1 <0>        -0.1121
      7 C7          3.7112   -0.7071   -0.0376 C.3       1 <0>        -0.0660
      8 C8          4.4619   -0.3022   -1.2921 C.2       1 <0>         0.5435
      9 N1          5.6828    0.2525   -1.1369 N.am      1 <0>        -0.6670
     10 C9          6.2253    0.4445    0.0710 C.2       1 <0>         0.7155
     11 N2          5.6408    0.1211    1.2302 N.am      1 <0>        -0.6667
     12 C10         4.4163   -0.4449    1.2798 C.2       1 <0>         0.5434
     13 O1          3.8990   -0.7326    2.3378 O.2       1 <0>        -0.4488
     14 O2          7.3290    0.9499    0.1186 O.2       1 <0>        -0.5183
     15 O3          3.9834   -0.4708   -2.3931 O.2       1 <0>        -0.4484
     16 C11         3.4137   -2.2055   -0.1235 C.3       1 <0>        -0.1019
     17 C12         4.7292   -2.9863   -0.1434 C.3       1 <0>        -0.0940
     18 C13         4.4362   -4.4621   -0.2281 C.ar      1 <0>        -0.0394
     19 C14         4.2724   -5.2203    0.9211 C.ar      1 <0>        -0.1676
     20 C15         4.0047   -6.5711    0.8043 C.ar      1 <0>         0.1031
     21 N3          3.9052   -7.1389   -0.3817 N.ar      1 <0>        -0.4850
     22 C16         4.0551   -6.4491   -1.4956 C.ar      1 <0>         0.1031
     23 C17         4.3183   -5.0929   -1.4572 C.ar      1 <0>        -0.1675
     24 H1         -0.9591    1.9053    0.0259 H         1 <0>         0.1297
     25 H2          1.1563    3.1654    0.0076 H         1 <0>         0.1298
     26 H3          3.3051    1.9634   -0.0196 H         1 <0>         0.1155
     27 H4          1.2231   -1.7588   -0.0176 H         1 <0>         0.1344
     28 H5         -0.9258   -0.5567    0.0082 H         1 <0>         0.1318
     29 H6          6.1819    0.5194   -1.9246 H         1 <0>         0.4383
     30 H7          2.8240   -2.5090    0.7415 H         1 <0>         0.1051
     31 H8          2.8541   -2.4130   -1.0356 H         1 <0>         0.1049
     32 H9          5.3189   -2.6828   -1.0085 H         1 <0>         0.0787
     33 H10         5.2888   -2.7787    0.7687 H         1 <0>         0.0788
     34 H11         4.3534   -4.7611    1.8953 H         1 <0>         0.1360
     35 H12         3.8757   -7.1686    1.6947 H         1 <0>         0.1580
     36 H13         3.9669   -6.9490   -2.4489 H         1 <0>         0.1580
     37 H14         4.4351   -4.5324   -2.3729 H         1 <0>         0.1360
     38 H15         6.1113    0.2980    2.0598 H         1 <0>         0.4383
@<TRIPOS>BOND
     1    1    6 ar
     2    1    2 ar
     3    1   24 1
     4    2    3 ar
     5    2   25 1
     6    3    4 ar
     7    3   26 1
     8    4    5 ar
     9    4    7 1
    10    5    6 ar
    11    5   27 1
    12    6   28 1
    13    7    8 1
    14    7   16 1
    15    7   12 1
    16    8   15 2
    17    8    9 am
    18    9   10 am
    19    9   29 1
    20   10   11 am
    21   10   14 2
    22   11   12 am
    23   11   38 1
    24   12   13 2
    25   16   17 1
    26   16   30 1
    27   16   31 1
    28   17   18 1
    29   17   32 1
    30   17   33 1
    31   18   23 ar
    32   18   19 ar
    33   19   20 ar
    34   19   34 1
    35   20   21 ar
    36   20   35 1
    37   21   22 ar
    38   22   23 ar
    39   22   36 1
    40   23   37 1
@<TRIPOS>MOLECULE
ZINC08741242
   37    39     0     0     0
SMALL
USER_CHARGES

@<TRIPOS>ATOM
      1 C1         -0.0167    1.3781    0.0096 C.ar      1 <0>        -0.1245
      2 C2          1.1709    2.0855    0.0021 C.ar      1 <0>        -0.1153
      3 C3          2.3773    1.4107   -0.0130 C.ar      1 <0>        -0.1096
      4 C4          2.3960    0.0285   -0.0201 C.ar      1 <0>        -0.0440
      5 C5          1.2084   -0.6789   -0.0117 C.ar      1 <0>        -0.1054
      6 C6          0.0021   -0.0041    0.0020 C.ar      1 <0>        -0.1199
      7 C7          3.7112   -0.7071   -0.0376 C.3       1 <0>        -0.1255
      8 C8          4.4620   -0.3025   -1.2917 C.2       1 <0>         0.5352
      9 N1          5.6699    0.2468   -1.1446 N.2       1 <0>        -0.6756
     10 C9          6.2177    0.4439    0.0298 C.2       1 <0>         0.6394
     11 N2          5.6429    0.1229    1.2192 N.am      1 <0>        -0.6836
     12 C10         4.4175   -0.4438    1.2796 C.2       1 <0>         0.5484
     13 O1          3.9045   -0.7293    2.3403 O.2       1 <0>        -0.5149
     14 O2          7.4399    1.0052    0.0604 O.3       1 <0>        -0.6548
     15 O3          3.9803   -0.4730   -2.3940 O.2       1 <0>        -0.5266
     16 C11         3.4140   -2.2056   -0.1228 C.3       1 <0>        -0.0851
     17 C12         4.7298   -2.9861   -0.1427 C.3       1 <0>        -0.0935
     18 C13         4.4372   -4.4620   -0.2266 C.ar      1 <0>        -0.0256
     19 C14         4.2738   -5.2197    0.9230 C.ar      1 <0>        -0.1696
     20 C15         4.0064   -6.5706    0.8069 C.ar      1 <0>         0.0957
     21 N3          3.9069   -7.1390   -0.3789 N.ar      1 <0>        -0.4937
     22 C16         4.0562   -6.4497   -1.4931 C.ar      1 <0>         0.0969
     23 C17         4.3192   -5.0934   -1.4554 C.ar      1 <0>        -0.1659
     24 H1         -0.9591    1.9053    0.0259 H         1 <0>         0.1197
     25 H2          1.1563    3.1654    0.0076 H         1 <0>         0.1217
     26 H3          3.3051    1.9634   -0.0196 H         1 <0>         0.1169
     27 H4          1.2231   -1.7588   -0.0176 H         1 <0>         0.1269
     28 H5         -0.9258   -0.5567    0.0082 H         1 <0>         0.1213
     29 H6          2.8247   -2.5089    0.7425 H         1 <0>         0.0798
     30 H7          2.8543   -2.4137   -1.0347 H         1 <0>         0.0891
     31 H8          5.3192   -2.6828   -1.0080 H         1 <0>         0.0865
     32 H9          5.2895   -2.7780    0.7692 H         1 <0>         0.0736
     33 H10         4.3549   -4.7601    1.8970 H         1 <0>         0.1339
     34 H11         3.8778   -7.1678    1.6975 H         1 <0>         0.1534
     35 H12         3.9680   -6.9500   -2.4461 H         1 <0>         0.1546
     36 H13         4.4356   -4.5333   -2.3714 H         1 <0>         0.1377
     37 H14         6.1226    0.3048    2.0424 H         1 <0>         0.4023
@<TRIPOS>BOND
     1    1    6 ar
     2    1    2 ar
     3    1   24 1
     4    2    3 ar
     5    2   25 1
     6    3    4 ar
     7    3   26 1
     8    4    5 ar
     9    4    7 1
    10    5    6 ar
    11    5   27 1
    12    6   28 1
    13    7    8 1
    14    7   16 1
    15    7   12 1
    16    8   15 2
    17    8    9 1
    18    9   10 2
    19   10   11 1
    20   10   14 1
    21   11   12 am
    22   11   37 1
    23   12   13 2
    24   16   17 1
    25   16   29 1
    26   16   30 1
    27   17   18 1
    28   17   31 1
    29   17   32 1
    30   18   23 ar
    31   18   19 ar
    32   19   20 ar
    33   19   33 1
    34   20   21 ar
    35   20   34 1
    36   21   22 ar
    37   22   23 ar
    38   22   35 1
    39   23   36 1
@<TRIPOS>MOLECULE
ZINC08741242
   37    39     0     0     0
SMALL
USER_CHARGES

@<TRIPOS>ATOM
      1 C1         -0.0167    1.3781    0.0096 C.ar      1 <0>        -0.1246
      2 C2          1.1709    2.0855    0.0021 C.ar      1 <0>        -0.1153
      3 C3          2.3773    1.4107   -0.0130 C.ar      1 <0>        -0.1096
      4 C4          2.3960    0.0285   -0.0201 C.ar      1 <0>        -0.0440
      5 C5          1.2084   -0.6789   -0.0117 C.ar      1 <0>        -0.1054
      6 C6          0.0021   -0.0041    0.0020 C.ar      1 <0>        -0.1199
      7 C7          3.7112   -0.7071   -0.0376 C.3       1 <0>        -0.1256
      8 C8          4.3897   -0.4305   -1.3666 C.2       1 <0>         0.5484
      9 O1          3.8546   -0.7056   -2.4191 O.2       1 <0>        -0.5149
     10 N1          5.6160    0.1360   -1.3262 N.am      1 <0>        -0.6837
     11 C9          6.2159    0.4448   -0.1459 C.2       1 <0>         0.6394
     12 O2          7.4370    1.0069   -0.1965 O.3       1 <0>        -0.6547
     13 N2          5.6928    0.2359    1.0377 N.2       1 <0>        -0.6756
     14 C10         4.4882   -0.3149    1.2046 C.2       1 <0>         0.5352
     15 O3          4.0296   -0.4965    2.3149 O.2       1 <0>        -0.5266
     16 C11         3.4157   -2.2064    0.0389 C.3       1 <0>        -0.0851
     17 C12         4.7316   -2.9869    0.0234 C.3       1 <0>        -0.0934
     18 C13         4.4406   -4.4636    0.0987 C.ar      1 <0>        -0.0256
     19 C14         4.3426   -5.1061    1.3235 C.ar      1 <0>        -0.1659
     20 C15         4.0746   -6.4616    1.3533 C.ar      1 <0>         0.0969
     21 N3          3.9133   -7.1421    0.2354 N.ar      1 <0>        -0.4936
     22 C16         3.9995   -6.5642   -0.9468 C.ar      1 <0>         0.0957
     23 C17         4.2587   -5.2110   -1.0549 C.ar      1 <0>        -0.1696
     24 H1         -0.9591    1.9053    0.0259 H         1 <0>         0.1197
     25 H2          1.1563    3.1654    0.0076 H         1 <0>         0.1217
     26 H3          3.3051    1.9634   -0.0196 H         1 <0>         0.1169
     27 H4          1.2231   -1.7588   -0.0176 H         1 <0>         0.1269
     28 H5         -0.9258   -0.5567    0.0082 H         1 <0>         0.1213
     29 H6          2.8752   -2.4237    0.9602 H         1 <0>         0.0891
     30 H7          2.8083   -2.5011   -0.8168 H         1 <0>         0.0798
     31 H8          5.2721   -2.7696   -0.8979 H         1 <0>         0.0735
     32 H9          5.3390   -2.6922    0.8791 H         1 <0>         0.0865
     33 H10         4.4745   -4.5544    2.2425 H         1 <0>         0.1378
     34 H11         3.9968   -6.9695    2.3033 H         1 <0>         0.1546
     35 H12         3.8617   -7.1543   -1.8408 H         1 <0>         0.1534
     36 H13         4.3232   -4.7424   -2.0258 H         1 <0>         0.1339
     37 H14         6.0784    0.3261   -2.1575 H         1 <0>         0.4023
@<TRIPOS>BOND
     1    1    6 ar
     2    1    2 ar
     3    1   24 1
     4    2    3 ar
     5    2   25 1
     6    3    4 ar
     7    3   26 1
     8    4    5 ar
     9    4    7 1
    10    5    6 ar
    11    5   27 1
    12    6   28 1
    13    7   14 1
    14    7    8 1
    15    7   16 1
    16    8    9 2
    17    8   10 am
    18   10   11 1
    19   10   37 1
    20   11   12 1
    21   11   13 2
    22   13   14 1
    23   14   15 2
    24   16   17 1
    25   16   29 1
    26   16   30 1
    27   17   18 1
    28   17   31 1
    29   17   32 1
    30   18   23 ar
    31   18   19 ar
    32   19   20 ar
    33   19   33 1
    34   20   21 ar
    35   20   34 1
    36   21   22 ar
    37   22   23 ar
    38   22   35 1
    39   23   36 1
@<TRIPOS>MOLECULE
ZINC18045921
   29    30     0     0     0
SMALL
USER_CHARGES

@<TRIPOS>ATOM
      1 C1          0.0051    1.5024    0.2404 C.3       1 <0>        -0.1542
      2 C2         -0.0014   -0.0007   -0.0452 C.3       1 <0>         0.0626
      3 O1         -1.3289   -0.5082    0.1040 O.3       1 <0>        -0.3437
      4 C3         -1.5086   -1.8278   -0.1145 C.2       1 <0>         0.5434
      5 O2         -0.5622   -2.5278   -0.4234 O.2       1 <0>        -0.5529
      6 C4         -2.7997   -2.3985    0.0159 C.2       1 <0>        -0.2568
      7 C5         -2.9675   -3.7878   -0.0959 C.2       1 <0>         0.2930
      8 C6         -4.2664   -4.3419   -0.1993 C.2       1 <0>         0.1168
      9 N1         -4.4401   -5.6299   -0.3038 N.2       1 <0>        -0.3853
     10 C7         -3.3922   -6.4745   -0.3175 C.ar      1 <0>         0.0307
     11 C8         -3.5943   -7.8580   -0.4311 C.ar      1 <0>        -0.0346
     12 C9         -2.5231   -8.7031   -0.4440 C.ar      1 <0>        -0.1323
     13 C10        -1.2284   -8.2094   -0.3453 C.ar      1 <0>        -0.0491
     14 C11        -1.0021   -6.8547   -0.2328 C.ar      1 <0>        -0.1497
     15 C12        -2.0786   -5.9742   -0.2179 C.ar      1 <0>         0.1371
     16 N2         -1.8766   -4.6135   -0.1113 N.pl3     1 <0>        -0.5494
     17 C13        -3.9326   -1.5579    0.2617 C.1       1 <0>         0.2792
     18 N3         -4.8314   -0.8910    0.4566 N.1       1 <0>        -0.4249
     19 H1          1.0177    1.8894    0.1266 H         1 <0>         0.0807
     20 H2         -0.6583    2.0084   -0.4610 H         1 <0>         0.0672
     21 H3         -0.3395    1.6801    1.2591 H         1 <0>         0.0670
     22 H4          0.3432   -0.1785   -1.0639 H         1 <0>         0.0691
     23 H5          0.6620   -0.5067    0.6563 H         1 <0>         0.0686
     24 H6         -5.1260   -3.6880   -0.1910 H         1 <0>         0.1932
     25 H7         -4.5963   -8.2537   -0.5078 H         1 <0>         0.1495
     26 H8         -2.6836   -9.7675   -0.5317 H         1 <0>         0.1431
     27 H9         -0.3923   -8.8929   -0.3565 H         1 <0>         0.1440
     28 H10         0.0072   -6.4782   -0.1561 H         1 <0>         0.1438
     29 H11        -0.9798   -4.2499   -0.0452 H         1 <0>         0.4439
@<TRIPOS>BOND
     1    1    2 1
     2    1   19 1
     3    1   20 1
     4    1   21 1
     5    2    3 1
     6    2   22 1
     7    2   23 1
     8    3    4 1
     9    4    5 2
    10    4    6 1
    11    6    7 2
    12    6   17 1
    13    7   16 1
    14    7    8 1
    15    8    9 2
    16    8   24 1
    17    9   10 1
    18   10   15 ar
    19   10   11 ar
    20   11   12 ar
    21   11   25 1
    22   12   13 ar
    23   12   26 1
    24   13   14 ar
    25   13   27 1
    26   14   15 ar
    27   14   28 1
    28   15   16 1
    29   16   29 1
    30   17   18 3
@<TRIPOS>MOLECULE
ZINC39193938
   63    65     0     0     0
SMALL
USER_CHARGES

@<TRIPOS>ATOM
      1 C1         -0.0187    1.5258    0.0104 C.3       1 <0>        -0.1525
      2 C2          0.0021   -0.0041    0.0020 C.3       1 <0>         0.0513
      3 O1          0.6709   -0.4649   -1.1737 O.3       1 <0>        -0.3140
      4 C3          0.7768   -1.8100   -1.3361 C.ar      1 <0>         0.1423
      5 C4          0.2412   -2.6667   -0.3838 C.ar      1 <0>        -0.2039
      6 C5          0.3465   -4.0319   -0.5449 C.ar      1 <0>        -0.0565
      7 C6          0.9925   -4.5526   -1.6673 C.ar      1 <0>        -0.0546
      8 C7          1.5296   -3.6880   -2.6225 C.ar      1 <0>        -0.0497
      9 C8          1.4151   -2.3239   -2.4569 C.ar      1 <0>        -0.1502
     10 C9          1.1080   -6.0159   -1.8438 C.2       1 <0>        -0.0756
     11 C10         1.7008   -6.7183   -2.8585 C.2       1 <0>        -0.1883
     12 C11         1.6850   -8.0955   -2.8081 C.2       1 <0>        -0.0108
     13 C12         1.0847   -8.7119   -1.7583 C.2       1 <0>        -0.7562
     14 S1          0.5177   -7.3268   -0.7853 S.3       1 <0>         0.1894
     15 S2          0.9141  -10.4358   -1.4359 S.o2      1 <0>         2.7210
     16 O2         -0.2130  -10.5798   -0.5827 O.2       1 <0>        -0.9348
     17 O3          1.0086  -11.0950   -2.6912 O.2       1 <0>        -0.9662
     18 N1          2.2368  -10.9024   -0.5555 N.pl3     1 <0>        -1.0788
     19 C13         2.4448  -10.3686    0.7929 C.3       1 <0>         0.0854
     20 H1          1.9409   -9.4064    0.8844 H         1 <0>         0.0743
     21 C14         3.9430  -10.1856    1.0435 C.3       1 <0>        -0.0712
     22 C15         4.6504  -11.5364    0.9132 C.3       1 <0>        -0.1304
     23 C16         6.1546  -11.3436    1.1305 C.3       1 <0>         0.1301
     24 N2          6.3639  -10.6748    2.4219 N.am      1 <0>        -0.5870
     25 C17         5.6584   -9.4135    2.6868 C.3       1 <0>         0.1140
     26 C18         4.1599   -9.6279    2.4521 C.3       1 <0>        -0.1346
     27 C19         7.1870  -11.2085    3.3461 C.2       1 <0>         0.6509
     28 O4          7.7643  -12.2524    3.1151 O.2       1 <0>        -0.5792
     29 O5          7.3695  -10.5849    4.5254 O.3       1 <0>        -0.3583
     30 C20         8.2557  -11.2071    5.4579 C.3       1 <0>         0.0967
     31 C21         8.9206  -10.1345    6.3230 C.3       1 <0>        -0.1480
     32 C22         7.4653  -12.1652    6.3513 C.3       1 <0>        -0.1729
     33 C23         1.8797  -11.3300    1.8064 C.2       1 <0>         0.4951
     34 O6          1.5185  -12.4411    1.4576 O.co2     1 <0>        -0.6754
     35 O7          1.7836  -10.9969    2.9753 O.co2     1 <0>        -0.6896
     36 H2          1.0039    1.9031    0.0027 H         1 <0>         0.0666
     37 H3         -0.5459    1.8868   -0.8726 H         1 <0>         0.0663
     38 H4         -0.5289    1.8773    0.9072 H         1 <0>         0.0794
     39 H5          0.5293   -0.3651    0.8851 H         1 <0>         0.0650
     40 H6         -1.0205   -0.3814    0.0098 H         1 <0>         0.0644
     41 H7         -0.2582   -2.2630    0.4846 H         1 <0>         0.1349
     42 H8         -0.0700   -4.6976    0.1966 H         1 <0>         0.1313
     43 H9          2.0302   -4.0869   -3.4924 H         1 <0>         0.1363
     44 H10         1.8265   -1.6543   -3.1977 H         1 <0>         0.1371
     45 H11         2.1715   -6.2031   -3.6828 H         1 <0>         0.1410
     46 H12         2.1441   -8.6768   -3.5940 H         1 <0>         0.1474
     47 H13         2.8739  -11.5292   -0.9326 H         1 <0>         0.4134
     48 H14         4.3514   -9.4898    0.3106 H         1 <0>         0.0642
     49 H15         4.2600  -12.2253    1.6622 H         1 <0>         0.0827
     50 H16         4.4760  -11.9439   -0.0826 H         1 <0>         0.0753
     51 H17         6.6502  -12.3143    1.1372 H         1 <0>         0.0934
     52 H18         6.5635  -10.7277    0.3296 H         1 <0>         0.0682
     53 H19         5.8267   -9.1108    3.7204 H         1 <0>         0.0892
     54 H20         6.0269   -8.6402    2.0128 H         1 <0>         0.0633
     55 H21         3.6363   -8.6771    2.5515 H         1 <0>         0.0734
     56 H22         3.7741  -10.3348    3.1866 H         1 <0>         0.1059
     57 H23         9.0210  -11.7631    4.9164 H         1 <0>         0.0830
     58 H24         8.1553   -9.5785    6.8645 H         1 <0>         0.0671
     59 H25         9.5966  -10.6091    7.0344 H         1 <0>         0.0765
     60 H26         9.4837   -9.4519    5.6866 H         1 <0>         0.0620
     61 H27         8.1412  -12.6398    7.0626 H         1 <0>         0.0707
     62 H28         6.7000  -11.6092    6.8928 H         1 <0>         0.0657
     63 H29         6.9916  -12.9293    5.7349 H         1 <0>         0.0644
@<TRIPOS>BOND
     1    1    2 1
     2    1   36 1
     3    1   37 1
     4    1   38 1
     5    2    3 1
     6    2   39 1
     7    2   40 1
     8    3    4 1
     9    4    9 ar
    10    4    5 ar
    11    5    6 ar
    12    5   41 1
    13    6    7 ar
    14    6   42 1
    15    7    8 ar
    16    7   10 1
    17    8    9 ar
    18    8   43 1
    19    9   44 1
    20   10   14 1
    21   10   11 2
    22   11   12 1
    23   11   45 1
    24   12   13 2
    25   12   46 1
    26   13   14 1
    27   13   15 1
    28   15   16 2
    29   15   17 2
    30   15   18 1
    31   18   19 1
    32   18   47 1
    33   19   20 1
    34   19   21 1
    35   19   33 1
    36   21   26 1
    37   21   22 1
    38   21   48 1
    39   22   23 1
    40   22   49 1
    41   22   50 1
    42   23   24 1
    43   23   51 1
    44   23   52 1
    45   24   25 1
    46   24   27 am
    47   25   26 1
    48   25   53 1
    49   25   54 1
    50   26   55 1
    51   26   56 1
    52   27   28 2
    53   27   29 1
    54   29   30 1
    55   30   31 1
    56   30   32 1
    57   30   57 1
    58   31   58 1
    59   31   59 1
    60   31   60 1
    61   32   61 1
    62   32   62 1
    63   32   63 1
    64   33   34 2
    65   33   35 1
@<TRIPOS>MOLECULE
ZINC03252138
   41    43     0     0     0
SMALL
USER_CHARGES

@<TRIPOS>ATOM
      1 C1          4.3205    1.8226    2.6810 C.3       1 <0>        -0.1641
      2 C2          4.2675    0.3081    2.4700 C.3       1 <0>         0.0620
      3 N1          2.8723   -0.1383    2.4842 N.pl3     1 <0>        -0.4123
      4 C3          2.1959   -0.3384    1.2996 C.2       1 <0>        -0.2366
      5 C4          2.8232   -0.1207    0.0593 C.2       1 <0>         0.1706
      6 C5          2.1462    0.5599   -0.9838 C.2       1 <0>        -0.1666
      7 C6          2.7751    0.7532   -2.1624 C.2       1 <0>         0.1759
      8 N2          4.0440    0.3029   -2.3541 N.pl3     1 <0>        -0.4371
      9 C7          4.7196   -0.3532   -1.3730 C.2       1 <0>         0.1782
     10 C8          4.1473   -0.5723   -0.1704 C.2       1 <0>        -0.2045
     11 C9          6.1243   -0.8354   -1.6292 C.3       1 <0>        -0.1388
     12 C10         4.6971    0.5292   -3.6458 C.3       1 <0>         0.1586
     13 C11         5.3449    1.8898   -3.6496 C.2       1 <0>        -0.0678
     14 C12         6.6056    2.1619   -3.2677 C.2       1 <0>        -0.1661
     15 C13         6.7923    3.5536   -3.4326 C.2       1 <0>        -0.2162
     16 C14         5.6344    4.0488   -3.9055 C.2       1 <0>        -0.0099
     17 O1          4.7632    3.0356   -4.0405 O.3       1 <0>        -0.1697
     18 C15         2.0637    1.4752   -3.2776 C.3       1 <0>        -0.1359
     19 C16         0.8656   -0.7654    1.3709 C.2       1 <0>         0.4136
     20 O2          0.0819   -1.0044    0.4635 O.2       1 <0>        -0.4470
     21 S1          0.6134   -0.8708    3.1353 S.3       1 <0>        -0.1148
     22 C17         2.2420   -0.3620    3.6582 C.2       1 <0>         0.3022
     23 S2          2.8524   -0.1966    5.2492 S.2       1 <0>        -0.5053
     24 H1          3.8691    2.0716    3.6414 H         1 <0>         0.0761
     25 H2          5.3586    2.1548    2.6704 H         1 <0>         0.0757
     26 H3          3.7716    2.3203    1.8816 H         1 <0>         0.0547
     27 H4          4.7189    0.0591    1.5096 H         1 <0>         0.1048
     28 H5          4.8164   -0.1896    3.2694 H         1 <0>         0.1062
     29 H6          1.1384    0.9194   -0.8373 H         1 <0>         0.1659
     30 H7          4.6903   -1.0896    0.6067 H         1 <0>         0.1691
     31 H8          6.7741    0.0201   -1.8135 H         1 <0>         0.0956
     32 H9          6.4843   -1.3844   -0.7592 H         1 <0>         0.1054
     33 H10         6.1303   -1.4905   -2.5004 H         1 <0>         0.0958
     34 H11         5.4569   -0.2354   -3.8076 H         1 <0>         0.1387
     35 H12         3.9547    0.4780   -4.4422 H         1 <0>         0.1251
     36 H13         7.3351    1.4533   -2.9042 H         1 <0>         0.1539
     37 H14         7.6918    4.1121   -3.2195 H         1 <0>         0.1566
     38 H15         5.4397    5.0847   -4.1406 H         1 <0>         0.2112
     39 H16         1.0649    1.7601   -2.9469 H         1 <0>         0.1049
     40 H17         2.6256    2.3690   -3.5484 H         1 <0>         0.0970
     41 H18         1.9859    0.8185   -4.1441 H         1 <0>         0.0950
@<TRIPOS>BOND
     1    1    2 1
     2    1   24 1
     3    1   25 1
     4    1   26 1
     5    2    3 1
     6    2   27 1
     7    2   28 1
     8    3   22 1
     9    3    4 1
    10    4    5 2
    11    4   19 1
    12    5   10 1
    13    5    6 1
    14    6    7 2
    15    6   29 1
    16    7    8 1
    17    7   18 1
    18    8    9 1
    19    8   12 1
    20    9   10 2
    21    9   11 1
    22   10   30 1
    23   11   31 1
    24   11   32 1
    25   11   33 1
    26   12   13 1
    27   12   34 1
    28   12   35 1
    29   13   17 1
    30   13   14 2
    31   14   15 1
    32   14   36 1
    33   15   16 2
    34   15   37 1
    35   16   17 1
    36   16   38 1
    37   18   39 1
    38   18   40 1
    39   18   41 1
    40   19   20 2
    41   19   21 1
    42   21   22 1
    43   22   23 2
@<TRIPOS>MOLECULE
ZINC06498222
   30    33     0     0     0
SMALL
USER_CHARGES

@<TRIPOS>ATOM
      1 C1         -0.0184    1.5028    0.0103 C.3       1 <0>        -0.0778
      2 C2          0.0021   -0.0041    0.0020 C.2       1 <0>         0.1398
      3 C3          0.0079   -0.8271   -1.1683 C.2       1 <0>        -0.2229
      4 C4         -0.0009   -0.6932   -2.6148 C.2       1 <0>        -0.0494
      5 C5          0.0105   -1.8195   -3.3747 C.2       1 <0>        -0.0679
      6 S1          0.0340   -3.1272   -2.1633 S.3       1 <0>         0.1797
      7 C6          0.0279   -2.1407   -0.6902 C.2       1 <0>         0.0248
      8 N1          0.0337   -2.1073    0.6616 N.pl3     1 <0>        -0.2882
      9 N2          0.0229   -0.7636    1.0574 N.2       1 <0>        -0.2693
     10 C7          0.0520   -3.2185    1.5142 C.ar      1 <0>         0.1570
     11 C8         -0.6193   -4.3805    1.1572 C.ar      1 <0>        -0.1294
     12 C9         -0.5993   -5.4744    2.0001 C.ar      1 <0>        -0.0935
     13 C10         0.0877   -5.4132    3.1987 C.ar      1 <0>        -0.1230
     14 C11         0.7568   -4.2573    3.5572 C.ar      1 <0>        -0.1000
     15 C12         0.7462   -3.1623    2.7156 C.ar      1 <0>        -0.1109
     16 C13         0.0045   -1.9324   -4.8411 C.2       1 <0>         0.1574
     17 N3         -0.0078   -0.9374   -5.6978 N.2       1 <0>        -0.2484
     18 N4         -0.0096   -1.4055   -6.8961 N.2       1 <0>        -0.3382
     19 C14         0.0014   -2.7169   -6.8539 C.2       1 <0>         0.3439
     20 O1          0.0165   -3.0799   -5.5562 O.3       1 <0>        -0.2354
     21 S2          0.0038   -3.8042   -8.2403 S.3       1 <0>        -0.7155
     22 H1          1.0042    1.8801    0.0026 H         1 <0>         0.0858
     23 H2         -0.5455    1.8639   -0.8728 H         1 <0>         0.0867
     24 H3         -0.5286    1.8543    0.9071 H         1 <0>         0.0788
     25 H4         -0.0167    0.2827   -3.0772 H         1 <0>         0.1531
     26 H5         -1.1566   -4.4287    0.2216 H         1 <0>         0.1305
     27 H6         -1.1212   -6.3785    1.7231 H         1 <0>         0.1351
     28 H7          0.1015   -6.2698    3.8562 H         1 <0>         0.1300
     29 H8          1.2919   -4.2123    4.4942 H         1 <0>         0.1327
     30 H9          1.2732   -2.2616    2.9938 H         1 <0>         0.1342
@<TRIPOS>BOND
     1    1    2 1
     2    1   22 1
     3    1   23 1
     4    1   24 1
     5    2    9 2
     6    2    3 1
     7    3    7 2
     8    3    4 1
     9    4    5 2
    10    4   25 1
    11    5    6 1
    12    5   16 1
    13    6    7 1
    14    7    8 1
    15    8    9 1
    16    8   10 1
    17   10   15 ar
    18   10   11 ar
    19   11   12 ar
    20   11   26 1
    21   12   13 ar
    22   12   27 1
    23   13   14 ar
    24   13   28 1
    25   14   15 ar
    26   14   29 1
    27   15   30 1
    28   16   20 1
    29   16   17 2
    30   17   18 1
    31   18   19 2
    32   19   20 1
    33   19   21 1
@<TRIPOS>MOLECULE
ZINC04100613
   39    42     0     0     0
SMALL
USER_CHARGES

@<TRIPOS>ATOM
      1 C1         -0.0173    1.4248    0.0099 C.3       1 <0>         0.0243
      2 O1          0.0021   -0.0041    0.0020 O.3       1 <0>        -0.3061
      3 C2          0.6058   -0.6071   -1.0557 C.ar      1 <0>         0.1717
      4 C3          0.6547   -1.9893   -1.1283 C.ar      1 <0>        -0.1375
      5 C4          1.2748   -2.6075   -2.2148 C.ar      1 <0>         0.0615
      6 C5          1.8433   -1.8293   -3.2240 C.ar      1 <0>        -0.1584
      7 C6          1.7899   -0.4477   -3.1435 C.ar      1 <0>         0.1696
      8 C7          1.1673    0.1628   -2.0642 C.ar      1 <0>        -0.2769
      9 O2          2.3437    0.3111   -4.1256 O.3       1 <0>        -0.3095
     10 C8          2.2524    1.7296   -3.9788 C.3       1 <0>         0.0243
     11 C9          1.3298   -4.0820   -2.2962 C.2       1 <0>         0.2015
     12 N1          0.8339   -4.9265   -1.4248 N.2       1 <0>        -0.2385
     13 N2          1.0656   -6.1299   -1.8165 N.2       1 <0>        -0.2564
     14 C10         1.7189   -6.1009   -2.9539 C.2       1 <0>         0.3965
     15 O3          1.8953   -4.8080   -3.2853 O.3       1 <0>        -0.2261
     16 N3          2.1434   -7.1976   -3.6821 N.pl3     1 <0>        -0.5490
     17 C11         1.8851   -8.4755   -3.2212 C.2       1 <0>         0.3774
     18 N4          1.2536   -8.8461   -2.1312 N.2       1 <0>        -0.4995
     19 C12         1.0729  -10.1445   -1.8032 C.ar      1 <0>         0.0726
     20 C13         0.4162  -10.6755   -0.6668 C.ar      1 <0>         0.1583
     21 C14         0.3209  -12.0322   -0.4832 C.ar      1 <0>        -0.1439
     22 C15         0.8597  -12.9265   -1.3971 C.ar      1 <0>        -0.0687
     23 C16         1.5074  -12.4415   -2.5182 C.ar      1 <0>        -0.0720
     24 C17         1.6082  -11.0855   -2.7105 C.ar      1 <0>        -0.1301
     25 S1          2.3191  -10.0433   -3.9616 S.3       1 <0>         0.0571
     26 F1         -0.1219   -9.8379    0.2465 F         1 <0>        -0.1181
     27 H1          1.0053    1.8021    0.0021 H         1 <0>         0.0578
     28 H2         -0.5445    1.7859   -0.8732 H         1 <0>         0.0578
     29 H3         -0.5275    1.7763    0.9067 H         1 <0>         0.1065
     30 H4          0.2137   -2.5879   -0.3449 H         1 <0>         0.1529
     31 H5          2.3245   -2.3037   -4.0665 H         1 <0>         0.1419
     32 H6          1.1236    1.2403   -2.0067 H         1 <0>         0.1425
     33 H7          2.7326    2.2145   -4.8287 H         1 <0>         0.1057
     34 H8          1.2037    2.0239   -3.9374 H         1 <0>         0.0581
     35 H9          2.7513    2.0325   -3.0582 H         1 <0>         0.0581
     36 H10         2.6222   -7.0703   -4.5160 H         1 <0>         0.4501
     37 H11        -0.1845  -12.4122    0.3923 H         1 <0>         0.1498
     38 H12         0.7744  -13.9907   -1.2341 H         1 <0>         0.1516
     39 H13         1.9316  -13.1252   -3.2386 H         1 <0>         0.1431
@<TRIPOS>BOND
     1    1    2 1
     2    1   27 1
     3    1   28 1
     4    1   29 1
     5    2    3 1
     6    3    8 ar
     7    3    4 ar
     8    4    5 ar
     9    4   30 1
    10    5    6 ar
    11    5   11 1
    12    6    7 ar
    13    6   31 1
    14    7    8 ar
    15    7    9 1
    16    8   32 1
    17    9   10 1
    18   10   33 1
    19   10   34 1
    20   10   35 1
    21   11   15 1
    22   11   12 2
    23   12   13 1
    24   13   14 2
    25   14   15 1
    26   14   16 1
    27   16   17 1
    28   16   36 1
    29   17   25 1
    30   17   18 2
    31   18   19 1
    32   19   24 ar
    33   19   20 ar
    34   20   21 ar
    35   20   26 1
    36   21   22 ar
    37   21   37 1
    38   22   23 ar
    39   22   38 1
    40   23   24 ar
    41   23   39 1
    42   24   25 1
@<TRIPOS>MOLECULE
ZINC02398112
   47    50     0     0     0
SMALL
USER_CHARGES

@<TRIPOS>ATOM
      1 C1         -1.9738    0.6382    0.5281 C.3       1 <0>        -0.1252
      2 C2         -0.9363   -0.4189    0.2505 C.ar      1 <0>        -0.0369
      3 C3         -1.0001   -1.1624   -0.9102 C.ar      1 <0>        -0.1231
      4 C4         -0.0485   -2.1332   -1.1665 C.ar      1 <0>        -0.0831
      5 C5          0.9725   -2.3658   -0.2619 C.ar      1 <0>        -0.1283
      6 C6          1.0474   -1.6299    0.9024 C.ar      1 <0>        -0.0567
      7 C7          0.0942   -0.6442    1.1640 C.ar      1 <0>        -0.0502
      8 C8          0.1722    0.1528    2.4067 C.2       1 <0>         0.3438
      9 N1          0.3752   -0.3220    3.6132 N.2       1 <0>        -0.5277
     10 C9          0.3874    0.6825    4.5043 C.2       1 <0>         0.3028
     11 N2          0.1910    1.8137    3.8694 N.2       1 <0>        -0.3080
     12 O1          0.0530    1.4891    2.4943 O.3       1 <0>        -0.0979
     13 C10         0.5892    0.5370    5.9655 C.ar      1 <0>        -0.1224
     14 C11         0.7954   -0.7247    6.5301 C.ar      1 <0>         0.0198
     15 C12         0.9795   -0.8129    7.8968 C.ar      1 <0>        -0.2122
     16 C13         0.9544    0.3498    8.6656 C.ar      1 <0>         0.2487
     17 N3          0.7564    1.5355    8.1014 N.ar      1 <0>        -0.5390
     18 C14         0.5817    1.6627    6.7987 C.ar      1 <0>         0.3713
     19 O2          0.3885    2.8932    6.2637 O.3       1 <0>        -0.2846
     20 C15         0.3917    4.0009    7.1665 C.3       1 <0>         0.0369
     21 C16         1.1508    0.2614   10.1317 C.ar      1 <0>        -0.1045
     22 C17         1.3648   -0.9779   10.7346 C.ar      1 <0>        -0.0484
     23 C18         1.5471   -1.0568   12.0987 C.ar      1 <0>        -0.1566
     24 C19         1.5173    0.0960   12.8726 C.ar      1 <0>         0.1488
     25 C20         1.3044    1.3316   12.2753 C.ar      1 <0>        -0.2171
     26 C21         1.1276    1.4180   10.9109 C.ar      1 <0>        -0.0291
     27 O3          1.6964    0.0148   14.2166 O.3       1 <0>        -0.3139
     28 C22         1.6538    1.2394   14.9519 C.3       1 <0>         0.0244
     29 H1         -1.6020    1.6080    0.1972 H         1 <0>         0.0845
     30 H2         -2.8907    0.3977   -0.0102 H         1 <0>         0.0779
     31 H3         -2.1792    0.6737    1.5979 H         1 <0>         0.0644
     32 H4         -1.7948   -0.9862   -1.6200 H         1 <0>         0.1352
     33 H5         -0.1029   -2.7124   -2.0764 H         1 <0>         0.1328
     34 H6          1.7120   -3.1255   -0.4677 H         1 <0>         0.1355
     35 H7          1.8445   -1.8127    1.6078 H         1 <0>         0.1352
     36 H8          0.8101   -1.6105    5.9124 H         1 <0>         0.1589
     37 H9          1.1409   -1.7728    8.3647 H         1 <0>         0.1508
     38 H10        -0.4030    3.8730    7.9015 H         1 <0>         0.0618
     39 H11         1.3537    4.0511    7.6766 H         1 <0>         0.0617
     40 H12         0.2269    4.9236    6.6101 H         1 <0>         0.1008
     41 H13         1.3874   -1.8749   10.1335 H         1 <0>         0.1388
     42 H14         1.7129   -2.0162   12.5662 H         1 <0>         0.1385
     43 H15         1.2815    2.2262   12.8800 H         1 <0>         0.1336
     44 H16         0.9666    2.3796   10.4465 H         1 <0>         0.1375
     45 H17         2.4368    1.9068   14.5919 H         1 <0>         0.0584
     46 H18         0.6815    1.7123   14.8140 H         1 <0>         0.0584
     47 H19         1.8107    1.0331   16.0107 H         1 <0>         0.1034
@<TRIPOS>BOND
     1    1    2 1
     2    1   29 1
     3    1   30 1
     4    1   31 1
     5    2    7 ar
     6    2    3 ar
     7    3    4 ar
     8    3   32 1
     9    4    5 ar
    10    4   33 1
    11    5    6 ar
    12    5   34 1
    13    6    7 ar
    14    6   35 1
    15    7    8 1
    16    8   12 1
    17    8    9 2
    18    9   10 1
    19   10   11 2
    20   10   13 1
    21   11   12 1
    22   13   18 ar
    23   13   14 ar
    24   14   15 ar
    25   14   36 1
    26   15   16 ar
    27   15   37 1
    28   16   17 ar
    29   16   21 1
    30   17   18 ar
    31   18   19 1
    32   19   20 1
    33   20   38 1
    34   20   39 1
    35   20   40 1
    36   21   26 ar
    37   21   22 ar
    38   22   23 ar
    39   22   41 1
    40   23   24 ar
    41   23   42 1
    42   24   25 ar
    43   24   27 1
    44   25   26 ar
    45   25   43 1
    46   26   44 1
    47   27   28 1
    48   28   45 1
    49   28   46 1
    50   28   47 1
@<TRIPOS>MOLECULE
ZINC08602241
   32    34     0     0     0
SMALL
USER_CHARGES

@<TRIPOS>ATOM
      1 C1         -0.0167    1.3782    0.0096 C.ar      1 <0>        -0.0830
      2 C2          1.1706    2.0858    0.0021 C.ar      1 <0>        -0.1100
      3 C3          2.3780    1.4104   -0.0130 C.ar      1 <0>        -0.0234
      4 C4          2.3961    0.0270   -0.0206 C.ar      1 <0>        -0.1100
      5 C5          1.2082   -0.6795   -0.0130 C.ar      1 <0>        -0.0830
      6 C6          0.0021   -0.0041    0.0020 C.ar      1 <0>        -0.0855
      7 C7         -1.2928   -0.7750    0.0107 C.3       1 <0>        -0.0531
      8 S1         -1.8293   -1.0751   -1.6960 S.3       1 <0>         0.0007
      9 C8         -3.3347   -1.9732   -1.5179 C.2       1 <0>         0.3675
     10 N1         -4.0124   -2.3707   -2.6303 N.am      1 <0>        -0.6138
     11 H1         -3.6680   -2.1605   -3.5124 H         1 <0>         0.4228
     12 C9         -5.1658   -3.0591   -2.4982 C.2       1 <0>         0.5415
     13 O1         -5.7870   -3.4240   -3.4829 O.2       1 <0>        -0.5304
     14 C10        -5.6389   -3.3489   -1.2055 C.2       1 <0>        -0.2716
     15 C11        -4.9195   -2.9266   -0.1263 C.2       1 <0>         0.1741
     16 N2         -3.7826   -2.2534   -0.3106 N.2       1 <0>        -0.5344
     17 C12        -5.6123   -3.3476    1.1524 C.3       1 <0>        -0.0712
     18 C13        -7.0562   -3.6969    0.7320 C.3       1 <0>        -0.1186
     19 C14        -6.8767   -4.0889   -0.7508 C.3       1 <0>        -0.0535
     20 Cl1         3.8696    2.2984   -0.0231 Cl        1 <0>        -0.0620
     21 H2         -0.9592    1.9053    0.0259 H         1 <0>         0.1380
     22 H3          1.1558    3.1656    0.0076 H         1 <0>         0.1391
     23 H4          3.3383   -0.5007   -0.0327 H         1 <0>         0.1391
     24 H5          1.2222   -1.7594   -0.0193 H         1 <0>         0.1380
     25 H6         -1.1447   -1.7283    0.5180 H         1 <0>         0.1141
     26 H7         -2.0551   -0.1989    0.5352 H         1 <0>         0.1141
     27 H8         -5.1204   -4.2217    1.5791 H         1 <0>         0.0971
     28 H9         -5.6151   -2.5264    1.8692 H         1 <0>         0.0904
     29 H10        -7.4371   -4.5373    1.3124 H         1 <0>         0.0879
     30 H11        -7.7092   -2.8295    0.8280 H         1 <0>         0.0783
     31 H12        -7.7421   -3.7729   -1.3334 H         1 <0>         0.0793
     32 H13        -6.7297   -5.1650   -0.8428 H         1 <0>         0.0814
@<TRIPOS>BOND
     1    1    6 ar
     2    1    2 ar
     3    1   21 1
     4    2    3 ar
     5    2   22 1
     6    3    4 ar
     7    3   20 1
     8    4    5 ar
     9    4   23 1
    10    5    6 ar
    11    5   24 1
    12    6    7 1
    13    7    8 1
    14    7   25 1
    15    7   26 1
    16    8    9 1
    17    9   16 2
    18    9   10 1
    19   10   11 1
    20   10   12 am
    21   12   13 2
    22   12   14 1
    23   14   19 1
    24   14   15 2
    25   15   16 1
    26   15   17 1
    27   17   18 1
    28   17   27 1
    29   17   28 1
    30   18   19 1
    31   18   29 1
    32   18   30 1
    33   19   31 1
    34   19   32 1
@<TRIPOS>MOLECULE
ZINC04501577
   40    41     0     0     0
SMALL
USER_CHARGES

@<TRIPOS>ATOM
      1 C1         -0.0167    1.3790    0.0096 C.ar      1 <0>        -0.1251
      2 C2          1.1687    2.0919    0.0021 C.ar      1 <0>        -0.1216
      3 C3          2.3774    1.4258   -0.0129 C.ar      1 <0>        -0.1078
      4 C4          2.4022    0.0327   -0.0206 C.ar      1 <0>        -0.0380
      5 C5          1.2051   -0.6804   -0.0130 C.ar      1 <0>        -0.1056
      6 C6          0.0021   -0.0041    0.0020 C.ar      1 <0>        -0.1201
      7 C7          3.6987   -0.6889   -0.0373 C.ar      1 <0>        -0.0082
      8 C8          4.8958    0.0241   -0.0395 C.ar      1 <0>        -0.1338
      9 C9          6.0988   -0.6522   -0.0546 C.ar      1 <0>        -0.0067
     10 C10         6.1176   -2.0352   -0.0680 C.ar      1 <0>        -0.6550
     11 C11         4.9322   -2.7481   -0.0663 C.ar      1 <0>        -0.0020
     12 C12         3.7235   -2.0821   -0.0450 C.ar      1 <0>        -0.1246
     13 S1          7.6571   -2.8920   -0.0877 S.o2      1 <0>         2.6934
     14 O1          7.4021   -4.1724   -0.6489 O.2       1 <0>        -0.9662
     15 O2          8.6134   -1.9962   -0.6373 O.2       1 <0>        -0.9811
     16 N1          8.0968   -3.1452    1.4886 N.pl3     1 <0>        -1.0760
     17 C13         7.2857   -4.0143    2.3448 C.3       1 <0>         0.0765
     18 H1          6.7397   -4.7266    1.7262 H         1 <0>         0.0758
     19 C14         8.1975   -4.7725    3.3115 C.3       1 <0>        -0.0746
     20 C15         9.1061   -5.7165    2.5214 C.3       1 <0>        -0.1797
     21 C16        10.0042   -6.4633    3.4737 C.2       1 <0>         0.4910
     22 O3          9.9249   -6.2595    4.6731 O.co2     1 <0>        -0.6996
     23 O4         10.8101   -7.2714    3.0446 O.co2     1 <0>        -0.7196
     24 C17         6.3083   -3.1768    3.1285 C.2       1 <0>         0.4901
     25 O5          5.2310   -3.6441    3.4565 O.co2     1 <0>        -0.7010
     26 O6          6.5948   -2.0320    3.4346 O.co2     1 <0>        -0.6887
     27 H2         -0.9603    1.9042    0.0260 H         1 <0>         0.1187
     28 H3          1.1483    3.1717    0.0077 H         1 <0>         0.1214
     29 H4          3.3023    1.9834   -0.0191 H         1 <0>         0.1271
     30 H5          1.2186   -1.7603   -0.0193 H         1 <0>         0.1290
     31 H6         -0.9264   -0.5558    0.0082 H         1 <0>         0.1223
     32 H7          4.8823    1.1040   -0.0299 H         1 <0>         0.1276
     33 H8          7.0273   -0.1005   -0.0564 H         1 <0>         0.1375
     34 H9          4.9525   -3.8278   -0.0771 H         1 <0>         0.1396
     35 H10         2.7986   -2.6396   -0.0392 H         1 <0>         0.1294
     36 H11         8.8914   -2.7181    1.8450 H         1 <0>         0.4149
     37 H12         8.8083   -4.0616    3.8681 H         1 <0>         0.0622
     38 H13         7.5891   -5.3511    4.0067 H         1 <0>         0.0696
     39 H14         8.4953   -6.4274    1.9649 H         1 <0>         0.0551
     40 H15         9.7145   -5.1380    1.8263 H         1 <0>         0.0538
@<TRIPOS>BOND
     1    1    6 ar
     2    1    2 ar
     3    1   27 1
     4    2    3 ar
     5    2   28 1
     6    3    4 ar
     7    3   29 1
     8    4    5 ar
     9    4    7 1
    10    5    6 ar
    11    5   30 1
    12    6   31 1
    13    7   12 ar
    14    7    8 ar
    15    8    9 ar
    16    8   32 1
    17    9   10 ar
    18    9   33 1
    19   10   11 ar
    20   10   13 1
    21   11   12 ar
    22   11   34 1
    23   12   35 1
    24   13   14 2
    25   13   15 2
    26   13   16 1
    27   16   17 1
    28   16   36 1
    29   17   18 1
    30   17   19 1
    31   17   24 1
    32   19   20 1
    33   19   37 1
    34   19   38 1
    35   20   21 1
    36   20   39 1
    37   20   40 1
    38   21   22 2
    39   21   23 1
    40   24   25 2
    41   24   26 1
@<TRIPOS>MOLECULE
ZINC04501578
   40    41     0     0     0
SMALL
USER_CHARGES

@<TRIPOS>ATOM
      1 C1         -0.0167    1.3790    0.0096 C.ar      1 <0>        -0.1219
      2 C2          1.1687    2.0919    0.0021 C.ar      1 <0>        -0.1206
      3 C3          2.3774    1.4258   -0.0129 C.ar      1 <0>        -0.1048
      4 C4          2.4022    0.0327   -0.0206 C.ar      1 <0>        -0.0434
      5 C5          1.2051   -0.6804   -0.0130 C.ar      1 <0>        -0.1054
      6 C6          0.0021   -0.0041    0.0020 C.ar      1 <0>        -0.1206
      7 C7          3.6987   -0.6889   -0.0373 C.ar      1 <0>        -0.0051
      8 C8          4.8958    0.0241   -0.0395 C.ar      1 <0>        -0.1311
      9 C9          6.0988   -0.6522   -0.0546 C.ar      1 <0>        -0.0131
     10 C10         6.1176   -2.0352   -0.0680 C.ar      1 <0>        -0.6667
     11 C11         4.9322   -2.7481   -0.0663 C.ar      1 <0>        -0.0146
     12 C12         3.7235   -2.0821   -0.0450 C.ar      1 <0>        -0.1311
     13 S1          7.6571   -2.8920   -0.0877 S.o2      1 <0>         2.6919
     14 O1          7.4021   -4.1724   -0.6489 O.2       1 <0>        -0.9502
     15 O2          8.6134   -1.9962   -0.6373 O.2       1 <0>        -0.9824
     16 N1          8.0968   -3.1452    1.4886 N.pl3     1 <0>        -1.0740
     17 C13         7.2857   -4.0143    2.3448 C.3       1 <0>         0.0854
     18 H1          6.2629   -4.0423    1.9691 H         1 <0>         0.0670
     19 C14         7.2892   -3.4690    3.7743 C.3       1 <0>        -0.0792
     20 C15         6.5915   -2.1077    3.8026 C.3       1 <0>        -0.1761
     21 C16         6.5949   -1.5706    5.2106 C.2       1 <0>         0.4909
     22 O3          7.1079   -2.2167    6.1083 O.co2     1 <0>        -0.6974
     23 O4          6.0847   -0.4899    5.4521 O.co2     1 <0>        -0.7201
     24 C17         7.8621   -5.4068    2.3369 C.2       1 <0>         0.4950
     25 O5          8.9520   -5.6125    1.8308 O.co2     1 <0>        -0.6882
     26 O6          7.2384   -6.3275    2.8366 O.co2     1 <0>        -0.7015
     27 H2         -0.9603    1.9042    0.0260 H         1 <0>         0.1196
     28 H3          1.1483    3.1717    0.0077 H         1 <0>         0.1227
     29 H4          3.3023    1.9834   -0.0191 H         1 <0>         0.1281
     30 H5          1.2186   -1.7603   -0.0193 H         1 <0>         0.1285
     31 H6         -0.9264   -0.5558    0.0082 H         1 <0>         0.1228
     32 H7          4.8823    1.1040   -0.0299 H         1 <0>         0.1309
     33 H8          7.0273   -0.1005   -0.0564 H         1 <0>         0.1406
     34 H9          4.9525   -3.8278   -0.0771 H         1 <0>         0.1440
     35 H10         2.7986   -2.6396   -0.0392 H         1 <0>         0.1317
     36 H11         8.8914   -2.7181    1.8450 H         1 <0>         0.4135
     37 H12         6.7605   -4.1620    4.4288 H         1 <0>         0.0743
     38 H13         8.3176   -3.3574    4.1181 H         1 <0>         0.0604
     39 H14         7.1202   -1.4148    3.1481 H         1 <0>         0.0517
     40 H15         5.5631   -2.2193    3.4588 H         1 <0>         0.0486
@<TRIPOS>BOND
     1    1    6 ar
     2    1    2 ar
     3    1   27 1
     4    2    3 ar
     5    2   28 1
     6    3    4 ar
     7    3   29 1
     8    4    5 ar
     9    4    7 1
    10    5    6 ar
    11    5   30 1
    12    6   31 1
    13    7   12 ar
    14    7    8 ar
    15    8    9 ar
    16    8   32 1
    17    9   10 ar
    18    9   33 1
    19   10   11 ar
    20   10   13 1
    21   11   12 ar
    22   11   34 1
    23   12   35 1
    24   13   14 2
    25   13   15 2
    26   13   16 1
    27   16   17 1
    28   16   36 1
    29   17   18 1
    30   17   19 1
    31   17   24 1
    32   19   20 1
    33   19   37 1
    34   19   38 1
    35   20   21 1
    36   20   39 1
    37   20   40 1
    38   21   22 2
    39   21   23 1
    40   24   25 2
    41   24   26 1
@<TRIPOS>MOLECULE
ZINC00803047
   42    44     0     0     0
SMALL
USER_CHARGES

@<TRIPOS>ATOM
      1 C1         -0.0225    1.8097    0.0120 C.3       1 <0>        -0.6675
      2 S1          0.0021   -0.0041    0.0020 S.o2      1 <0>         2.6076
      3 O1          0.8352   -0.4880    1.0465 O.2       1 <0>        -0.9345
      4 O2         -1.3147   -0.5105   -0.1678 O.2       1 <0>        -0.9368
      5 N1          0.7947   -0.4113   -1.3938 N.pl3     1 <0>        -0.9363
      6 C2          0.1499   -0.6225   -2.6922 C.3       1 <0>         0.1100
      7 C3          1.2932   -0.9753   -3.6577 C.3       1 <0>        -0.0811
      8 C4          2.5382   -0.9344   -2.7992 C.ar      1 <0>        -0.1459
      9 C5          2.1676   -0.5958   -1.5031 C.ar      1 <0>         0.2017
     10 C6          3.1542   -0.4886   -0.5152 C.ar      1 <0>        -0.1699
     11 C7          4.4738   -0.7119   -0.8246 C.ar      1 <0>        -0.0197
     12 C8          4.8370   -1.0484   -2.1325 C.ar      1 <0>        -0.1568
     13 C9          3.8481   -1.1625   -3.1143 C.ar      1 <0>        -0.0056
     14 C10         6.2510   -1.2889   -2.4716 C.2       1 <0>         0.5169
     15 O3          6.5616   -1.5810   -3.6095 O.2       1 <0>        -0.5053
     16 O4          7.1993   -1.1848   -1.5199 O.3       1 <0>        -0.3306
     17 C11         8.5490   -1.4314   -1.9192 C.3       1 <0>         0.0217
     18 C12         9.4619   -1.2701   -0.7310 C.2       1 <0>         0.3985
     19 O5          9.0020   -0.9732    0.3509 O.2       1 <0>        -0.4245
     20 C13        10.9115   -1.4728   -0.8839 C.ar      1 <0>        -0.1681
     21 C14        11.4464   -1.8096   -2.1314 C.ar      1 <0>        -0.0753
     22 C15        12.8057   -1.9974   -2.2666 C.ar      1 <0>        -0.1303
     23 C16        13.6401   -1.8534   -1.1719 C.ar      1 <0>        -0.0837
     24 C17        13.1184   -1.5207    0.0661 C.ar      1 <0>        -0.1305
     25 C18        11.7619   -1.3240    0.2163 C.ar      1 <0>        -0.0566
     26 H1          1.0001    2.1870    0.0043 H         1 <0>         0.1329
     27 H2         -0.5497    2.1708   -0.8711 H         1 <0>         0.1318
     28 H3         -0.5327    2.1613    0.9088 H         1 <0>         0.1376
     29 H4         -0.5614   -1.4462   -2.6315 H         1 <0>         0.0957
     30 H5         -0.3522    0.2886   -3.0176 H         1 <0>         0.0874
     31 H6          1.1483   -1.9736   -4.0707 H         1 <0>         0.0966
     32 H7          1.3577   -0.2372   -4.4572 H         1 <0>         0.0960
     33 H8          2.8762   -0.2285    0.4955 H         1 <0>         0.1542
     34 H9          5.2303   -0.6273   -0.0584 H         1 <0>         0.1503
     35 H10         4.1215   -1.4208   -4.1267 H         1 <0>         0.1426
     36 H11         8.6335   -2.4466   -2.3070 H         1 <0>         0.1067
     37 H12         8.8339   -0.7211   -2.6953 H         1 <0>         0.1065
     38 H13        10.7965   -1.9226   -2.9865 H         1 <0>         0.1330
     39 H14        13.2203   -2.2579   -3.2293 H         1 <0>         0.1324
     40 H15        14.7040   -2.0019   -1.2841 H         1 <0>         0.1301
     41 H16        13.7759   -1.4105    0.9158 H         1 <0>         0.1324
     42 H17        11.3567   -1.0600    1.1820 H         1 <0>         0.1364
@<TRIPOS>BOND
     1    1    2 1
     2    1   26 1
     3    1   27 1
     4    1   28 1
     5    2    3 2
     6    2    4 2
     7    2    5 1
     8    5    9 1
     9    5    6 1
    10    6    7 1
    11    6   29 1
    12    6   30 1
    13    7    8 1
    14    7   31 1
    15    7   32 1
    16    8   13 ar
    17    8    9 ar
    18    9   10 ar
    19   10   11 ar
    20   10   33 1
    21   11   12 ar
    22   11   34 1
    23   12   13 ar
    24   12   14 1
    25   13   35 1
    26   14   15 2
    27   14   16 1
    28   16   17 1
    29   17   18 1
    30   17   36 1
    31   17   37 1
    32   18   19 2
    33   18   20 1
    34   20   25 ar
    35   20   21 ar
    36   21   22 ar
    37   21   38 1
    38   22   23 ar
    39   22   39 1
    40   23   24 ar
    41   23   40 1
    42   24   25 ar
    43   24   41 1
    44   25   42 1
@<TRIPOS>MOLECULE
ZINC18119348
   44    46     0     0     0
SMALL
USER_CHARGES

@<TRIPOS>ATOM
      1 C1          0.0543    1.3215   -0.0058 C.ar      1 <0>        -0.1678
      2 C2          1.2677    1.9830   -0.0152 C.ar      1 <0>         0.1029
      3 N1          2.4023    1.3111   -0.0220 N.ar      1 <0>        -0.4854
      4 C3          2.4274   -0.0074   -0.0198 C.ar      1 <0>         0.1028
      5 C4          1.2535   -0.7368   -0.0101 C.ar      1 <0>        -0.1681
      6 C5          0.0407   -0.0650   -0.0031 C.ar      1 <0>        -0.0387
      7 C6         -1.2614   -0.8236    0.0076 C.3       1 <0>        -0.0940
      8 C7         -1.7123   -1.0830   -1.4312 C.3       1 <0>        -0.1005
      9 C8         -3.0343   -1.8533   -1.4203 C.3       1 <0>        -0.1096
     10 C9         -4.0655   -1.0108   -0.6937 C.2       1 <0>         0.5423
     11 N2         -4.6597   -1.5507    0.3916 N.am      1 <0>        -0.6677
     12 C10        -4.3615   -2.7813    0.8238 C.2       1 <0>         0.7163
     13 N3         -3.4683   -3.5959    0.2505 N.am      1 <0>        -0.6676
     14 C11        -2.7718   -3.2333   -0.8476 C.2       1 <0>         0.5425
     15 O1         -1.9661   -3.9825   -1.3568 O.2       1 <0>        -0.4528
     16 O2         -4.9440   -3.1886    1.8090 O.2       1 <0>        -0.5208
     17 O3         -4.3453    0.1061   -1.0732 O.2       1 <0>        -0.4572
     18 C12        -3.4942   -2.0235   -2.8696 C.3       1 <0>        -0.0681
     19 C13        -4.7288   -2.9262   -2.9102 C.3       1 <0>        -0.1267
     20 C14        -5.1888   -3.0964   -4.3595 C.3       1 <0>        -0.1149
     21 C15        -4.0648   -3.7324   -5.1799 C.3       1 <0>        -0.1226
     22 C16        -2.8302   -2.8296   -5.1393 C.3       1 <0>        -0.1181
     23 C17        -2.3702   -2.6595   -3.6901 C.3       1 <0>        -0.1306
     24 H1         -0.8716    1.8774    0.0040 H         1 <0>         0.1357
     25 H2          1.2868    3.0629   -0.0173 H         1 <0>         0.1577
     26 H3          3.3762   -0.5232   -0.0260 H         1 <0>         0.1577
     27 H4          1.2806   -1.8164   -0.0083 H         1 <0>         0.1354
     28 H5         -1.1236   -1.7746    0.5222 H         1 <0>         0.0767
     29 H6         -2.0197   -0.2366    0.5258 H         1 <0>         0.0771
     30 H7         -1.8501   -0.1321   -1.9458 H         1 <0>         0.1008
     31 H8         -0.9540   -1.6701   -1.9494 H         1 <0>         0.1052
     32 H9         -5.3224   -1.0308    0.8726 H         1 <0>         0.4367
     33 H10        -3.3168   -4.4733    0.6353 H         1 <0>         0.4365
     34 H11        -3.7430   -1.0485   -3.2887 H         1 <0>         0.1033
     35 H12        -4.4800   -3.9012   -2.4911 H         1 <0>         0.0636
     36 H13        -5.5296   -2.4731   -2.3257 H         1 <0>         0.0602
     37 H14        -6.0684   -3.7395   -4.3884 H         1 <0>         0.0668
     38 H15        -5.4376   -2.1214   -4.7786 H         1 <0>         0.0671
     39 H16        -3.8160   -4.7073   -4.7608 H         1 <0>         0.0631
     40 H17        -4.3925   -3.8536   -6.2124 H         1 <0>         0.0653
     41 H18        -2.0294   -3.2827   -5.7238 H         1 <0>         0.0676
     42 H19        -3.0790   -1.8547   -5.5584 H         1 <0>         0.0631
     43 H20        -1.4906   -2.0163   -3.6611 H         1 <0>         0.0718
     44 H21        -2.1214   -3.6344   -3.2710 H         1 <0>         0.0929
@<TRIPOS>BOND
     1    1    6 ar
     2    1    2 ar
     3    1   24 1
     4    2    3 ar
     5    2   25 1
     6    3    4 ar
     7    4    5 ar
     8    4   26 1
     9    5    6 ar
    10    5   27 1
    11    6    7 1
    12    7    8 1
    13    7   28 1
    14    7   29 1
    15    8   30 1
    16    8   31 1
    17    8    9 1
    18    9   10 1
    19    9   18 1
    20    9   14 1
    21   10   17 2
    22   10   11 am
    23   11   12 am
    24   11   32 1
    25   12   13 am
    26   12   16 2
    27   13   14 am
    28   13   33 1
    29   14   15 2
    30   18   23 1
    31   18   19 1
    32   18   34 1
    33   19   20 1
    34   19   35 1
    35   19   36 1
    36   20   21 1
    37   20   37 1
    38   20   38 1
    39   21   22 1
    40   21   39 1
    41   21   40 1
    42   22   23 1
    43   22   41 1
    44   22   42 1
    45   23   43 1
    46   23   44 1
@<TRIPOS>MOLECULE
ZINC18119348
   45    47     0     0     0
SMALL
USER_CHARGES

@<TRIPOS>ATOM
      1 C1          0.0543    1.3215   -0.0058 C.ar      1 <0>        -0.1251
      2 C2          1.2677    1.9830   -0.0152 C.ar      1 <0>         0.1385
      3 N1          2.4023    1.3111   -0.0220 N.ar      1 <0>        -0.4465
      4 C3          2.4274   -0.0074   -0.0202 C.ar      1 <0>         0.1384
      5 C4          1.2535   -0.7368   -0.0105 C.ar      1 <0>        -0.1255
      6 C5          0.0407   -0.0650   -0.0031 C.ar      1 <0>         0.0487
      7 C6         -1.2614   -0.8236    0.0076 C.3       1 <0>        -0.1211
      8 C7         -1.7123   -1.0830   -1.4312 C.3       1 <0>        -0.1032
      9 C8         -3.0343   -1.8533   -1.4203 C.3       1 <0>        -0.1091
     10 C9         -4.0655   -1.0108   -0.6937 C.2       1 <0>         0.5389
     11 N2         -4.6597   -1.5507    0.3916 N.am      1 <0>        -0.6671
     12 C10        -4.3615   -2.7813    0.8238 C.2       1 <0>         0.7117
     13 N3         -3.4683   -3.5959    0.2505 N.am      1 <0>        -0.6670
     14 C11        -2.7718   -3.2333   -0.8476 C.2       1 <0>         0.5389
     15 O1         -1.9661   -3.9825   -1.3568 O.2       1 <0>        -0.4509
     16 O2         -4.9440   -3.1886    1.8090 O.2       1 <0>        -0.5091
     17 O3         -4.3453    0.1061   -1.0732 O.2       1 <0>        -0.4558
     18 C12        -3.4942   -2.0235   -2.8696 C.3       1 <0>        -0.0698
     19 C13        -4.7288   -2.9262   -2.9102 C.3       1 <0>        -0.1275
     20 C14        -5.1888   -3.0964   -4.3595 C.3       1 <0>        -0.1164
     21 C15        -4.0648   -3.7324   -5.1799 C.3       1 <0>        -0.1245
     22 C16        -2.8302   -2.8296   -5.1393 C.3       1 <0>        -0.1190
     23 C17        -2.3702   -2.6595   -3.6901 C.3       1 <0>        -0.1285
     24 H1         -0.8716    1.8774    0.0040 H         1 <0>         0.1869
     25 H2          1.2868    3.0629   -0.0173 H         1 <0>         0.2129
     26 H3          3.3762   -0.5232   -0.0268 H         1 <0>         0.2128
     27 H4          1.2806   -1.8164   -0.0091 H         1 <0>         0.1866
     28 H5         -1.1236   -1.7746    0.5222 H         1 <0>         0.1008
     29 H6         -2.0197   -0.2366    0.5258 H         1 <0>         0.1011
     30 H7         -1.8501   -0.1321   -1.9458 H         1 <0>         0.1073
     31 H8         -0.9540   -1.6701   -1.9494 H         1 <0>         0.1113
     32 H9         -5.3224   -1.0308    0.8726 H         1 <0>         0.4399
     33 H10        -3.3168   -4.4733    0.6353 H         1 <0>         0.4398
     34 H11        -3.7430   -1.0485   -3.2887 H         1 <0>         0.1055
     35 H12        -4.4800   -3.9012   -2.4911 H         1 <0>         0.0648
     36 H13        -5.5296   -2.4731   -2.3257 H         1 <0>         0.0618
     37 H14        -6.0684   -3.7395   -4.3884 H         1 <0>         0.0703
     38 H15        -5.4376   -2.1214   -4.7786 H         1 <0>         0.0683
     39 H16        -3.8160   -4.7073   -4.7608 H         1 <0>         0.0644
     40 H17        -4.3925   -3.8536   -6.2124 H         1 <0>         0.0686
     41 H18        -2.0294   -3.2827   -5.7238 H         1 <0>         0.0691
     42 H19        -3.0790   -1.8547   -5.5584 H         1 <0>         0.0639
     43 H20        -1.4906   -2.0163   -3.6611 H         1 <0>         0.0668
     44 H21        -2.1214   -3.6344   -3.2710 H         1 <0>         0.0939
     45 H22         3.2404    1.7994   -0.0289 H         1 <0>         0.4539
@<TRIPOS>BOND
     1    1    6 ar
     2    1    2 ar
     3    1   24 1
     4    2    3 ar
     5    2   25 1
     6    3    4 ar
     7    3   45 1
     8    4    5 ar
     9    4   26 1
    10    5    6 ar
    11    5   27 1
    12    6    7 1
    13    7    8 1
    14    7   28 1
    15    7   29 1
    16    8   30 1
    17    8   31 1
    18    8    9 1
    19    9   10 1
    20    9   18 1
    21    9   14 1
    22   10   17 2
    23   10   11 am
    24   11   12 am
    25   11   32 1
    26   12   13 am
    27   12   16 2
    28   13   14 am
    29   13   33 1
    30   14   15 2
    31   18   23 1
    32   18   19 1
    33   18   34 1
    34   19   20 1
    35   19   35 1
    36   19   36 1
    37   20   21 1
    38   20   37 1
    39   20   38 1
    40   21   22 1
    41   21   39 1
    42   21   40 1
    43   22   23 1
    44   22   41 1
    45   22   42 1
    46   23   43 1
    47   23   44 1
@<TRIPOS>MOLECULE
ZINC03815953
   51    54     0     0     0
SMALL
USER_CHARGES
4-[[1-methyl-2,4-dioxo-6-(3-phenylprop-1-ynyl)quinazolin-3-yl]methyl]benzoic acid
@<TRIPOS>ATOM
      1 C1         -3.7602    0.5144    3.8987 C.3       1 <0>         0.0812
      2 N1         -2.9356    1.5617    3.2910 N.am      1 <0>        -0.5431
      3 C2         -2.6012    2.6871    4.0297 C.ar      1 <0>         0.2128
      4 C3         -3.0312    2.8465    5.3399 C.ar      1 <0>        -0.1669
      5 C4         -2.6819    3.9764    6.0459 C.ar      1 <0>        -0.0244
      6 C5         -1.8945    4.9693    5.4528 C.ar      1 <0>        -0.0216
      7 C6         -1.4563    4.8214    4.1393 C.ar      1 <0>         0.0117
      8 C7         -1.8088    3.6807    3.4264 C.ar      1 <0>        -0.1925
      9 C8         -1.3723    3.4741    2.0333 C.2       1 <0>         0.5647
     10 O1         -0.6859    4.3017    1.4655 O.2       1 <0>        -0.4838
     11 N2         -1.7541    2.3414    1.4043 N.am      1 <0>        -0.5493
     12 C9         -2.5158    1.4250    2.0217 C.2       1 <0>         0.7028
     13 O2         -2.8358    0.4256    1.4078 O.2       1 <0>        -0.5309
     14 C10        -1.3338    2.1117    0.0198 C.3       1 <0>         0.1584
     15 C11        -0.0167    1.3795    0.0096 C.ar      1 <0>        -0.1334
     16 C12         1.1683    2.0938    0.0021 C.ar      1 <0>        -0.1115
     17 C13         2.3774    1.4300   -0.0129 C.ar      1 <0>        -0.0849
     18 C14         2.4037    0.0340   -0.0207 C.ar      1 <0>        -0.1002
     19 C15         1.2041   -0.6806   -0.0131 C.ar      1 <0>        -0.0946
     20 C16         0.0021   -0.0041    0.0020 C.ar      1 <0>        -0.1091
     21 C17         3.6948   -0.6838   -0.0363 C.2       1 <0>         0.4874
     22 O3          3.7145   -1.8983   -0.0426 O.co2     1 <0>        -0.6304
     23 C18        -1.5384    6.1393    6.1977 C.1       1 <0>        -0.1345
     24 C19        -1.2464    7.0985    6.8084 C.1       1 <0>        -0.1480
     25 C20        -0.8803    8.3012    7.5741 C.3       1 <0>         0.0330
     26 C21        -1.4750    8.2171    8.9563 C.ar      1 <0>        -0.0833
     27 C22        -2.7338    8.7338    9.1997 C.ar      1 <0>        -0.1107
     28 C23        -3.2813    8.6523   10.4664 C.ar      1 <0>        -0.1200
     29 C24        -2.5658    8.0630   11.4920 C.ar      1 <0>        -0.1209
     30 C25        -1.3047    7.5514   11.2498 C.ar      1 <0>        -0.1190
     31 C26        -0.7594    7.6282    9.9819 C.ar      1 <0>        -0.1098
     32 H1         -4.8130    0.7274    3.7131 H         1 <0>         0.0744
     33 H2         -3.5023   -0.4504    3.4619 H         1 <0>         0.0975
     34 H3         -3.5790    0.4869    4.9732 H         1 <0>         0.0878
     35 H4         -3.6393    2.0850    5.8054 H         1 <0>         0.1463
     36 H5         -3.0181    4.0967    7.0652 H         1 <0>         0.1396
     37 H6         -0.8484    5.5858    3.6783 H         1 <0>         0.1495
     38 H7         -1.2214    3.0688   -0.4894 H         1 <0>         0.1052
     39 H8         -2.0862    1.5131   -0.4937 H         1 <0>         0.1059
     40 H9          1.1465    3.1736    0.0081 H         1 <0>         0.1220
     41 H10         3.3016    1.9887   -0.0184 H         1 <0>         0.1313
     42 H11         1.2174   -1.7605   -0.0186 H         1 <0>         0.1271
     43 H12        -0.9265   -0.5555    0.0083 H         1 <0>         0.1226
     44 H13         0.2051    8.3678    7.6490 H         1 <0>         0.1007
     45 H14        -1.2645    9.1860    7.0665 H         1 <0>         0.0998
     46 H15        -3.2911    9.1979    8.3994 H         1 <0>         0.1231
     47 H16        -4.2664    9.0524   10.6557 H         1 <0>         0.1224
     48 H17        -2.9920    8.0027   12.4825 H         1 <0>         0.1214
     49 H18        -0.7456    7.0913   12.0512 H         1 <0>         0.1231
     50 H19         0.2259    7.2284    9.7927 H         1 <0>         0.1241
     51 O4          4.8503    0.0087   -0.0436 O.co2     1 <0>        -0.7530
@<TRIPOS>BOND
     1    1    2 1
     2    1   32 1
     3    1   33 1
     4    1   34 1
     5    2   12 am
     6    2    3 1
     7    3    8 ar
     8    3    4 ar
     9    4    5 ar
    10    4   35 1
    11    5    6 ar
    12    5   36 1
    13    6    7 ar
    14    6   23 1
    15    7    8 ar
    16    7   37 1
    17    8    9 1
    18    9   10 2
    19    9   11 am
    20   11   12 am
    21   11   14 1
    22   12   13 2
    23   14   15 1
    24   14   38 1
    25   14   39 1
    26   15   20 ar
    27   15   16 ar
    28   16   17 ar
    29   16   40 1
    30   17   18 ar
    31   17   41 1
    32   18   19 ar
    33   18   21 1
    34   19   20 ar
    35   19   42 1
    36   20   43 1
    37   21   22 2
    38   21   51 1
    39   23   24 3
    40   24   25 1
    41   25   26 1
    42   25   44 1
    43   25   45 1
    44   26   31 ar
    45   26   27 ar
    46   27   28 ar
    47   27   46 1
    48   28   29 ar
    49   28   47 1
    50   29   30 ar
    51   29   48 1
    52   30   31 ar
    53   30   49 1
    54   31   50 1
@<TRIPOS>MOLECULE
ZINC08670459
   32    33     0     0     0
SMALL
USER_CHARGES

@<TRIPOS>ATOM
      1 C1         -0.0127    1.0858    0.0080 C.3       1 <0>        -0.1087
      2 C2         -0.7416    1.5850   -1.2129 C.2       1 <0>         0.1933
      3 C3         -2.0898    1.7936   -1.1636 C.2       1 <0>        -0.3006
      4 C4         -2.7482    2.2596   -2.3151 C.2       1 <0>         0.5294
      5 N1         -2.0227    2.4849   -3.4313 N.am      1 <0>        -0.6164
      6 C5         -0.6797    2.2590   -3.4216 C.2       1 <0>         0.3722
      7 N2         -0.0690    1.8269   -2.3351 N.2       1 <0>        -0.5449
      8 S1          0.2590    2.5553   -4.8830 S.3       1 <0>        -0.0073
      9 C6          1.9566    2.1267   -4.4086 C.3       1 <0>        -0.0434
     10 C7          2.8753    2.3379   -5.5844 C.ar      1 <0>        -0.1295
     11 C8          3.1039    1.3060   -6.4758 C.ar      1 <0>        -0.0544
     12 C9          3.9459    1.4969   -7.5541 C.ar      1 <0>        -0.1521
     13 C10         4.5620    2.7256   -7.7426 C.ar      1 <0>         0.1422
     14 C11         4.3306    3.7596   -6.8471 C.ar      1 <0>        -0.2094
     15 C12         3.4836    3.5651   -5.7732 C.ar      1 <0>        -0.0532
     16 O1          5.3912    2.9158   -8.8024 O.3       1 <0>        -0.3149
     17 C13         5.9908    4.2062   -8.9336 C.3       1 <0>         0.0249
     18 O2         -3.9523    2.4562   -2.3060 O.2       1 <0>        -0.5350
     19 H1          0.0021   -0.0041    0.0020 H         1 <0>         0.0883
     20 H2          1.0099    1.4631    0.0003 H         1 <0>         0.0828
     21 H3         -0.5229    1.4373    0.9048 H         1 <0>         0.0839
     22 H4         -2.6417    1.6033   -0.2550 H         1 <0>         0.1573
     23 H5          2.2738    2.7613   -3.5811 H         1 <0>         0.1101
     24 H6          1.9950    1.0818   -4.1007 H         1 <0>         0.1109
     25 H7          2.6240    0.3497   -6.3286 H         1 <0>         0.1352
     26 H8          4.1248    0.6903   -8.2497 H         1 <0>         0.1363
     27 H9          4.8091    4.7169   -6.9916 H         1 <0>         0.1331
     28 H10         3.2997    4.3711   -5.0782 H         1 <0>         0.1306
     29 H11         5.2106    4.9610   -9.0329 H         1 <0>         0.0579
     30 H12         6.5918    4.4192   -8.0496 H         1 <0>         0.0579
     31 H13         6.6272    4.2229   -9.8183 H         1 <0>         0.1031
     32 H14        -2.4565    2.8063   -4.2372 H         1 <0>         0.4207
@<TRIPOS>BOND
     1    1   19 1
     2    1   20 1
     3    1   21 1
     4    1    2 1
     5    2    3 2
     6    2    7 1
     7    3    4 1
     8    3   22 1
     9    4    5 am
    10    4   18 2
    11    5    6 1
    12    5   32 1
    13    6    8 1
    14    6    7 2
    15    8    9 1
    16    9   10 1
    17    9   23 1
    18    9   24 1
    19   10   15 ar
    20   10   11 ar
    21   11   12 ar
    22   11   25 1
    23   12   13 ar
    24   12   26 1
    25   13   14 ar
    26   13   16 1
    27   14   15 ar
    28   14   27 1
    29   15   28 1
    30   16   17 1
    31   17   29 1
    32   17   30 1
    33   17   31 1
@<TRIPOS>MOLECULE
ZINC08670452
   38    41     0     0     0
SMALL
USER_CHARGES

@<TRIPOS>ATOM
      1 C1         -0.0173    1.4248    0.0099 C.3       1 <0>         0.0327
      2 O1          0.0021   -0.0041    0.0020 O.3       1 <0>        -0.3414
      3 C2          0.6013   -0.6027   -1.0479 C.2       1 <0>         0.5506
      4 O2          1.0939    0.0714   -1.9324 O.2       1 <0>        -0.4781
      5 C3          0.6589   -2.0643   -1.1227 C.2       1 <0>        -0.0457
      6 C4          1.2372   -2.7952   -2.1219 C.2       1 <0>        -0.1026
      7 C5          1.0607   -4.1463   -1.7873 C.2       1 <0>        -0.1801
      8 C6          0.3910   -4.1815   -0.6137 C.2       1 <0>         0.0264
      9 O3          0.1552   -2.9253   -0.2140 O.3       1 <0>        -0.1398
     10 C7         -0.0186   -5.4291    0.1258 C.3       1 <0>        -0.0239
     11 S1          1.3022   -5.9147    1.2704 S.3       1 <0>         0.0269
     12 C8          0.6796   -7.3683    2.0477 C.2       1 <0>         0.4136
     13 N1         -0.5084   -7.8221    1.7078 N.2       1 <0>        -0.5858
     14 C9         -1.0395   -8.9180    2.2578 C.2       1 <0>         0.5438
     15 C10        -0.2746   -9.6575    3.2875 C.2       1 <0>        -0.2338
     16 C11        -0.6363  -10.8647    4.0235 C.2       1 <0>         0.0281
     17 C12         0.2423  -11.3622    4.9292 C.2       1 <0>        -0.1655
     18 S2          1.6113  -10.2238    4.8376 S.3       1 <0>         0.1569
     19 C13         0.9761   -9.1238    3.6013 C.2       1 <0>         0.0838
     20 N2          1.4406   -8.0020    2.9842 N.pl3     1 <0>        -0.5618
     21 C14        -1.9340  -11.5313    3.7871 C.2       1 <0>        -0.1129
     22 C15        -2.1925  -12.8528    3.5382 C.2       1 <0>        -0.1413
     23 C16        -3.5001  -13.2471    3.3471 C.2       1 <0>        -0.1634
     24 C17        -4.4868  -12.3182    3.4110 C.2       1 <0>        -0.1863
     25 S3         -3.5733  -10.8246    3.7594 S.3       1 <0>         0.1207
     26 O4         -2.1455   -9.3058    1.9146 O.2       1 <0>        -0.4641
     27 H1          1.0053    1.8021    0.0021 H         1 <0>         0.0661
     28 H2         -0.5445    1.7859   -0.8732 H         1 <0>         0.0662
     29 H3         -0.5275    1.7763    0.9067 H         1 <0>         0.1088
     30 H4          1.7339   -2.4079   -2.9992 H         1 <0>         0.1724
     31 H5          1.3964   -4.9981   -2.3600 H         1 <0>         0.1707
     32 H6         -0.9327   -5.2352    0.6870 H         1 <0>         0.1303
     33 H7         -0.1945   -6.2335   -0.5884 H         1 <0>         0.1426
     34 H8          0.1377  -12.2364    5.5548 H         1 <0>         0.2054
     35 H9         -1.3882  -13.5720    3.4922 H         1 <0>         0.1317
     36 H10        -3.7357  -14.2823    3.1486 H         1 <0>         0.1330
     37 H11        -5.5517  -12.4494    3.2876 H         1 <0>         0.1847
     38 H12         2.3147   -7.6505    3.2150 H         1 <0>         0.4311
@<TRIPOS>BOND
     1    1    2 1
     2    1   27 1
     3    1   28 1
     4    1   29 1
     5    2    3 1
     6    3    4 2
     7    3    5 1
     8    5    9 1
     9    5    6 2
    10    6    7 1
    11    6   30 1
    12    7    8 2
    13    7   31 1
    14    8    9 1
    15    8   10 1
    16   10   11 1
    17   10   32 1
    18   10   33 1
    19   11   12 1
    20   12   20 1
    21   12   13 2
    22   13   14 1
    23   14   15 1
    24   14   26 2
    25   15   19 2
    26   15   16 1
    27   16   17 2
    28   16   21 1
    29   17   18 1
    30   17   34 1
    31   18   19 1
    32   19   20 1
    33   20   38 1
    34   21   25 1
    35   21   22 2
    36   22   23 1
    37   22   35 1
    38   23   24 2
    39   23   36 1
    40   24   25 1
    41   24   37 1
@<TRIPOS>MOLECULE
ZINC13111963
   30    32     0     0     0
SMALL
USER_CHARGES

@<TRIPOS>ATOM
      1 C1         -0.0163    1.3543    0.0095 C.2       1 <0>        -0.1553
      2 C2          1.1741    2.0439    0.0018 C.2       1 <0>        -0.1346
      3 C3          2.3532    1.3202   -0.0133 C.2       1 <0>        -0.0899
      4 S1          1.7510   -0.3606   -0.0166 S.3       1 <0>         0.0905
      5 C4          0.0021   -0.0041    0.0020 C.2       1 <0>        -0.1684
      6 C5          3.7393    1.8077   -0.0243 C.2       1 <0>        -0.0691
      7 C6          4.9206    1.0773   -0.0452 C.2       1 <0>        -0.1570
      8 C7          6.1082    1.7506   -0.0529 C.2       1 <0>        -0.0941
      9 C8          6.0867    3.1412   -0.0394 C.2       1 <0>        -0.1676
     10 S2          4.3360    3.4902   -0.0222 S.3       1 <0>         0.1798
     11 C9          7.1732    4.0467   -0.0433 C.2       1 <0>         0.2378
     12 N1          6.9502    5.3371   -0.0285 N.2       1 <0>        -0.4790
     13 C10         8.0004    6.2124   -0.0322 C.ar      1 <0>         0.0746
     14 C11         9.0986    5.9932    0.8040 C.ar      1 <0>        -0.1325
     15 C12        10.1553    6.8783    0.7963 C.ar      1 <0>        -0.1292
     16 C13        10.1298    7.9862   -0.0405 C.ar      1 <0>         0.1004
     17 C14         9.0409    8.2082   -0.8731 C.ar      1 <0>        -0.1309
     18 C15         7.9818    7.3260   -0.8764 C.ar      1 <0>        -0.0848
     19 O1         11.1739    8.8564   -0.0442 O.3       1 <0>        -0.4978
     20 H1         -0.9556    1.8872    0.0258 H         1 <0>         0.1406
     21 H2          1.1879    3.1238    0.0071 H         1 <0>         0.1377
     22 H3         -0.8297   -0.6929    0.0063 H         1 <0>         0.1914
     23 H4          4.9000   -0.0025   -0.0549 H         1 <0>         0.1412
     24 H5          7.0455    1.2143   -0.0687 H         1 <0>         0.1465
     25 H6          8.1867    3.6740   -0.0585 H         1 <0>         0.1260
     26 H7          9.1191    5.1320    1.4554 H         1 <0>         0.1287
     27 H8         11.0042    6.7100    1.4424 H         1 <0>         0.1329
     28 H9          9.0255    9.0715   -1.5219 H         1 <0>         0.1357
     29 H10         7.1372    7.4973   -1.5273 H         1 <0>         0.1347
     30 H11        11.8669    8.6365   -0.6817 H         1 <0>         0.3919
@<TRIPOS>BOND
     1    1    5 2
     2    1    2 1
     3    1   20 1
     4    2    3 2
     5    2   21 1
     6    3    4 1
     7    3    6 1
     8    4    5 1
     9    5   22 1
    10    6   10 1
    11    6    7 2
    12    7    8 1
    13    7   23 1
    14    8    9 2
    15    8   24 1
    16    9   10 1
    17    9   11 1
    18   11   12 2
    19   11   25 1
    20   12   13 1
    21   13   18 ar
    22   13   14 ar
    23   14   15 ar
    24   14   26 1
    25   15   16 ar
    26   15   27 1
    27   16   17 ar
    28   16   19 1
    29   17   18 ar
    30   17   28 1
    31   18   29 1
    32   19   30 1
@<TRIPOS>MOLECULE
ZINC06744035
   50    53     0     0     0
SMALL
USER_CHARGES
3-phenyl-3-[[4-[4-(4-pyridyl)phenyl]-2-thienyl]carbonylamino]propanoic acid
@<TRIPOS>ATOM
      1 C1          3.3384    8.0117    3.9168 C.ar      1 <0>        -0.1296
      2 C2          2.8712    8.8800    2.9480 C.ar      1 <0>        -0.1204
      3 C3          2.6986    8.4385    1.6494 C.ar      1 <0>        -0.1045
      4 C4          2.9938    7.1289    1.3197 C.ar      1 <0>        -0.0807
      5 C5          3.4561    6.2593    2.2897 C.ar      1 <0>        -0.1082
      6 C6          3.6327    6.7019    3.5873 C.ar      1 <0>        -0.1228
      7 C7          2.8057    6.6476   -0.0960 C.3       1 <0>         0.2043
      8 H1          2.1225    7.3164   -0.6194 H         1 <0>         0.1008
      9 C8          4.1567    6.6348   -0.8140 C.3       1 <0>        -0.1652
     10 C9          3.9508    6.2867   -2.2657 C.2       1 <0>         0.4588
     11 O1          2.8495    5.9919   -2.6659 O.co2     1 <0>        -0.6272
     12 N1          2.2477    5.2932   -0.0812 N.am      1 <0>        -0.6877
     13 C10         0.9140    5.1146   -0.0047 C.2       1 <0>         0.6082
     14 O2          0.1793    6.0733    0.1443 O.2       1 <0>        -0.5294
     15 C11         0.3481    3.7652   -0.1011 C.2       1 <0>        -0.2078
     16 C12        -0.9763    3.3749   -0.0463 C.2       1 <0>        -0.0781
     17 C13        -1.2433    2.0234   -0.1691 C.2       1 <0>        -0.1053
     18 C14        -0.1812    1.1560   -0.3263 C.2       1 <0>        -0.1943
     19 S1          1.1943    2.2106   -0.3178 S.3       1 <0>         0.1755
     20 C15        -2.6371    1.5178   -0.1283 C.ar      1 <0>        -0.0027
     21 C16        -3.6973    2.4086    0.0364 C.ar      1 <0>        -0.1123
     22 C17        -4.9921    1.9398    0.0686 C.ar      1 <0>        -0.0928
     23 C18        -5.2419    0.5729   -0.0520 C.ar      1 <0>        -0.0685
     24 C19        -4.1811   -0.3185   -0.2109 C.ar      1 <0>        -0.0951
     25 C20        -2.8868    0.1511   -0.2489 C.ar      1 <0>        -0.1133
     26 C21        -6.6353    0.0676   -0.0116 C.ar      1 <0>         0.0090
     27 C22        -6.9079   -1.2981   -0.1369 C.ar      1 <0>        -0.1699
     28 C23        -8.2184   -1.7260   -0.0883 C.ar      1 <0>         0.1019
     29 N2         -9.2068   -0.8651    0.0629 N.ar      1 <0>        -0.4919
     30 C24        -8.9933    0.4317    0.1792 C.ar      1 <0>         0.1027
     31 C25        -7.7129    0.9442    0.1469 C.ar      1 <0>        -0.1691
     32 H2          3.4739    8.3568    4.9312 H         1 <0>         0.1163
     33 H3          2.6412    9.9033    3.2055 H         1 <0>         0.1190
     34 H4          2.3336    9.1168    0.8925 H         1 <0>         0.1228
     35 H5          3.6825    5.2349    2.0330 H         1 <0>         0.1164
     36 H6          3.9981    6.0236    4.3442 H         1 <0>         0.1174
     37 H7          4.6178    7.6196   -0.7383 H         1 <0>         0.0837
     38 H8          4.8071    5.8926   -0.3511 H         1 <0>         0.0713
     39 H9          2.8380    4.5248   -0.1265 H         1 <0>         0.3950
     40 H10        -1.7703    4.0957    0.0823 H         1 <0>         0.1490
     41 H11        -0.2024    0.0816   -0.4333 H         1 <0>         0.1905
     42 H12        -3.5035    3.4665    0.1345 H         1 <0>         0.1322
     43 H13        -5.8134    2.6301    0.1917 H         1 <0>         0.1285
     44 H14        -4.3745   -1.3769   -0.3047 H         1 <0>         0.1276
     45 H15        -2.0653   -0.5391   -0.3716 H         1 <0>         0.1282
     46 H16        -6.1040   -2.0078   -0.2655 H         1 <0>         0.1370
     47 H17        -8.4387   -2.7793   -0.1797 H         1 <0>         0.1565
     48 H18        -9.8322    1.1009    0.3010 H         1 <0>         0.1570
     49 H19        -7.5454    2.0068    0.2431 H         1 <0>         0.1379
     50 O3          4.9908    6.3042   -3.1141 O.co2     1 <0>        -0.7712
@<TRIPOS>BOND
     1    1    6 ar
     2    1    2 ar
     3    1   32 1
     4    2    3 ar
     5    2   33 1
     6    3    4 ar
     7    3   34 1
     8    4    5 ar
     9    4    7 1
    10    5    6 ar
    11    5   35 1
    12    6   36 1
    13    7    8 1
    14    7    9 1
    15    7   12 1
    16    9   10 1
    17    9   37 1
    18    9   38 1
    19   10   11 2
    20   10   50 1
    21   12   13 am
    22   12   39 1
    23   13   14 2
    24   13   15 1
    25   15   19 1
    26   15   16 2
    27   16   17 1
    28   16   40 1
    29   17   18 2
    30   17   20 1
    31   18   19 1
    32   18   41 1
    33   20   25 ar
    34   20   21 ar
    35   21   22 ar
    36   21   42 1
    37   22   23 ar
    38   22   43 1
    39   23   24 ar
    40   23   26 1
    41   24   25 ar
    42   24   44 1
    43   25   45 1
    44   26   31 ar
    45   26   27 ar
    46   27   28 ar
    47   27   46 1
    48   28   29 ar
    49   28   47 1
    50   29   30 ar
    51   30   31 ar
    52   30   48 1
    53   31   49 1
@<TRIPOS>MOLECULE
ZINC12504498
   50    52     0     0     0
SMALL
USER_CHARGES
N,N'-bis[(4-fluoro-3-methyl-phenyl)methyl]pyrimidine-4,6-dicarboxamide
@<TRIPOS>ATOM
      1 C1          8.1303    4.0826    2.4500 C.3       1 <0>        -0.1174
      2 C2          7.5654    3.5786    1.1469 C.ar      1 <0>        -0.1189
      3 C3          6.5504    2.6405    1.1502 C.ar      1 <0>        -0.0710
      4 C4          6.0317    2.1784   -0.0448 C.ar      1 <0>        -0.1203
      5 C5          6.5310    2.6501   -1.2448 C.ar      1 <0>        -0.0744
      6 C6          7.5421    3.5919   -1.2505 C.ar      1 <0>        -0.1503
      7 C7          8.0625    4.0555   -0.0539 C.ar      1 <0>         0.1073
      8 F1          9.0543    4.9729   -0.0583 F         1 <0>        -0.1347
      9 C8          4.9254    1.1551   -0.0398 C.3       1 <0>         0.1610
     10 N1          3.6291    1.8375   -0.0233 N.am      1 <0>        -0.7026
     11 C9          2.4891    1.1185   -0.0162 C.2       1 <0>         0.5713
     12 O1          2.5365   -0.0953   -0.0237 O.2       1 <0>        -0.5126
     13 C10         1.1756    1.8100    0.0006 C.ar      1 <0>         0.1353
     14 C11        -0.0126    1.0758    0.0080 C.ar      1 <0>        -0.1109
     15 C12        -1.2203    1.7774    0.0174 C.ar      1 <0>         0.1353
     16 N2         -1.1922    3.1066    0.0298 N.ar      1 <0>        -0.4802
     17 C13        -0.0490    3.7598    0.0228 C.ar      1 <0>         0.2997
     18 N3          1.1115    3.1380    0.0083 N.ar      1 <0>        -0.4801
     19 C14        -2.5146    1.0505    0.0190 C.2       1 <0>         0.5712
     20 O2         -2.5291   -0.1642    0.0120 O.2       1 <0>        -0.5127
     21 N4         -3.6737    1.7381    0.0281 N.am      1 <0>        -0.7025
     22 C15        -4.9510    1.0208    0.0297 C.3       1 <0>         0.1610
     23 C16        -6.0847    2.0136    0.0405 C.ar      1 <0>        -0.1203
     24 C17        -6.6029    2.4574    1.2431 C.ar      1 <0>        -0.0744
     25 C18        -7.6391    3.3714    1.2542 C.ar      1 <0>        -0.1503
     26 C19        -8.1658    3.8348    0.0602 C.ar      1 <0>         0.1073
     27 C20        -7.6497    3.3857   -1.1433 C.ar      1 <0>        -0.1190
     28 C21        -6.6096    2.4754   -1.1519 C.ar      1 <0>        -0.0709
     29 C22        -8.2214    3.8894   -2.4435 C.3       1 <0>        -0.1174
     30 F2         -9.1821    4.7248    0.0699 F         1 <0>        -0.1346
     31 H1          8.9640    3.4494    2.7536 H         1 <0>         0.0767
     32 H2          8.4798    5.1071    2.3224 H         1 <0>         0.0717
     33 H3          7.3557    4.0557    3.2164 H         1 <0>         0.0743
     34 H4          6.1626    2.2680    2.0869 H         1 <0>         0.1355
     35 H5          6.1278    2.2853   -2.1779 H         1 <0>         0.1358
     36 H6          7.9294    3.9630   -2.1879 H         1 <0>         0.1394
     37 H7          5.0162    0.5261    0.8457 H         1 <0>         0.0852
     38 H8          4.9988    0.5363   -0.9341 H         1 <0>         0.0856
     39 H9          3.5913    2.8067   -0.0173 H         1 <0>         0.4147
     40 H10         0.0021   -0.0041    0.0020 H         1 <0>         0.1753
     41 H11        -0.0636    4.8397    0.0288 H         1 <0>         0.2130
     42 H12        -3.6622    2.7081    0.0337 H         1 <0>         0.4147
     43 H13        -5.0202    0.4000   -0.8636 H         1 <0>         0.0852
     44 H14        -5.0123    0.3897    0.9163 H         1 <0>         0.0856
     45 H15        -6.1947    2.0927    2.1741 H         1 <0>         0.1358
     46 H16        -8.0412    3.7208    2.1937 H         1 <0>         0.1394
     47 H17        -6.2070    2.1246   -2.0907 H         1 <0>         0.1355
     48 H18        -9.0360    3.2375   -2.7590 H         1 <0>         0.0767
     49 H19        -8.5992    4.9025   -2.3059 H         1 <0>         0.0717
     50 H20        -7.4424    3.8925   -3.2059 H         1 <0>         0.0743
@<TRIPOS>BOND
     1    1    2 1
     2    1   31 1
     3    1   32 1
     4    1   33 1
     5    2    7 ar
     6    2    3 ar
     7    3    4 ar
     8    3   34 1
     9    4    5 ar
    10    4    9 1
    11    5    6 ar
    12    5   35 1
    13    6    7 ar
    14    6   36 1
    15    7    8 1
    16    9   10 1
    17    9   37 1
    18    9   38 1
    19   10   11 am
    20   10   39 1
    21   11   12 2
    22   11   13 1
    23   13   18 ar
    24   13   14 ar
    25   14   15 ar
    26   14   40 1
    27   15   16 ar
    28   15   19 1
    29   16   17 ar
    30   17   18 ar
    31   17   41 1
    32   19   20 2
    33   19   21 am
    34   21   22 1
    35   21   42 1
    36   22   23 1
    37   22   43 1
    38   22   44 1
    39   23   28 ar
    40   23   24 ar
    41   24   25 ar
    42   24   45 1
    43   25   26 ar
    44   25   46 1
    45   26   27 ar
    46   26   30 1
    47   27   28 ar
    48   27   29 1
    49   28   47 1
    50   29   48 1
    51   29   49 1
    52   29   50 1
@<TRIPOS>MOLECULE
ZINC00678346
   52    56     0     0     0
SMALL
USER_CHARGES

@<TRIPOS>ATOM
      1 C1         -0.0166    1.3766    0.0096 C.ar      1 <0>        -0.1306
      2 C2          1.1659    2.0893    0.0021 C.ar      1 <0>        -0.0601
      3 C3          2.3902    1.4168   -0.0136 C.ar      1 <0>        -0.1415
      4 C4          2.4162    0.0239   -0.0213 C.ar      1 <0>         0.0011
      5 C5          1.2194   -0.6890   -0.0132 C.ar      1 <0>        -0.1414
      6 C6          0.0021   -0.0041    0.0020 C.ar      1 <0>        -0.0601
      7 C7          1.2376   -2.1675   -0.0217 C.2       1 <0>         0.5603
      8 O1          2.2976   -2.7622   -0.0358 O.2       1 <0>        -0.5257
      9 N1          0.0788   -2.8558   -0.0139 N.am      1 <0>        -0.7237
     10 C8          0.0969   -4.3206   -0.0224 C.3       1 <0>         0.1663
     11 C9         -1.3176   -4.8405   -0.0110 C.ar      1 <0>        -0.1038
     12 C10        -1.9549   -5.0798    1.1923 C.ar      1 <0>        -0.0870
     13 C11        -3.2524   -5.5562    1.2079 C.ar      1 <0>        -0.1015
     14 C12        -3.9175   -5.7956    0.0163 C.ar      1 <0>         0.0422
     15 C13        -3.2756   -5.5545   -1.1959 C.ar      1 <0>         0.0306
     16 C14        -1.9770   -5.0716   -1.2038 C.ar      1 <0>        -0.0809
     17 O2         -4.1320   -5.8651   -2.2124 O.3       1 <0>        -0.3072
     18 C15        -5.1560   -6.6830   -1.6160 C.3       1 <0>         0.2127
     19 O3         -5.1762   -6.2570   -0.2408 O.3       1 <0>        -0.3074
     20 C16         3.6556    2.1816   -0.0225 C.2       1 <0>         0.5604
     21 O4          4.7201    1.5951   -0.0362 O.2       1 <0>        -0.5257
     22 N2          3.6286    3.5291   -0.0155 N.am      1 <0>        -0.7238
     23 C17         4.8824    4.2869   -0.0244 C.3       1 <0>         0.1663
     24 C18         4.5775    5.7627   -0.0139 C.ar      1 <0>        -0.1038
     25 C19         4.4202    6.4430   -1.2072 C.ar      1 <0>        -0.0870
     26 C20         4.1399    7.7966   -1.2028 C.ar      1 <0>        -0.1016
     27 C21         4.0164    8.4752   -0.0012 C.ar      1 <0>         0.0423
     28 C22         4.1749    7.7899    1.2008 C.ar      1 <0>         0.0306
     29 C23         4.4500    6.4321    1.1888 C.ar      1 <0>        -0.0809
     30 O5          4.0074    8.6704    2.2303 O.3       1 <0>        -0.3072
     31 C24         4.1497    9.9781    1.6448 C.3       1 <0>         0.2127
     32 O6          3.7495    9.7850    0.2752 O.3       1 <0>        -0.3074
     33 H1         -0.9605    1.9013    0.0259 H         1 <0>         0.1385
     34 H2          1.1443    3.1691    0.0081 H         1 <0>         0.1317
     35 H3          3.3601   -0.5008   -0.0338 H         1 <0>         0.1520
     36 H4         -0.9265   -0.5556    0.0079 H         1 <0>         0.1317
     37 H5         -0.7671   -2.3812   -0.0027 H         1 <0>         0.4019
     38 H6          0.6061   -4.6725   -0.9196 H         1 <0>         0.0834
     39 H7          0.6241   -4.6826    0.8603 H         1 <0>         0.0859
     40 H8         -1.4377   -4.8945    2.1221 H         1 <0>         0.1423
     41 H9         -3.7479   -5.7422    2.1493 H         1 <0>         0.1399
     42 H10        -1.4783   -4.8796   -2.1423 H         1 <0>         0.1388
     43 H11        -6.1199   -6.4955   -2.0893 H         1 <0>         0.1347
     44 H12        -4.8925   -7.7383   -1.6863 H         1 <0>         0.0876
     45 H13         2.7791    3.9972   -0.0046 H         1 <0>         0.4019
     46 H14         5.4681    4.0306    0.8584 H         1 <0>         0.0834
     47 H15         5.4501    4.0395   -0.9214 H         1 <0>         0.0859
     48 H16         4.5168    5.9158   -2.1448 H         1 <0>         0.1423
     49 H17         4.0175    8.3255   -2.1364 H         1 <0>         0.1398
     50 H18         4.5690    5.8972    2.1195 H         1 <0>         0.1388
     51 H19         3.4916   10.6928    2.1390 H         1 <0>         0.1347
     52 H20         5.1865   10.3106    1.6976 H         1 <0>         0.0876
@<TRIPOS>BOND
     1    1    6 ar
     2    1    2 ar
     3    1   33 1
     4    2    3 ar
     5    2   34 1
     6    3    4 ar
     7    3   20 1
     8    4    5 ar
     9    4   35 1
    10    5    6 ar
    11    5    7 1
    12    6   36 1
    13    7    8 2
    14    7    9 am
    15    9   10 1
    16    9   37 1
    17   10   11 1
    18   10   38 1
    19   10   39 1
    20   11   16 ar
    21   11   12 ar
    22   12   13 ar
    23   12   40 1
    24   13   14 ar
    25   13   41 1
    26   14   19 1
    27   14   15 ar
    28   15   16 ar
    29   15   17 1
    30   16   42 1
    31   17   18 1
    32   18   19 1
    33   18   43 1
    34   18   44 1
    35   20   21 2
    36   20   22 am
    37   22   23 1
    38   22   45 1
    39   23   24 1
    40   23   46 1
    41   23   47 1
    42   24   29 ar
    43   24   25 ar
    44   25   26 ar
    45   25   48 1
    46   26   27 ar
    47   26   49 1
    48   27   32 1
    49   27   28 ar
    50   28   29 ar
    51   28   30 1
    52   29   50 1
    53   30   31 1
    54   31   32 1
    55   31   51 1
    56   31   52 1
@<TRIPOS>MOLECULE
ZINC40953882
   48    50     0     0     0
SMALL
USER_CHARGES

@<TRIPOS>ATOM
      1 C1         -0.4958    0.5810    0.2352 C.3       1 <0>        -0.1421
      2 C2         -0.4575   -0.9369    0.4239 C.3       1 <0>        -0.0807
      3 C3          0.1786   -1.5878   -0.8059 C.3       1 <0>        -0.1426
      4 C4          0.3698   -1.2757    1.6656 C.3       1 <0>         0.0748
      5 H1          0.4716   -2.3576    1.7502 H         1 <0>         0.0814
      6 C5          1.7357   -0.6504    1.5451 C.2       1 <0>         0.4900
      7 O1          1.9309    0.4746    1.9724 O.co2     1 <0>        -0.6794
      8 O2          2.6455   -1.2697    1.0204 O.co2     1 <0>        -0.6901
      9 N1         -0.3028   -0.7538    2.8578 N.pl3     1 <0>        -1.0827
     10 S1         -0.2280   -1.5917    4.2842 S.o2      1 <0>         2.7006
     11 O3         -0.9444   -0.8259    5.2432 O.2       1 <0>        -0.9702
     12 O4         -0.5624   -2.9392    3.9817 O.2       1 <0>        -0.9616
     13 C6          1.4571   -1.5944    4.7991 C.ar      1 <0>        -0.6298
     14 C7          2.2998   -2.6139    4.3852 C.ar      1 <0>        -0.0271
     15 C8          3.6203   -2.6246    4.7825 C.ar      1 <0>        -0.0735
     16 C9          4.1028   -1.6082    5.6000 C.ar      1 <0>        -0.0717
     17 C10         5.4189   -1.3112    6.1975 C.ar      1 <0>        -0.1044
     18 C11         6.6586   -1.9402    6.1621 C.ar      1 <0>        -0.0542
     19 C12         7.7266   -1.3897    6.8508 C.ar      1 <0>         0.1300
     20 C13         7.5555   -0.2130    7.5735 C.ar      1 <0>        -0.0989
     21 C14         6.3285    0.4134    7.6117 C.ar      1 <0>        -0.0955
     22 C15         5.2467   -0.1260    6.9254 C.ar      1 <0>         0.0839
     23 O5          3.9615    0.2739    6.7962 O.3       1 <0>        -0.1942
     24 C16         3.2532   -0.5757    6.0203 C.ar      1 <0>         0.0629
     25 C17         1.9266   -0.5791    5.6054 C.ar      1 <0>         0.0054
     26 N2          8.9791   -2.0179    6.8203 N.am      1 <0>        -0.6456
     27 C18         9.3744   -2.6795    5.7147 C.2       1 <0>         0.6424
     28 O6          8.6890   -2.6507    4.7117 O.2       1 <0>        -0.5427
     29 O7         10.5289   -3.3725    5.7214 O.3       1 <0>        -0.3639
     30 C19        10.8861   -4.0498    4.5149 C.3       1 <0>         0.0523
     31 H2          0.5194    0.9572    0.1092 H         1 <0>         0.0714
     32 H3         -1.0852    0.8224   -0.6494 H         1 <0>         0.0420
     33 H4         -0.9490    1.0447    1.1114 H         1 <0>         0.0491
     34 H5         -1.4727   -1.3131    0.5500 H         1 <0>         0.0634
     35 H6          1.1938   -1.2115   -0.9320 H         1 <0>         0.0720
     36 H7          0.2059   -2.6691   -0.6715 H         1 <0>         0.0512
     37 H8         -0.4108   -1.3464   -1.6905 H         1 <0>         0.0458
     38 H9         -0.7919    0.0826    2.8117 H         1 <0>         0.4149
     39 H10         1.9214   -3.4017    3.7507 H         1 <0>         0.1471
     40 H11         4.2770   -3.4192    4.4604 H         1 <0>         0.1370
     41 H12         6.7879   -2.8536    5.6005 H         1 <0>         0.1442
     42 H13         8.3911    0.2128    8.1091 H         1 <0>         0.1436
     43 H14         6.2073    1.3261    8.1762 H         1 <0>         0.1437
     44 H15         1.2617    0.2125    5.9179 H         1 <0>         0.1498
     45 H16         9.5614   -1.9765    7.5949 H         1 <0>         0.4183
     46 H17        10.1115   -4.7737    4.2616 H         1 <0>         0.0641
     47 H18        10.9843   -3.3250    3.7068 H         1 <0>         0.0642
     48 H19        11.8349   -4.5674    4.6560 H         1 <0>         0.1054
@<TRIPOS>BOND
     1    1    2 1
     2    1   31 1
     3    1   32 1
     4    1   33 1
     5    2    3 1
     6    2    4 1
     7    2   34 1
     8    3   35 1
     9    3   36 1
    10    3   37 1
    11    4    5 1
    12    4    6 1
    13    4    9 1
    14    6    7 2
    15    6    8 1
    16    9   10 1
    17    9   38 1
    18   10   11 2
    19   10   12 2
    20   10   13 1
    21   13   25 ar
    22   13   14 ar
    23   14   15 ar
    24   14   39 1
    25   15   16 ar
    26   15   40 1
    27   16   24 ar
    28   16   17 1
    29   17   22 ar
    30   17   18 ar
    31   18   19 ar
    32   18   41 1
    33   19   20 ar
    34   19   26 1
    35   20   21 ar
    36   20   42 1
    37   21   22 ar
    38   21   43 1
    39   22   23 1
    40   23   24 1
    41   24   25 ar
    42   25   44 1
    43   26   27 am
    44   26   45 1
    45   27   28 2
    46   27   29 1
    47   29   30 1
    48   30   46 1
    49   30   47 1
    50   30   48 1
