@<TRIPOS>MOLECULE
ZINC03620786
   56    60     0     0     0
SMALL
USER_CHARGES

@<TRIPOS>ATOM
      1 C1          1.0737   -0.2869   -0.6772 C.ar      1 <0>        -0.0578
      2 C2          2.1723    0.5483   -0.7226 C.ar      1 <0>        -0.1800
      3 C3          2.1166    1.8018   -0.1274 C.ar      1 <0>         0.2044
      4 C4          0.9560    2.2152    0.5134 C.ar      1 <0>        -0.1792
      5 C5         -0.1425    1.3799    0.5588 C.ar      1 <0>        -0.0955
      6 C6         -0.0868    0.1265   -0.0364 C.ar      1 <0>         0.1108
      7 N1         -1.2013   -0.7208    0.0097 N.pl3     1 <0>        -0.6320
      8 C7         -1.0257   -2.0919    0.1100 C.ar      1 <0>         0.6245
      9 N2          0.1969   -2.5687    0.2805 N.ar      1 <0>        -0.5996
     10 C8          0.4043   -3.8777    0.3809 C.ar      1 <0>         0.3416
     11 C9         -0.6922   -4.7524    0.3038 C.ar      1 <0>        -0.1506
     12 C10        -1.9726   -4.2016    0.1216 C.ar      1 <0>         0.5432
     13 N3         -2.0900   -2.8812    0.0372 N.ar      1 <0>        -0.6192
     14 N4         -3.0874   -5.0170    0.0390 N.pl3     1 <0>        -0.6876
     15 C11        -4.4145   -4.4262   -0.1511 C.3       1 <0>         0.1518
     16 C12        -4.9921   -4.0221    1.2069 C.3       1 <0>        -0.1275
     17 C13        -6.3780   -3.4052    1.0084 C.3       1 <0>        -0.1158
     18 C14        -7.3018   -4.4289    0.3455 C.3       1 <0>        -0.1231
     19 C15        -6.7242   -4.8330   -1.0124 C.3       1 <0>        -0.1145
     20 C16        -5.3383   -5.4500   -0.8140 C.3       1 <0>        -0.1288
     21 N5         -0.2084   -6.0121    0.4337 N.2       1 <0>        -0.4549
     22 C17         1.0833   -5.9668    0.5818 C.2       1 <0>         0.2364
     23 N6          1.5099   -4.6710    0.5561 N.pl3     1 <0>        -0.5828
     24 H1          2.4266   -4.3666    0.6449 H         1 <0>         0.4289
     25 N7          3.2302    2.6482   -0.1730 N.pl3     1 <0>        -0.6352
     26 C18         3.1595    4.0220    0.3496 C.3       1 <0>         0.0872
     27 C19         4.3420    4.2390    1.3006 C.3       1 <0>         0.0451
     28 O1          5.5539    3.8743    0.6357 O.3       1 <0>        -0.3797
     29 C20         5.6236    2.4967    0.2598 C.3       1 <0>         0.0456
     30 C21         4.5083    2.1887   -0.7394 C.3       1 <0>         0.0880
     31 H2          1.1155   -1.2600   -1.1439 H         1 <0>         0.1316
     32 H3          3.0750    0.2266   -1.2207 H         1 <0>         0.1219
     33 H4          0.9128    3.1899    0.9766 H         1 <0>         0.1248
     34 H5         -1.0451    1.7014    1.0572 H         1 <0>         0.1242
     35 H6         -2.0960   -0.3480   -0.0287 H         1 <0>         0.4223
     36 H7         -2.9903   -5.9797    0.1068 H         1 <0>         0.4177
     37 H8         -4.3323   -3.5452   -0.7876 H         1 <0>         0.0936
     38 H9         -5.0743   -4.9031    1.8434 H         1 <0>         0.0612
     39 H10        -4.3339   -3.2928    1.6792 H         1 <0>         0.0679
     40 H11        -6.7895   -3.1173    1.9759 H         1 <0>         0.0639
     41 H12        -6.2958   -2.5242    0.3719 H         1 <0>         0.0650
     42 H13        -7.3840   -5.3099    0.9821 H         1 <0>         0.0623
     43 H14        -8.2892   -3.9894    0.2042 H         1 <0>         0.0640
     44 H15        -7.3824   -5.5623   -1.4847 H         1 <0>         0.0674
     45 H16        -6.6420   -3.9520   -1.6490 H         1 <0>         0.0656
     46 H17        -4.9268   -5.7378   -1.7814 H         1 <0>         0.0689
     47 H18        -5.4205   -6.3309   -0.1774 H         1 <0>         0.0682
     48 H19         1.7234   -6.8277    0.7069 H         1 <0>         0.2226
     49 H20         3.2168    4.7320   -0.4754 H         1 <0>         0.0700
     50 H21         2.2233    4.1613    0.8902 H         1 <0>         0.0926
     51 H22         4.3878    5.2885    1.5911 H         1 <0>         0.1045
     52 H23         4.2135    3.6199    2.1885 H         1 <0>         0.0555
     53 H24         6.5913    2.2929   -0.1986 H         1 <0>         0.1046
     54 H25         5.4997    1.8714    1.1439 H         1 <0>         0.0549
     55 H26         4.4648    1.1145   -0.9197 H         1 <0>         0.0916
     56 H27         4.7037    2.7110   -1.6760 H         1 <0>         0.0693
@<TRIPOS>BOND
     1    1    6 ar
     2    1    2 ar
     3    1   31 1
     4    2    3 ar
     5    2   32 1
     6    3    4 ar
     7    3   25 1
     8    4    5 ar
     9    4   33 1
    10    5    6 ar
    11    5   34 1
    12    6    7 1
    13    7    8 1
    14    7   35 1
    15    8   13 ar
    16    8    9 ar
    17    9   10 ar
    18   10   23 1
    19   10   11 ar
    20   11   12 ar
    21   11   21 1
    22   12   13 ar
    23   12   14 1
    24   14   15 1
    25   14   36 1
    26   15   20 1
    27   15   16 1
    28   15   37 1
    29   16   17 1
    30   16   38 1
    31   16   39 1
    32   17   18 1
    33   17   40 1
    34   17   41 1
    35   18   19 1
    36   18   42 1
    37   18   43 1
    38   19   20 1
    39   19   44 1
    40   19   45 1
    41   20   46 1
    42   20   47 1
    43   21   22 2
    44   22   23 1
    45   22   48 1
    46   23   24 1
    47   25   30 1
    48   25   26 1
    49   26   27 1
    50   26   49 1
    51   26   50 1
    52   27   28 1
    53   27   51 1
    54   27   52 1
    55   28   29 1
    56   29   30 1
    57   29   53 1
    58   29   54 1
    59   30   55 1
    60   30   56 1
