@<TRIPOS>MOLECULE
ZINC02022527
   54    55     0     0     0
SMALL
USER_CHARGES

@<TRIPOS>ATOM
      1 C1         -3.0730    2.2881   -4.2693 C.3       1 <0>        -0.1569
      2 C2         -2.3049    1.5870   -3.1471 C.3       1 <0>        -0.1270
      3 C3         -2.8110    2.0874   -1.7927 C.3       1 <0>        -0.1231
      4 C4         -2.0429    1.3862   -0.6705 C.3       1 <0>        -0.1174
      5 C5         -2.5490    1.8867    0.6839 C.3       1 <0>        -0.1006
      6 C6         -2.2117    3.3722    0.8391 C.3       1 <0>        -0.1451
      7 C7         -2.6658    3.8518    2.2196 C.3       1 <0>        -0.0114
      8 C8         -2.3347    1.6429    3.1595 C.3       1 <0>        -0.0001
      9 C9         -1.8707    1.0973    1.8070 C.3       1 <0>        -0.1442
     10 C10        -2.2939    3.5901    4.5974 C.3       1 <0>        -0.0052
     11 C11        -2.1583    5.1140    4.5919 C.3       1 <0>        -0.1459
     12 C12        -2.4764    5.6593    5.9856 C.3       1 <0>        -0.1543
     13 C13        -2.3428    7.1604    5.9803 C.2       1 <0>         0.3987
     14 O1         -2.0245    7.7371    4.9623 O.2       1 <0>        -0.4456
     15 C14        -2.5986    7.9263    7.2106 C.ar      1 <0>        -0.1885
     16 C15        -3.0878    7.2813    8.3513 C.ar      1 <0>        -0.0705
     17 C16        -3.3195    8.0047    9.5018 C.ar      1 <0>        -0.1389
     18 C17        -3.0801    9.3679    9.5265 C.ar      1 <0>        -0.0729
     19 C18        -2.6016   10.0143    8.4004 C.ar      1 <0>        -0.1345
     20 C19        -2.3594    9.3036    7.2436 C.ar      1 <0>        -0.0178
     21 C20        -1.8387   10.0095    6.0182 C.3       1 <0>        -0.1264
     22 H1         -4.1363    2.0676   -4.1746 H         1 <0>         0.0549
     23 H2         -2.9175    3.3647   -4.1985 H         1 <0>         0.0540
     24 H3         -2.7125    1.9316   -5.2342 H         1 <0>         0.0581
     25 H4         -1.2417    1.8075   -3.2417 H         1 <0>         0.0621
     26 H5         -2.4605    0.5104   -3.2179 H         1 <0>         0.0631
     27 H6         -3.8743    1.8669   -1.6981 H         1 <0>         0.0644
     28 H7         -2.6555    3.1639   -1.7219 H         1 <0>         0.0632
     29 H8         -2.1984    0.3097   -0.7413 H         1 <0>         0.0733
     30 H9         -0.9796    1.6067   -0.7651 H         1 <0>         0.0688
     31 H10        -3.6287    1.7492    0.7427 H         1 <0>         0.0884
     32 H11        -1.1354    3.5132    0.7407 H         1 <0>         0.0881
     33 H12        -2.7264    3.9447    0.0675 H         1 <0>         0.1133
     34 H13        -3.7442    3.7233    2.3122 H         1 <0>         0.1295
     35 H14        -2.4142    4.9057    2.3388 H         1 <0>         0.1342
     36 H15        -3.4146    1.5248    3.2476 H         1 <0>         0.1293
     37 H16        -1.8426    1.0924    3.9613 H         1 <0>         0.1282
     38 H17        -2.1418    0.0446    1.7270 H         1 <0>         0.1118
     39 H18        -0.7890    1.2025    1.7239 H         1 <0>         0.0880
     40 H19        -3.3133    3.3170    4.8704 H         1 <0>         0.1315
     41 H20        -1.5979    3.1659    5.3211 H         1 <0>         0.1302
     42 H21        -1.1389    5.3871    4.3190 H         1 <0>         0.0944
     43 H22        -2.8542    5.5382    3.8682 H         1 <0>         0.0968
     44 H23        -3.4115    5.4088    6.2361 H         1 <0>         0.0981
     45 H24        -1.7805    5.2352    6.7093 H         1 <0>         0.1100
     46 H25        -3.2793    6.2186    8.3321 H         1 <0>         0.1290
     47 H26        -3.6933    7.5074   10.3846 H         1 <0>         0.1322
     48 H27        -3.2682    9.9300   10.4293 H         1 <0>         0.1326
     49 H28        -2.4176   11.0782    8.4274 H         1 <0>         0.1332
     50 H29        -2.6709   10.2515    5.3572 H         1 <0>         0.0784
     51 H30        -1.3321   10.9277    6.3156 H         1 <0>         0.0652
     52 H31        -1.1365    9.3600    5.4956 H         1 <0>         0.0893
     53 N1         -1.9588    3.0696    3.2558 N.4       1 <0>        -0.3931
     54 H32        -0.9467    3.1581    3.1071 H         1 <0>         0.4272
@<TRIPOS>BOND
     1    1    2 1
     2    1   22 1
     3    1   23 1
     4    1   24 1
     5    2    3 1
     6    2   25 1
     7    2   26 1
     8    3    4 1
     9    3   27 1
    10    3   28 1
    11    4    5 1
    12    4   29 1
    13    4   30 1
    14    5    9 1
    15    5    6 1
    16    5   31 1
    17    6    7 1
    18    6   32 1
    19    6   33 1
    20    7   34 1
    21    7   35 1
    22    7   53 1
    23    8    9 1
    24    8   36 1
    25    8   37 1
    26    8   53 1
    27    9   38 1
    28    9   39 1
    29   10   11 1
    30   10   40 1
    31   10   41 1
    32   10   53 1
    33   11   12 1
    34   11   42 1
    35   11   43 1
    36   12   13 1
    37   12   44 1
    38   12   45 1
    39   13   14 2
    40   13   15 1
    41   15   20 ar
    42   15   16 ar
    43   16   17 ar
    44   16   46 1
    45   17   18 ar
    46   17   47 1
    47   18   19 ar
    48   18   48 1
    49   19   20 ar
    50   19   49 1
    51   20   21 1
    52   21   50 1
    53   21   51 1
    54   21   52 1
    55   53   54 1
@<TRIPOS>MOLECULE
ZINC00601304
   50    53     0     0     0
SMALL
USER_CHARGES

@<TRIPOS>ATOM
      1 C1         -0.0848    1.4532   -0.3643 C.3       1 <0>         0.0157
      2 O1         -0.0673    0.0248   -0.4029 O.3       1 <0>        -0.2899
      3 C2         -1.2697   -0.6091   -0.3507 C.ar      1 <0>         0.1141
      4 C3         -2.4181    0.1263   -0.2712 C.ar      1 <0>        -0.1159
      5 C4         -3.6565   -0.5247   -0.2178 C.ar      1 <0>        -0.1900
      6 C5         -3.7118   -1.9398   -0.2465 C.ar      1 <0>         0.2208
      7 C6         -2.5225   -2.6738   -0.3282 C.ar      1 <0>        -0.2298
      8 C7         -1.3169   -2.0092   -0.3848 C.ar      1 <0>         0.2171
      9 O2         -0.1616   -2.7187   -0.4697 O.3       1 <0>        -0.2781
     10 C8         -0.2756   -4.1428   -0.5007 C.3       1 <0>         0.0126
     11 N1         -4.9113   -2.5410   -0.1946 N.ar      1 <0>        -0.5852
     12 C9         -6.0151   -1.8231   -0.1184 C.ar      1 <0>         0.6808
     13 N2         -6.0075   -0.4933   -0.0894 N.ar      1 <0>        -0.5933
     14 C10        -4.8747    0.1928   -0.1354 C.ar      1 <0>         0.5614
     15 N3         -4.8820    1.5717   -0.1036 N.pl3     1 <0>        -0.7723
     16 N4         -7.2317   -2.4807   -0.0668 N.pl3     1 <0>        -0.5638
     17 C11        -7.2984   -3.9422   -0.2055 C.3       1 <0>         0.0875
     18 C12        -8.0309   -4.5172    1.0132 C.3       1 <0>         0.0811
     19 N5         -9.2792   -3.7665    1.2081 N.am      1 <0>        -0.6161
     20 C13        -9.2125   -2.3049    1.3468 C.3       1 <0>         0.0965
     21 C14        -8.4794   -1.7305    0.1337 C.3       1 <0>         0.1036
     22 C15       -10.4640   -4.4068    1.2583 C.2       1 <0>         0.6126
     23 O3        -11.4993   -3.7686    1.3005 O.2       1 <0>        -0.5007
     24 C16       -10.5057   -5.8728    1.2622 C.2       1 <0>        -0.0999
     25 C17       -11.6286   -6.6439    1.1675 C.2       1 <0>        -0.0980
     26 C18       -11.2046   -7.9813    1.2107 C.2       1 <0>        -0.2186
     27 C19        -9.8585   -7.9681    1.3284 C.2       1 <0>        -0.0023
     28 O4         -9.4406   -6.6959    1.3540 O.3       1 <0>        -0.1695
     29 H1          0.9367    1.8304   -0.4129 H         1 <0>         0.1175
     30 H2         -0.6531    1.8327   -1.2135 H         1 <0>         0.0636
     31 H3         -0.5513    1.7859    0.5629 H         1 <0>         0.0637
     32 H4         -2.3709    1.2050   -0.2492 H         1 <0>         0.1589
     33 H5         -2.5500   -3.7532   -0.3508 H         1 <0>         0.1674
     34 H6         -0.7651   -4.4880    0.4100 H         1 <0>         0.0684
     35 H7         -0.8669   -4.4412   -1.3664 H         1 <0>         0.0684
     36 H8          0.7180   -4.5855   -0.5693 H         1 <0>         0.1203
     37 H9         -4.0457    2.0621   -0.1379 H         1 <0>         0.4288
     38 H10        -5.7233    2.0512   -0.0471 H         1 <0>         0.4313
     39 H11        -7.8428   -4.1990   -1.1142 H         1 <0>         0.1106
     40 H12        -6.2893   -4.3517   -0.2526 H         1 <0>         0.0927
     41 H13        -8.2596   -5.5687    0.8400 H         1 <0>         0.1354
     42 H14        -7.4023   -4.4179    1.8982 H         1 <0>         0.0848
     43 H15       -10.2215   -1.8954    1.3938 H         1 <0>         0.1238
     44 H16        -8.6680   -2.0481    2.2555 H         1 <0>         0.0830
     45 H17        -8.2501   -0.6797    0.3105 H         1 <0>         0.1273
     46 H18        -9.1099   -1.8262   -0.7503 H         1 <0>         0.0981
     47 H19       -12.6459   -6.2927    1.0769 H         1 <0>         0.1643
     48 H20       -11.8356   -8.8563    1.1598 H         1 <0>         0.1626
     49 H21        -9.2239   -8.8399    1.3885 H         1 <0>         0.2151
     50 H22        -4.9664   -3.5093   -0.2136 H         1 <0>         0.4337
@<TRIPOS>BOND
     1    1    2 1
     2    1   29 1
     3    1   30 1
     4    1   31 1
     5    2    3 1
     6    3    8 ar
     7    3    4 ar
     8    4    5 ar
     9    4   32 1
    10    5   14 ar
    11    5    6 ar
    12    6    7 ar
    13    6   11 ar
    14    7    8 ar
    15    7   33 1
    16    8    9 1
    17    9   10 1
    18   10   34 1
    19   10   35 1
    20   10   36 1
    21   11   12 ar
    22   11   50 1
    23   12   13 ar
    24   12   16 1
    25   13   14 ar
    26   14   15 1
    27   15   37 1
    28   15   38 1
    29   16   21 1
    30   16   17 1
    31   17   18 1
    32   17   39 1
    33   17   40 1
    34   18   19 1
    35   18   41 1
    36   18   42 1
    37   19   20 1
    38   19   22 am
    39   20   21 1
    40   20   43 1
    41   20   44 1
    42   21   45 1
    43   21   46 1
    44   22   23 2
    45   22   24 1
    46   24   28 1
    47   24   25 2
    48   25   26 1
    49   25   47 1
    50   26   27 2
    51   26   48 1
    52   27   28 1
    53   27   49 1
@<TRIPOS>MOLECULE
ZINC13473198
   38    39     0     0     0
SMALL
USER_CHARGES
N-[2-(2-iodo-5-methoxy-1-methyl-4-nitro-indol-3-yl)ethyl]acetamide
@<TRIPOS>ATOM
      1 C1         -0.9970    1.7576   -3.6299 C.3       1 <0>        -0.1707
      2 C2         -0.2681    1.2584   -2.4090 C.2       1 <0>         0.5121
      3 O1          0.7262    0.5752   -2.5335 O.2       1 <0>        -0.5452
      4 N1         -0.7213    1.5711   -1.1789 N.am      1 <0>        -0.7289
      5 C3         -0.0127    1.0858    0.0080 C.3       1 <0>         0.1236
      6 C4         -0.7288    1.5792    1.2668 C.3       1 <0>        -0.0734
      7 C5          0.0000    1.0800    2.4877 C.2       1 <0>        -0.1254
      8 C6          1.0882    1.7622    3.1923 C.ar      1 <0>        -0.0364
      9 C7          1.4480    0.9211    4.2607 C.ar      1 <0>         0.0902
     10 C8          2.4694    1.3063    5.1220 C.ar      1 <0>        -0.0401
     11 C9          3.1208    2.5039    4.9256 C.ar      1 <0>        -0.1705
     12 C10         2.7670    3.3386    3.8691 C.ar      1 <0>         0.1671
     13 C11         1.7552    2.9743    3.0030 C.ar      1 <0>        -0.0227
     14 N2          1.3806    3.8628    1.8797 N.pl3     1 <0>         0.0315
     15 O2          0.5220    4.7125    2.0355 O.2       1 <0>        -0.1411
     16 O3          1.9311    3.7441    0.7997 O.3       1 <0>        -0.1313
     17 O4          3.4204    4.5176    3.6895 O.3       1 <0>        -0.3107
     18 C12         4.4565    4.8337    4.6215 C.3       1 <0>         0.0247
     19 N3          0.6300   -0.1878    4.1980 N.pl3     1 <0>        -0.4576
     20 C13        -0.2290   -0.0720    3.1393 C.2       1 <0>         0.0843
     21 I1         -1.6824   -1.4849    2.6097 I         1 <0>         0.0526
     22 C14         0.6704   -1.3176    5.1297 C.3       1 <0>         0.0661
     23 H1         -1.8587    2.3499   -3.3218 H         1 <0>         0.0760
     24 H2         -0.3259    2.3756   -4.2264 H         1 <0>         0.0964
     25 H3         -1.3337    0.9085   -4.2246 H         1 <0>         0.0943
     26 H4         -1.5165    2.1175   -1.0793 H         1 <0>         0.4018
     27 H5          0.0021   -0.0041    0.0020 H         1 <0>         0.0694
     28 H6          1.0099    1.4631    0.0003 H         1 <0>         0.0750
     29 H7         -0.7436    2.6691    1.2728 H         1 <0>         0.0831
     30 H8         -1.7514    1.2020    1.2746 H         1 <0>         0.0903
     31 H9          2.7517    0.6666    5.9451 H         1 <0>         0.1466
     32 H10         3.9137    2.7980    5.5974 H         1 <0>         0.1587
     33 H11         4.0386    4.8807    5.6271 H         1 <0>         0.0646
     34 H12         5.2267    4.0634    4.5837 H         1 <0>         0.0648
     35 H13         4.8944    5.7983    4.3646 H         1 <0>         0.1113
     36 H14        -0.0056   -1.1258    5.9629 H         1 <0>         0.0838
     37 H15         0.3614   -2.2261    4.6128 H         1 <0>         0.0912
     38 H16         1.6856   -1.4415    5.5067 H         1 <0>         0.0945
@<TRIPOS>BOND
     1    1    2 1
     2    1   23 1
     3    1   24 1
     4    1   25 1
     5    2    3 2
     6    2    4 am
     7    4    5 1
     8    4   26 1
     9    5    6 1
    10    5   27 1
    11    5   28 1
    12    6    7 1
    13    6   29 1
    14    6   30 1
    15    7   20 2
    16    7    8 1
    17    8   13 ar
    18    8    9 ar
    19    9   10 ar
    20    9   19 1
    21   10   11 ar
    22   10   31 1
    23   11   12 ar
    24   11   32 1
    25   12   13 ar
    26   12   17 1
    27   13   14 1
    28   14   15 2
    29   14   16 1
    30   17   18 1
    31   18   33 1
    32   18   34 1
    33   18   35 1
    34   19   20 1
    35   19   22 1
    36   20   21 1
    37   22   36 1
    38   22   37 1
    39   22   38 1
@<TRIPOS>MOLECULE
ZINC00057060
   33    34     0     0     0
SMALL
USER_CHARGES

@<TRIPOS>ATOM
      1 C1         -0.0184    1.5028    0.0103 C.3       1 <0>        -0.1753
      2 C2          0.0021   -0.0041    0.0020 C.2       1 <0>         0.5080
      3 O1          1.0605   -0.5961   -0.0113 O.2       1 <0>        -0.5457
      4 N1         -1.1558   -0.6938    0.0094 N.am      1 <0>        -0.7345
      5 C3         -1.1360   -2.1586    0.0013 C.3       1 <0>         0.1215
      6 C4         -2.5713   -2.6882    0.0122 C.3       1 <0>        -0.0516
      7 C5         -2.5509   -4.1950    0.0039 C.2       1 <0>        -0.1794
      8 C6         -2.6385   -4.9886   -1.0753 C.2       1 <0>         0.0724
      9 N2         -2.5847   -6.3015   -0.6946 N.pl3     1 <0>        -0.5943
     10 H1         -2.6290   -7.0593   -1.2986 H         1 <0>         0.4174
     11 C7         -2.4577   -6.3869    0.6759 C.ar      1 <0>         0.0645
     12 C8         -2.4252   -5.0710    1.1714 C.ar      1 <0>        -0.0603
     13 C9         -2.2964   -4.8447    2.5432 C.ar      1 <0>        -0.1120
     14 C10        -2.1981   -5.9187    3.4055 C.ar      1 <0>         0.1023
     15 C11        -2.2271   -7.2201    2.9116 C.ar      1 <0>        -0.1777
     16 C12        -2.3616   -7.4550    1.5612 C.ar      1 <0>        -0.0891
     17 O2         -2.0719   -5.7044    4.7424 O.3       1 <0>        -0.3189
     18 C13        -1.9750   -6.8594    5.5783 C.3       1 <0>         0.0281
     19 H2          1.0042    1.8801    0.0026 H         1 <0>         0.0921
     20 H3         -0.5455    1.8639   -0.8728 H         1 <0>         0.0879
     21 H4         -0.5286    1.8543    0.9071 H         1 <0>         0.0882
     22 H5         -2.0023   -0.2203    0.0200 H         1 <0>         0.4011
     23 H6         -0.6258   -2.5101   -0.8955 H         1 <0>         0.0668
     24 H7         -0.6088   -2.5197    0.8844 H         1 <0>         0.0689
     25 H8         -3.0815   -2.3367    0.9090 H         1 <0>         0.0774
     26 H9         -3.0985   -2.3271   -0.8709 H         1 <0>         0.0766
     27 H10        -2.7373   -4.6419   -2.0933 H         1 <0>         0.1719
     28 H11        -2.2733   -3.8356    2.9275 H         1 <0>         0.1295
     29 H12        -2.1492   -8.0532    3.5943 H         1 <0>         0.1322
     30 H13        -2.3815   -8.4686    1.1887 H         1 <0>         0.1243
     31 H14        -1.8789   -6.5481    6.6184 H         1 <0>         0.0994
     32 H15        -2.8719   -7.4679    5.4625 H         1 <0>         0.0541
     33 H16        -1.1004   -7.4432    5.2914 H         1 <0>         0.0542
@<TRIPOS>BOND
     1    1    2 1
     2    1   19 1
     3    1   20 1
     4    1   21 1
     5    2    3 2
     6    2    4 am
     7    4    5 1
     8    4   22 1
     9    5    6 1
    10    5   23 1
    11    5   24 1
    12    6    7 1
    13    6   25 1
    14    6   26 1
    15    7   12 1
    16    7    8 2
    17    8    9 1
    18    8   27 1
    19    9   10 1
    20    9   11 1
    21   11   16 ar
    22   11   12 ar
    23   12   13 ar
    24   13   14 ar
    25   13   28 1
    26   14   15 ar
    27   14   17 1
    28   15   16 ar
    29   15   29 1
    30   16   30 1
    31   17   18 1
    32   18   31 1
    33   18   32 1
    34   18   33 1
@<TRIPOS>MOLECULE
ZINC00057060
   33    34     0     0     0
SMALL
USER_CHARGES

@<TRIPOS>ATOM
      1 C1         -0.2014    1.4875    0.0186 C.3       1 <0>        -0.1912
      2 C2         -0.0853   -0.0150    0.0084 C.2       1 <0>         0.3417
      3 N1          0.1188   -0.6538    1.1107 N.2       1 <0>        -0.5604
      4 C3          0.1213    0.0676    2.3858 C.3       1 <0>         0.0638
      5 C4         -1.0457   -0.4172    3.2483 C.3       1 <0>        -0.0342
      6 C5         -1.0432    0.3249    4.5599 C.2       1 <0>        -0.1776
      7 C6         -0.4818   -0.0855    5.7082 C.2       1 <0>         0.0699
      8 N2         -0.6813    0.8505    6.6858 N.pl3     1 <0>        -0.5952
      9 H1         -0.3672    0.7767    7.6006 H         1 <0>         0.4169
     10 C7         -1.3952    1.9148    6.1765 C.ar      1 <0>         0.0648
     11 C8         -1.6473    1.6336    4.8216 C.ar      1 <0>        -0.0617
     12 C9         -2.3565    2.5473    4.0393 C.ar      1 <0>        -0.1129
     13 C10        -2.8036    3.7256    4.6034 C.ar      1 <0>         0.1011
     14 C11        -2.5496    4.0025    5.9440 C.ar      1 <0>        -0.1787
     15 C12        -1.8576    3.1052    6.7268 C.ar      1 <0>        -0.0888
     16 O1         -3.4945    4.6194    3.8464 O.3       1 <0>        -0.3197
     17 C13        -3.9280    5.8183    4.4921 C.3       1 <0>         0.0282
     18 O2         -0.1949   -0.6921   -1.1535 O.3       1 <0>        -0.4711
     19 H2          0.6882    1.9176    0.4787 H         1 <0>         0.0880
     20 H3         -0.2935    1.8518   -1.0046 H         1 <0>         0.0790
     21 H4         -1.0830    1.7799    0.5891 H         1 <0>         0.0902
     22 H5          1.0603   -0.1189    2.9070 H         1 <0>         0.0820
     23 H6          0.0155    1.1362    2.1988 H         1 <0>         0.0483
     24 H7         -1.9847   -0.2307    2.7272 H         1 <0>         0.0678
     25 H8         -0.9399   -1.4859    3.4353 H         1 <0>         0.0794
     26 H9          0.0484   -1.0170    5.8408 H         1 <0>         0.1728
     27 H10        -2.5539    2.3338    2.9992 H         1 <0>         0.1269
     28 H11        -2.9033    4.9272    6.3756 H         1 <0>         0.1318
     29 H12        -1.6649    3.3308    7.7653 H         1 <0>         0.1240
     30 H13        -4.5878    5.5657    5.3222 H         1 <0>         0.0542
     31 H14        -3.0616    6.3616    4.8691 H         1 <0>         0.0540
     32 H15        -4.4653    6.4419    3.7776 H         1 <0>         0.0992
     33 H16        -0.3468   -0.1285   -1.9244 H         1 <0>         0.4075
@<TRIPOS>BOND
     1    1    2 1
     2    1   19 1
     3    1   20 1
     4    1   21 1
     5    2    3 2
     6    2   18 1
     7    3    4 1
     8    4    5 1
     9    4   22 1
    10    4   23 1
    11    5    6 1
    12    5   24 1
    13    5   25 1
    14    6   11 1
    15    6    7 2
    16    7    8 1
    17    7   26 1
    18    8    9 1
    19    8   10 1
    20   10   15 ar
    21   10   11 ar
    22   11   12 ar
    23   12   13 ar
    24   12   27 1
    25   13   14 ar
    26   13   16 1
    27   14   15 ar
    28   14   28 1
    29   15   29 1
    30   16   17 1
    31   17   30 1
    32   17   31 1
    33   17   32 1
    34   18   33 1
@<TRIPOS>MOLECULE
ZINC02567732
   37    38     0     0     0
SMALL
USER_CHARGES

@<TRIPOS>ATOM
      1 C1          1.1369    1.0633    0.0027 C.3       1 <0>        -0.1753
      2 C2          0.9375   -0.4305    0.0092 C.2       1 <0>         0.5081
      3 O1          1.8981   -1.1704    0.0314 O.2       1 <0>        -0.5462
      4 N1         -0.3085   -0.9441   -0.0098 N.am      1 <0>        -0.7341
      5 C3         -0.5023   -2.3962   -0.0035 C.3       1 <0>         0.1228
      6 C4         -1.9994   -2.7110   -0.0283 C.3       1 <0>        -0.0539
      7 C5         -2.1988   -4.2047   -0.0219 C.2       1 <0>        -0.1710
      8 C6         -2.3725   -4.9916   -1.0955 C.2       1 <0>         0.0665
      9 N2         -2.5215   -6.2930   -0.7012 N.pl3     1 <0>        -0.5933
     10 H1         -2.6601   -7.0442   -1.2990 H         1 <0>         0.4181
     11 C7         -2.4451   -6.3777    0.6731 C.ar      1 <0>         0.0870
     12 C8         -2.2334   -5.0740    1.1569 C.ar      1 <0>        -0.0802
     13 C9         -2.1084   -4.8504    2.5293 C.ar      1 <0>        -0.0692
     14 C10        -2.1904   -5.9167    3.4049 C.ar      1 <0>         0.1271
     15 C11        -2.3961   -7.2074    2.9214 C.ar      1 <0>        -0.1131
     16 C12        -2.5301   -7.4369    1.5704 C.ar      1 <0>        -0.1077
     17 N3         -2.0657   -5.6992    4.7841 N.am      1 <0>        -0.6471
     18 C13        -2.5245   -4.5555    5.3300 C.2       1 <0>         0.6452
     19 O2         -3.1318   -3.7562    4.6453 O.2       1 <0>        -0.5519
     20 O3         -2.3099   -4.2987    6.6343 O.3       1 <0>        -0.3633
     21 C14        -2.8241   -3.0676    7.1463 C.3       1 <0>         0.0533
     22 H2          2.2034    1.2875    0.0204 H         1 <0>         0.0922
     23 H3          0.6917    1.4853   -0.8983 H         1 <0>         0.0881
     24 H4          0.6597    1.4973    0.8813 H         1 <0>         0.0880
     25 H5         -1.0768   -0.3523   -0.0276 H         1 <0>         0.4014
     26 H6         -0.0251   -2.8303   -0.8822 H         1 <0>         0.0673
     27 H7         -0.0571   -2.8183    0.8975 H         1 <0>         0.0673
     28 H8         -2.4765   -2.2769    0.8503 H         1 <0>         0.0786
     29 H9         -2.4445   -2.2889   -0.9293 H         1 <0>         0.0771
     30 H10        -2.3921   -4.6479   -2.1192 H         1 <0>         0.1721
     31 H11        -1.9482   -3.8504    2.9045 H         1 <0>         0.1354
     32 H12        -2.4585   -8.0343    3.6133 H         1 <0>         0.1327
     33 H13        -2.6877   -8.4415    1.2064 H         1 <0>         0.1281
     34 H14        -1.6493   -6.3717    5.3455 H         1 <0>         0.4176
     35 H15        -2.5827   -2.9857    8.2060 H         1 <0>         0.1064
     36 H16        -2.3758   -2.2339    6.6059 H         1 <0>         0.0628
     37 H17        -3.9062   -3.0442    7.0173 H         1 <0>         0.0632
@<TRIPOS>BOND
     1    1    2 1
     2    1   22 1
     3    1   23 1
     4    1   24 1
     5    2    3 2
     6    2    4 am
     7    4    5 1
     8    4   25 1
     9    5    6 1
    10    5   26 1
    11    5   27 1
    12    6    7 1
    13    6   28 1
    14    6   29 1
    15    7   12 1
    16    7    8 2
    17    8    9 1
    18    8   30 1
    19    9   10 1
    20    9   11 1
    21   11   16 ar
    22   11   12 ar
    23   12   13 ar
    24   13   14 ar
    25   13   31 1
    26   14   15 ar
    27   14   17 1
    28   15   16 ar
    29   15   32 1
    30   16   33 1
    31   17   18 am
    32   17   34 1
    33   18   19 2
    34   18   20 1
    35   20   21 1
    36   21   35 1
    37   21   36 1
    38   21   37 1
