@<TRIPOS>MOLECULE
ZINC64539506
   73    79     0     0     0
SMALL
USER_CHARGES

@<TRIPOS>ATOM
      1 C1         -0.8034    1.1981   -2.0475 C.3       1 <0>        -0.1373
      2 C2         -0.9132   -0.3251   -1.9533 C.3       1 <0>        -0.1439
      3 C3         -1.8869   -0.6921   -0.8632 C.2       1 <0>         0.5116
      4 O1         -2.4388    0.1788   -0.2246 O.2       1 <0>        -0.5400
      5 N1         -2.1445   -1.9882   -0.5981 N.am      1 <0>        -0.6057
      6 C4         -1.4786   -3.0541   -1.3597 C.3       1 <0>         0.0914
      7 C5         -0.7731   -3.9935   -0.3738 C.3       1 <0>         0.1227
      8 N2         -1.7246   -4.3662    0.6825 N.pl3     1 <0>        -0.6412
      9 C6         -2.3905   -3.3002    1.4441 C.3       1 <0>         0.0982
     10 C7         -3.0917   -2.3609    0.4620 C.3       1 <0>         0.0636
     11 C8         -1.9917   -5.7105    0.9575 C.ar      1 <0>         0.2762
     12 C9         -0.9536   -6.5704    1.2942 C.ar      1 <0>        -0.1610
     13 C10        -1.2176   -7.8974    1.5661 C.ar      1 <0>        -0.0493
     14 C11        -2.5211   -8.3734    1.5033 C.ar      1 <0>         0.0715
     15 C12        -3.5587   -7.5142    1.1664 C.ar      1 <0>        -0.0251
     16 C13        -3.2958   -6.1854    0.8999 C.ar      1 <0>        -0.2300
     17 C14        -4.4227   -5.2515    0.5409 C.3       1 <0>         0.5187
     18 F1         -5.5990   -5.9873    0.3618 F         1 <0>        -0.1736
     19 F2         -4.6056   -4.3235    1.5717 F         1 <0>        -0.1666
     20 F3         -4.1097   -4.5767   -0.6439 F         1 <0>        -0.1590
     21 N3         -2.7889   -9.7207    1.7794 N.am      1 <0>        -0.4580
     22 C15        -3.0107  -10.5803    0.7663 C.2       1 <0>         0.5296
     23 O2         -2.9762  -10.1764   -0.3836 O.2       1 <0>        -0.5112
     24 C16        -3.2818  -11.9407    1.0174 C.2       1 <0>        -0.2197
     25 C17        -3.3235  -12.4049    2.2923 C.2       1 <0>         0.0019
     26 C18        -3.0911  -11.5032    3.3608 C.ar      1 <0>        -0.1955
     27 C19        -2.8179  -10.1560    3.0758 C.ar      1 <0>         0.2428
     28 C20        -2.5848   -9.2810    4.1622 C.ar      1 <0>        -0.1182
     29 C21        -2.3121   -7.9243    3.9592 C.ar      1 <0>        -0.1236
     30 C22        -2.0902   -7.1022    5.0517 C.ar      1 <0>        -0.0374
     31 C23        -2.1382   -7.6250    6.3522 C.ar      1 <0>        -0.0785
     32 C24        -2.4020   -8.9415    6.5657 C.ar      1 <0>        -0.0891
     33 C25        -2.6316   -9.8018    5.4788 C.ar      1 <0>         0.1627
     34 N4         -2.8928  -11.1013    5.6841 N.ar      1 <0>        -0.4901
     35 C26        -3.1232  -11.9324    4.7010 C.ar      1 <0>         0.2010
     36 C27        -1.7999   -5.6625    4.8453 C.ar      1 <0>        -0.1016
     37 C28        -1.5923   -4.8284    5.9343 C.ar      1 <0>        -0.0453
     38 C29        -1.3208   -3.4723    5.6840 C.ar      1 <0>        -0.0944
     39 C30        -1.0992   -2.5671    6.7358 C.ar      1 <0>        -0.0959
     40 C31        -0.8385   -1.2607    6.4555 C.ar      1 <0>        -0.1116
     41 C32        -0.7888   -0.8087    5.1382 C.ar      1 <0>        -0.0939
     42 C33        -0.9990   -1.6577    4.0955 C.ar      1 <0>        -0.0952
     43 C34        -1.2702   -3.0147    4.3431 C.ar      1 <0>         0.1182
     44 N5         -1.4790   -3.8675    3.3344 N.ar      1 <0>        -0.4443
     45 C35        -1.7275   -5.1349    3.5462 C.ar      1 <0>         0.0932
     46 H1         -0.0991    1.4635   -2.8359 H         1 <0>         0.0611
     47 H2         -1.7820    1.6193   -2.2775 H         1 <0>         0.0612
     48 H3         -0.4509    1.5965   -1.0961 H         1 <0>         0.0611
     49 H4         -1.2657   -0.7235   -2.9046 H         1 <0>         0.0917
     50 H5          0.0655   -0.7463   -1.7232 H         1 <0>         0.0919
     51 H6         -2.2196   -3.6131   -1.9312 H         1 <0>         0.0768
     52 H7         -0.7449   -2.6165   -2.0367 H         1 <0>         0.0956
     53 H8         -0.4386   -4.8891   -0.8974 H         1 <0>         0.0876
     54 H9          0.0831   -3.4839    0.0682 H         1 <0>         0.0691
     55 H10        -3.1241   -3.7379    2.1211 H         1 <0>         0.1097
     56 H11        -1.6495   -2.7412    2.0156 H         1 <0>         0.1163
     57 H12        -3.4232   -1.4654    0.9877 H         1 <0>         0.0941
     58 H13        -3.9503   -2.8693    0.0232 H         1 <0>         0.0751
     59 H14         0.0599   -6.2005    1.3427 H         1 <0>         0.1551
     60 H15        -0.4106   -8.5659    1.8275 H         1 <0>         0.1467
     61 H16        -4.5721   -7.8845    1.1173 H         1 <0>         0.1487
     62 H17        -3.4573  -12.6157    0.1928 H         1 <0>         0.1630
     63 H18        -3.5312  -13.4462    2.4896 H         1 <0>         0.1550
     64 H19        -2.2745   -7.5207    2.9581 H         1 <0>         0.1643
     65 H20        -1.9630   -6.9732    7.1952 H         1 <0>         0.1371
     66 H21        -2.4352   -9.3272    7.5739 H         1 <0>         0.1467
     67 H22        -3.3290  -12.9695    4.9208 H         1 <0>         0.1769
     68 H23        -1.6383   -5.2094    6.9438 H         1 <0>         0.1431
     69 H24        -1.1358   -2.9058    7.7606 H         1 <0>         0.1315
     70 H25        -0.6683   -0.5656    7.2644 H         1 <0>         0.1300
     71 H26        -0.5805    0.2326    4.9415 H         1 <0>         0.1318
     72 H27        -0.9575   -1.2900    3.0808 H         1 <0>         0.1353
     73 H28        -1.8855   -5.7895    2.7018 H         1 <0>         0.1764
@<TRIPOS>BOND
     1    1    2 1
     2    1   46 1
     3    1   47 1
     4    1   48 1
     5    2    3 1
     6    2   49 1
     7    2   50 1
     8    3    4 2
     9    3    5 am
    10    5   10 1
    11    5    6 1
    12    6    7 1
    13    6   51 1
    14    6   52 1
    15    7    8 1
    16    7   53 1
    17    7   54 1
    18    8    9 1
    19    8   11 1
    20    9   10 1
    21    9   55 1
    22    9   56 1
    23   10   57 1
    24   10   58 1
    25   11   16 ar
    26   11   12 ar
    27   12   13 ar
    28   12   59 1
    29   13   14 ar
    30   13   60 1
    31   14   15 ar
    32   14   21 1
    33   15   16 ar
    34   15   61 1
    35   16   17 1
    36   17   18 1
    37   17   19 1
    38   17   20 1
    39   21   27 1
    40   21   22 am
    41   22   23 2
    42   22   24 1
    43   24   25 2
    44   24   62 1
    45   25   26 1
    46   25   63 1
    47   26   35 ar
    48   26   27 ar
    49   27   28 ar
    50   28   33 ar
    51   28   29 ar
    52   29   30 ar
    53   29   64 1
    54   30   31 ar
    55   30   36 1
    56   31   32 ar
    57   31   65 1
    58   32   33 ar
    59   32   66 1
    60   33   34 ar
    61   34   35 ar
    62   35   67 1
    63   36   45 ar
    64   36   37 ar
    65   37   38 ar
    66   37   68 1
    67   38   43 ar
    68   38   39 ar
    69   39   40 ar
    70   39   69 1
    71   40   41 ar
    72   40   70 1
    73   41   42 ar
    74   41   71 1
    75   42   43 ar
    76   42   72 1
    77   43   44 ar
    78   44   45 ar
    79   45   73 1
@<TRIPOS>MOLECULE
ZINC71318831
   47    51     0     0     0
SMALL
USER_CHARGES

@<TRIPOS>ATOM
      1 C1          0.2267    1.2917    3.1105 C.ar      1 <0>        -0.1048
      2 C2          0.7883    2.0335    2.0872 C.ar      1 <0>        -0.0492
      3 C3          1.3809    1.3967    1.0124 C.ar      1 <0>        -0.1770
      4 C4          1.4134    0.0169    0.9574 C.ar      1 <0>        -0.0607
      5 C5          0.8504   -0.7308    1.9832 C.ar      1 <0>         0.1153
      6 C6          0.2562   -0.0880    3.0617 C.ar      1 <0>        -0.0726
      7 N1          0.8813   -2.1292    1.9303 N.am      1 <0>        -0.4650
      8 C7          1.9425   -2.7946    2.4261 C.2       1 <0>         0.5305
      9 O1          2.8677   -2.1707    2.9170 O.2       1 <0>        -0.5127
     10 C8          1.9975   -4.2027    2.3852 C.2       1 <0>        -0.2210
     11 C9          0.9748   -4.9109    1.8422 C.2       1 <0>         0.0033
     12 C10        -0.1435   -4.2143    1.3195 C.ar      1 <0>        -0.1948
     13 C11        -0.1693   -2.8122    1.3805 C.ar      1 <0>         0.2404
     14 C12        -1.3002   -2.1448    0.8557 C.ar      1 <0>        -0.1170
     15 C13        -1.3968   -0.7495    0.8750 C.ar      1 <0>        -0.1287
     16 C14        -2.5222   -0.1364    0.3498 C.ar      1 <0>        -0.0197
     17 C15        -3.5579   -0.9075   -0.1974 C.ar      1 <0>        -0.0774
     18 C16        -3.4791   -2.2645   -0.2231 C.ar      1 <0>        -0.0904
     19 C17        -2.3506   -2.9170    0.3011 C.ar      1 <0>         0.1577
     20 N2         -2.2672   -4.2555    0.2770 N.ar      1 <0>        -0.4883
     21 C18        -1.2302   -4.9002    0.7452 C.ar      1 <0>         0.1970
     22 C19        -2.6328    1.3425    0.3668 C.ar      1 <0>        -0.1697
     23 C20        -3.8678    1.9592    0.6001 C.ar      1 <0>        -0.0151
     24 C21        -3.9221    3.3386    0.6066 C.ar      1 <0>        -0.2349
     25 C22        -2.7560    4.0659    0.3826 C.ar      1 <0>         0.4102
     26 N3         -1.6034    3.4512    0.1646 N.ar      1 <0>        -0.5346
     27 C23        -1.5090    2.1365    0.1567 C.ar      1 <0>         0.1618
     28 N4         -2.8024    5.4544    0.3876 N.pl3     1 <0>        -0.8471
     29 C24         1.9916    2.2090   -0.1004 C.3       1 <0>         0.5102
     30 F1          1.8362    3.5713    0.1772 F         1 <0>        -0.1642
     31 F2          3.3535    1.9068   -0.2051 F         1 <0>        -0.1718
     32 F3          1.3520    1.9028   -1.3064 F         1 <0>        -0.1720
     33 H1         -0.2315    1.7920    3.9508 H         1 <0>         0.1508
     34 H2          0.7635    3.1124    2.1275 H         1 <0>         0.1536
     35 H3          1.8758   -0.4799    0.1173 H         1 <0>         0.1444
     36 H4         -0.1825   -0.6667    3.8611 H         1 <0>         0.1432
     37 H5          2.8564   -4.7197    2.7871 H         1 <0>         0.1630
     38 H6          1.0128   -5.9897    1.8085 H         1 <0>         0.1550
     39 H7         -0.5999   -0.1548    1.2966 H         1 <0>         0.1586
     40 H8         -4.4300   -0.4167   -0.6036 H         1 <0>         0.1365
     41 H9         -4.2863   -2.8427   -0.6478 H         1 <0>         0.1451
     42 H10        -1.2128   -5.9792    0.7016 H         1 <0>         0.1761
     43 H11        -4.7567    1.3699    0.7705 H         1 <0>         0.1373
     44 H12        -4.8581    3.8477    0.7829 H         1 <0>         0.1350
     45 H13        -0.5508    1.6705   -0.0194 H         1 <0>         0.1482
     46 H14        -3.6434    5.9110    0.5463 H         1 <0>         0.4097
     47 H15        -1.9939    5.9673    0.2323 H         1 <0>         0.4063
@<TRIPOS>BOND
     1    1    6 ar
     2    1    2 ar
     3    1   33 1
     4    2    3 ar
     5    2   34 1
     6    3    4 ar
     7    3   29 1
     8    4    5 ar
     9    4   35 1
    10    5    6 ar
    11    5    7 1
    12    6   36 1
    13    7   13 1
    14    7    8 am
    15    8    9 2
    16    8   10 1
    17   10   11 2
    18   10   37 1
    19   11   12 1
    20   11   38 1
    21   12   21 ar
    22   12   13 ar
    23   13   14 ar
    24   14   19 ar
    25   14   15 ar
    26   15   16 ar
    27   15   39 1
    28   16   17 ar
    29   16   22 1
    30   17   18 ar
    31   17   40 1
    32   18   19 ar
    33   18   41 1
    34   19   20 ar
    35   20   21 ar
    36   21   42 1
    37   22   27 ar
    38   22   23 ar
    39   23   24 ar
    40   23   43 1
    41   24   25 ar
    42   24   44 1
    43   25   26 ar
    44   25   28 1
    45   26   27 ar
    46   27   45 1
    47   28   46 1
    48   28   47 1
    49   29   30 1
    50   29   31 1
    51   29   32 1
@<TRIPOS>MOLECULE
ZINC71318831
   48    52     0     0     0
SMALL
USER_CHARGES

@<TRIPOS>ATOM
      1 C1          0.2240    1.2917    3.1082 C.ar      1 <0>        -0.1055
      2 C2          0.7886    2.0335    2.0865 C.ar      1 <0>        -0.0699
      3 C3          1.3842    1.3968    1.0134 C.ar      1 <0>        -0.1869
      4 C4          1.4167    0.0169    0.9584 C.ar      1 <0>        -0.0576
      5 C5          0.8507   -0.7307    1.9826 C.ar      1 <0>         0.1208
      6 C6          0.2535   -0.0880    3.0594 C.ar      1 <0>        -0.0709
      7 N1          0.8816   -2.1292    1.9297 N.am      1 <0>        -0.4702
      8 C7          1.9429   -2.7946    2.4252 C.2       1 <0>         0.5309
      9 O1          2.8682   -2.1706    2.9160 O.2       1 <0>        -0.5022
     10 C8          1.9979   -4.2027    2.3844 C.2       1 <0>        -0.2090
     11 C9          0.9751   -4.9109    1.8416 C.2       1 <0>        -0.0011
     12 C10        -0.1433   -4.2142    1.3191 C.ar      1 <0>        -0.1850
     13 C11        -0.1691   -2.8122    1.3801 C.ar      1 <0>         0.2400
     14 C12        -1.3001   -2.1448    0.8555 C.ar      1 <0>        -0.1250
     15 C13        -1.3967   -0.7495    0.8748 C.ar      1 <0>        -0.0953
     16 C14        -2.5222   -0.1364    0.3498 C.ar      1 <0>        -0.0720
     17 C15        -3.5580   -0.9075   -0.1972 C.ar      1 <0>        -0.0787
     18 C16        -3.4792   -2.2645   -0.2229 C.ar      1 <0>        -0.0796
     19 C17        -2.3506   -2.9170    0.3012 C.ar      1 <0>         0.1789
     20 N2         -2.2672   -4.2555    0.2770 N.ar      1 <0>        -0.4909
     21 C18        -1.2301   -4.9002    0.7450 C.ar      1 <0>         0.2178
     22 C19        -2.6328    1.3425    0.3668 C.ar      1 <0>        -0.0726
     23 C20        -1.5036    2.1411    0.1497 C.ar      1 <0>         0.0267
     24 C21        -1.6550    3.5131    0.1748 C.ar      1 <0>        -0.1861
     25 C22        -2.9158    4.0536    0.4133 C.ar      1 <0>         0.4528
     26 N3         -3.9639    3.2696    0.6153 N.ar      1 <0>        -0.4933
     27 C23        -3.8617    1.9556    0.5931 C.ar      1 <0>         0.1497
     28 N4         -3.0764    5.4333    0.4401 N.pl3     1 <0>        -0.8160
     29 C24         1.9982    2.2090   -0.0976 C.3       1 <0>         0.5078
     30 F1          1.8421    3.5713    0.1796 F         1 <0>        -0.1721
     31 F2          3.3604    1.9067   -0.1984 F         1 <0>        -0.1603
     32 F3          1.3620    1.9030   -1.3054 F         1 <0>        -0.1731
     33 H1         -0.2366    1.7921    3.9472 H         1 <0>         0.1554
     34 H2          0.7639    3.1125    2.1268 H         1 <0>         0.1546
     35 H3          1.8815   -0.4798    0.1196 H         1 <0>         0.1506
     36 H4         -0.1876   -0.6667    3.8575 H         1 <0>         0.1492
     37 H5          2.8569   -4.7196    2.7861 H         1 <0>         0.1689
     38 H6          1.0131   -5.9897    1.8079 H         1 <0>         0.1611
     39 H7         -0.5997   -0.1548    1.2962 H         1 <0>         0.1588
     40 H8         -4.4302   -0.4167   -0.6033 H         1 <0>         0.1399
     41 H9         -4.2865   -2.8427   -0.6475 H         1 <0>         0.1540
     42 H10        -1.2128   -5.9792    0.7015 H         1 <0>         0.1843
     43 H11        -0.5372    1.6946   -0.0326 H         1 <0>         0.1625
     44 H12        -0.8053    4.1595    0.0117 H         1 <0>         0.1839
     45 H13        -4.7398    1.3485    0.7568 H         1 <0>         0.2119
     46 H14        -2.3129    6.0134    0.2932 H         1 <0>         0.4424
     47 H15        -3.9519    5.8166    0.6056 H         1 <0>         0.4236
     48 H16        -4.8306    3.6730    0.7794 H         1 <0>         0.4467
@<TRIPOS>BOND
     1    1    6 ar
     2    1    2 ar
     3    1   33 1
     4    2    3 ar
     5    2   34 1
     6    3    4 ar
     7    3   29 1
     8    4    5 ar
     9    4   35 1
    10    5    6 ar
    11    5    7 1
    12    6   36 1
    13    7   13 1
    14    7    8 am
    15    8    9 2
    16    8   10 1
    17   10   11 2
    18   10   37 1
    19   11   12 1
    20   11   38 1
    21   12   21 ar
    22   12   13 ar
    23   13   14 ar
    24   14   19 ar
    25   14   15 ar
    26   15   16 ar
    27   15   39 1
    28   16   17 ar
    29   16   22 1
    30   17   18 ar
    31   17   40 1
    32   18   19 ar
    33   18   41 1
    34   19   20 ar
    35   20   21 ar
    36   21   42 1
    37   22   27 ar
    38   22   23 ar
    39   23   24 ar
    40   23   43 1
    41   24   25 ar
    42   24   44 1
    43   25   26 ar
    44   25   28 1
    45   26   27 ar
    46   26   48 1
    47   27   45 1
    48   28   46 1
    49   28   47 1
    50   29   30 1
    51   29   31 1
    52   29   32 1
@<TRIPOS>MOLECULE
ZINC71329484
   47    51     0     0     0
SMALL
USER_CHARGES

@<TRIPOS>ATOM
      1 C1          0.6634    0.3297    2.2563 C.ar      1 <0>        -0.0775
      2 C2          1.8216    1.0425    2.2456 C.ar      1 <0>        -0.0883
      3 C3          2.6966    0.9525    1.1506 C.ar      1 <0>         0.1572
      4 C4          2.3582    0.1121    0.0615 C.ar      1 <0>        -0.1152
      5 C5          1.1642   -0.6151    0.0878 C.ar      1 <0>        -0.1317
      6 C6          0.3218   -0.5040    1.1821 C.ar      1 <0>        -0.0158
      7 C7         -0.9471   -1.2711    1.2177 C.ar      1 <0>        -0.1729
      8 C8         -2.1011   -0.7084    1.7760 C.ar      1 <0>        -0.0154
      9 C9         -3.2591   -1.4600    1.7864 C.ar      1 <0>        -0.2344
     10 C10        -3.2418   -2.7429    1.2456 C.ar      1 <0>         0.4106
     11 N1         -2.1326   -3.2458    0.7253 N.ar      1 <0>        -0.5250
     12 C11        -1.0086   -2.5581    0.6912 C.ar      1 <0>         0.1588
     13 N2         -4.4030   -3.5055    1.2523 N.pl3     1 <0>        -0.8462
     14 C12         3.2472    0.0294   -1.0359 C.ar      1 <0>         0.2389
     15 C13         4.4261    0.7893   -0.9883 C.ar      1 <0>        -0.1926
     16 C14         5.3359    0.7268   -2.0733 C.2       1 <0>         0.0038
     17 C15         5.0435   -0.0685   -3.1337 C.2       1 <0>        -0.2200
     18 C16         3.8501   -0.8188   -3.1500 C.2       1 <0>         0.5308
     19 O1          3.5992   -1.5290   -4.1087 O.2       1 <0>        -0.5122
     20 N3          2.9836   -0.7624   -2.1200 N.am      1 <0>        -0.4641
     21 C17         1.8050   -1.5177   -2.1599 C.ar      1 <0>         0.1025
     22 C18         0.6333   -0.9531   -2.6473 C.ar      1 <0>        -0.0419
     23 C19        -0.5277   -1.6995   -2.6858 C.ar      1 <0>        -0.1447
     24 C20        -0.5245   -3.0104   -2.2384 C.ar      1 <0>         0.1794
     25 C21         0.6424   -3.5750   -1.7517 C.ar      1 <0>        -0.2210
     26 C22         1.8074   -2.8339   -1.7177 C.ar      1 <0>        -0.0342
     27 C23         0.6428   -5.0013   -1.2651 C.3       1 <0>         0.5114
     28 F1          1.9260   -5.3435   -0.8250 F         1 <0>        -0.1717
     29 F2         -0.2636   -5.1336   -0.2077 F         1 <0>        -0.1515
     30 F3          0.2665   -5.8509   -2.3110 F         1 <0>        -0.1667
     31 F4         -1.6616   -3.7389   -2.2765 F         1 <0>        -0.1019
     32 C24         4.6814    1.5979    0.1358 C.ar      1 <0>         0.1971
     33 N4          3.8404    1.6537    1.1352 N.ar      1 <0>        -0.4871
     34 H1          0.0002    0.4034    3.1054 H         1 <0>         0.1372
     35 H2          2.0691    1.6799    3.0815 H         1 <0>         0.1456
     36 H3          0.9000   -1.2574   -0.7392 H         1 <0>         0.1528
     37 H4         -2.0857    0.2894    2.1890 H         1 <0>         0.1374
     38 H5         -4.1677   -1.0576    2.2094 H         1 <0>         0.1350
     39 H6         -0.1249   -2.9996    0.2546 H         1 <0>         0.1443
     40 H7         -5.2188   -3.1434    1.6321 H         1 <0>         0.4095
     41 H8         -4.3980   -4.4000    0.8772 H         1 <0>         0.4067
     42 H9          6.2486    1.3039   -2.0567 H         1 <0>         0.1555
     43 H10         5.7271   -0.1265   -3.9677 H         1 <0>         0.1637
     44 H11         0.6302    0.0692   -2.9956 H         1 <0>         0.1545
     45 H12        -1.4389   -1.2608   -3.0647 H         1 <0>         0.1638
     46 H13         2.7186   -3.2763   -1.3428 H         1 <0>         0.1592
     47 H14         5.5887    2.1826    0.1730 H         1 <0>         0.1765
@<TRIPOS>BOND
     1    1    6 ar
     2    1    2 ar
     3    1   34 1
     4    2    3 ar
     5    2   35 1
     6    3   33 ar
     7    3    4 ar
     8    4    5 ar
     9    4   14 ar
    10    5    6 ar
    11    5   36 1
    12    6    7 1
    13    7   12 ar
    14    7    8 ar
    15    8    9 ar
    16    8   37 1
    17    9   10 ar
    18    9   38 1
    19   10   11 ar
    20   10   13 1
    21   11   12 ar
    22   12   39 1
    23   13   40 1
    24   13   41 1
    25   14   20 1
    26   14   15 ar
    27   15   16 1
    28   15   32 ar
    29   16   17 2
    30   16   42 1
    31   17   18 1
    32   17   43 1
    33   18   19 2
    34   18   20 am
    35   20   21 1
    36   21   26 ar
    37   21   22 ar
    38   22   23 ar
    39   22   44 1
    40   23   24 ar
    41   23   45 1
    42   24   25 ar
    43   24   31 1
    44   25   26 ar
    45   25   27 1
    46   26   46 1
    47   27   28 1
    48   27   29 1
    49   27   30 1
    50   32   33 ar
    51   32   47 1
@<TRIPOS>MOLECULE
ZINC71329484
   48    52     0     0     0
SMALL
USER_CHARGES

@<TRIPOS>ATOM
      1 C1          0.6491    0.3512    2.2225 C.ar      1 <0>        -0.0788
      2 C2          1.8073    1.0638    2.2124 C.ar      1 <0>        -0.0773
      3 C3          2.6872    0.9667    1.1219 C.ar      1 <0>         0.1783
      4 C4          2.3537    0.1192    0.0368 C.ar      1 <0>        -0.1230
      5 C5          1.1595   -0.6077    0.0626 C.ar      1 <0>        -0.0987
      6 C6          0.3121   -0.4895    1.1523 C.ar      1 <0>        -0.0676
      7 C7         -0.9570   -1.2562    1.1872 C.ar      1 <0>        -0.0753
      8 C8         -1.0150   -2.5564    0.6714 C.ar      1 <0>         0.0206
      9 C9         -2.2180   -3.2315    0.7261 C.ar      1 <0>        -0.1796
     10 C10        -3.3257   -2.6022    1.2881 C.ar      1 <0>         0.4534
     11 N1         -3.2369   -1.3706    1.7670 N.ar      1 <0>        -0.4930
     12 C11        -2.1054   -0.6952    1.7385 C.ar      1 <0>         0.1495
     13 N2         -4.5398   -3.2748    1.3469 N.pl3     1 <0>        -0.8144
     14 C12         3.2475    0.0292   -1.0559 C.ar      1 <0>         0.2383
     15 C13         4.4262    0.7894   -1.0081 C.ar      1 <0>        -0.1823
     16 C14         5.3410    0.7197   -2.0885 C.2       1 <0>        -0.0005
     17 C15         5.0532   -0.0825   -3.1450 C.2       1 <0>        -0.2079
     18 C16         3.8599   -0.8328   -3.1617 C.2       1 <0>         0.5313
     19 O1          3.6132   -1.5492   -4.1170 O.2       1 <0>        -0.5016
     20 N3          2.9887   -0.7695   -2.1360 N.am      1 <0>        -0.4694
     21 C17         1.8102   -1.5251   -2.1764 C.ar      1 <0>         0.1100
     22 C18         0.6385   -0.9604   -2.6636 C.ar      1 <0>        -0.0409
     23 C19        -0.5223   -1.7070   -2.7025 C.ar      1 <0>        -0.1422
     24 C20        -0.5190   -3.0180   -2.2555 C.ar      1 <0>         0.1582
     25 C21         0.6480   -3.5827   -1.7689 C.ar      1 <0>        -0.2271
     26 C22         1.8128   -2.8414   -1.7345 C.ar      1 <0>        -0.0314
     27 C23         0.6485   -5.0091   -1.2828 C.3       1 <0>         0.5159
     28 F1          1.9317   -5.3513   -0.8427 F         1 <0>        -0.1613
     29 F2         -0.2580   -5.1419   -0.2255 F         1 <0>        -0.1761
     30 F3          0.2724   -5.8585   -2.3290 F         1 <0>        -0.1570
     31 F4         -1.6560   -3.7467   -2.2940 F         1 <0>        -0.1098
     32 C24         4.6767    1.6052    0.1118 C.ar      1 <0>         0.2179
     33 N4          3.8312    1.6677    1.1071 N.ar      1 <0>        -0.4894
     34 H1         -0.0180    0.4306    3.0682 H         1 <0>         0.1407
     35 H2          2.0511    1.7067    3.0452 H         1 <0>         0.1546
     36 H3          0.8989   -1.2554   -0.7615 H         1 <0>         0.1526
     37 H4         -0.1398   -3.0200    0.2406 H         1 <0>         0.1603
     38 H5         -2.2991   -4.2357    0.3372 H         1 <0>         0.1850
     39 H6         -2.0700    0.3057    2.1428 H         1 <0>         0.2124
     40 H7         -4.6119   -4.1770    0.9977 H         1 <0>         0.4428
     41 H8         -5.3155   -2.8424    1.7371 H         1 <0>         0.4238
     42 H9          6.2536    1.2969   -2.0715 H         1 <0>         0.1616
     43 H10         5.7406   -0.1459   -3.9756 H         1 <0>         0.1697
     44 H11         0.6353    0.0620   -3.0116 H         1 <0>         0.1612
     45 H12        -1.4336   -1.2684   -3.0813 H         1 <0>         0.1690
     46 H13         2.7240   -3.2838   -1.3597 H         1 <0>         0.1659
     47 H14         5.5838    2.1902    0.1494 H         1 <0>         0.1848
     48 H15        -4.0246   -0.9560    2.1524 H         1 <0>         0.4468
@<TRIPOS>BOND
     1    1    6 ar
     2    1    2 ar
     3    1   34 1
     4    2    3 ar
     5    2   35 1
     6    3   33 ar
     7    3    4 ar
     8    4    5 ar
     9    4   14 ar
    10    5    6 ar
    11    5   36 1
    12    6    7 1
    13    7   12 ar
    14    7    8 ar
    15    8    9 ar
    16    8   37 1
    17    9   10 ar
    18    9   38 1
    19   10   11 ar
    20   10   13 1
    21   11   12 ar
    22   11   48 1
    23   12   39 1
    24   13   40 1
    25   13   41 1
    26   14   20 1
    27   14   15 ar
    28   15   16 1
    29   15   32 ar
    30   16   17 2
    31   16   42 1
    32   17   18 1
    33   17   43 1
    34   18   19 2
    35   18   20 am
    36   20   21 1
    37   21   26 ar
    38   21   22 ar
    39   22   23 ar
    40   22   44 1
    41   23   24 ar
    42   23   45 1
    43   24   25 ar
    44   24   31 1
    45   25   26 ar
    46   25   27 1
    47   26   46 1
    48   27   28 1
    49   27   29 1
    50   27   30 1
    51   32   33 ar
    52   32   47 1
