@<TRIPOS>MOLECULE
ZINC13470225
   22    21     0     0     0
SMALL
USER_CHARGES

@<TRIPOS>ATOM
      1 C1          1.0700    2.4799    0.2958 C.3       1 <0>        -0.0609
      2 C2          0.4048    2.7521    1.6465 C.3       1 <0>        -0.1787
      3 C3         -0.1719    4.1444    1.6510 C.2       1 <0>         0.4941
      4 O1         -0.0612    4.8532    0.6652 O.co2     1 <0>        -0.7030
      5 O2         -0.7492    4.5619    2.6404 O.co2     1 <0>        -0.7303
      6 C4          1.6517    1.0648    0.2897 C.3       1 <0>        -0.1298
      7 H1          0.8723    0.3505    0.5550 H         1 <0>         0.0609
      8 C5          2.7912    0.9775    1.3070 C.3       1 <0>        -0.6932
      9 P1          3.1859   -0.7730    1.6285 P.3       1 <0>         2.2432
     10 O3          1.9061   -1.5164    2.0718 O.2       1 <0>        -1.1063
     11 O4          3.7380   -1.4216    0.3396 O.3       1 <0>        -1.0847
     12 O5          4.2927   -0.8682    2.7938 O.3       1 <0>        -0.9068
     13 C6          2.1798    0.7447   -1.0849 C.2       1 <0>         0.5210
     14 O6          3.1479    1.3441   -1.5208 O.co2     1 <0>        -0.7189
     15 O7          1.6390   -0.1136   -1.7611 O.co2     1 <0>        -0.7063
     16 H2          0.3296    2.5718   -0.4988 H         1 <0>         0.0414
     17 H3          1.8698    3.2023    0.1325 H         1 <0>         0.0450
     18 H4         -0.3929    2.0279    1.8112 H         1 <0>         0.0521
     19 H5          1.1459    2.6633    2.4409 H         1 <0>         0.0499
     20 H6          3.6722    1.4816    0.9098 H         1 <0>         0.0666
     21 H7          2.4860    1.4578    2.2366 H         1 <0>         0.0493
     22 H8          4.5512   -1.7727    3.0177 H         1 <0>         0.3956
@<TRIPOS>BOND
     1    1    2 1
     2    1    6 1
     3    1   16 1
     4    1   17 1
     5    2    3 1
     6    2   18 1
     7    2   19 1
     8    3    4 2
     9    3    5 1
    10    6    7 1
    11    6    8 1
    12    6   13 1
    13    8    9 1
    14    8   20 1
    15    8   21 1
    16    9   10 2
    17    9   11 1
    18    9   12 1
    19   12   22 1
    20   13   14 2
    21   13   15 1
@<TRIPOS>MOLECULE
ZINC28469972
   22    21     0     0     0
SMALL
USER_CHARGES

@<TRIPOS>ATOM
      1 C1         -0.0187    1.5258    0.0104 C.3       1 <0>        -0.0601
      2 C2          0.0021   -0.0041    0.0020 C.3       1 <0>        -0.1748
      3 C3         -1.4117   -0.5257    0.0127 C.2       1 <0>         0.4971
      4 O1         -2.3491    0.2539    0.0259 O.co2     1 <0>        -0.7103
      5 O2         -1.6182   -1.7273    0.0082 O.co2     1 <0>        -0.7289
      6 C4          1.4167    2.0553   -0.0004 C.3       1 <0>        -0.1318
      7 H1          1.9535    1.6326   -0.8497 H         1 <0>         0.0561
      8 C5          1.3967    3.5807   -0.1178 C.3       1 <0>        -0.6913
      9 P1          3.0576    4.1769   -0.5753 P.3       1 <0>         2.2389
     10 O3          4.0924    3.6510    0.4443 O.2       1 <0>        -1.0743
     11 O4          3.4184    3.6630   -1.9870 O.3       1 <0>        -1.1088
     12 O5          3.0700    5.7868   -0.5708 O.3       1 <0>        -0.9072
     13 C6          2.1081    1.6590    1.2786 C.2       1 <0>         0.5258
     14 O6          3.1106    0.9661    1.2403 O.co2     1 <0>        -0.6914
     15 O7          1.6649    2.0311    2.3517 O.co2     1 <0>        -0.7287
     16 H2         -0.5459    1.8868   -0.8726 H         1 <0>         0.0283
     17 H3         -0.5289    1.8773    0.9072 H         1 <0>         0.0483
     18 H4          0.5123   -0.3556   -0.8948 H         1 <0>         0.0485
     19 H5          0.5293   -0.3651    0.8851 H         1 <0>         0.0614
     20 H6          0.6805    3.8768   -0.8843 H         1 <0>         0.0430
     21 H7          1.1055    4.0149    0.8387 H         1 <0>         0.0642
     22 H8          3.9243    6.1742   -0.8057 H         1 <0>         0.3960
@<TRIPOS>BOND
     1    1    2 1
     2    1    6 1
     3    1   16 1
     4    1   17 1
     5    2    3 1
     6    2   18 1
     7    2   19 1
     8    3    4 2
     9    3    5 1
    10    6    7 1
    11    6    8 1
    12    6   13 1
    13    8    9 1
    14    8   20 1
    15    8   21 1
    16    9   10 2
    17    9   11 1
    18    9   12 1
    19   12   22 1
    20   13   14 2
    21   13   15 1
