@<TRIPOS>MOLECULE
ZINC03860715
   51    55     0     0     0
SMALL
USER_CHARGES

@<TRIPOS>ATOM
      1 C1         -0.0184    1.5028    0.0103 C.3       1 <0>        -0.1185
      2 C2          0.0021   -0.0041    0.0020 C.2       1 <0>        -0.1325
      3 C3          1.1453   -0.6436   -0.0123 C.2       1 <0>        -0.1628
      4 C4         -1.2926   -0.7753    0.0102 C.3       1 <0>         0.1149
      5 H1         -1.1039   -1.8433   -0.0986 H         1 <0>         0.0987
      6 C5         -2.0918   -0.4898    1.3069 C.3       1 <0>        -0.0891
      7 C6         -3.5081   -0.4742    0.8002 C.ar      1 <0>        -0.2295
      8 C7         -3.4481   -0.3718   -0.5956 C.ar      1 <0>         0.1873
      9 C8         -4.6239   -0.3423   -1.3582 C.ar      1 <0>        -0.1804
     10 C9         -5.8205   -0.4076   -0.6939 C.ar      1 <0>         0.0132
     11 C10        -5.8825   -0.5036    0.6974 C.ar      1 <0>        -0.2860
     12 C11        -4.7068   -0.5479    1.4786 C.ar      1 <0>         0.2416
     13 O1         -4.7585   -0.6698    2.8173 O.3       1 <0>        -0.2868
     14 C12        -5.9454   -0.2965    3.5212 C.3       1 <0>         0.0647
     15 H2         -6.0464    0.7884    3.5531 H         1 <0>         0.1092
     16 C13        -5.8508   -0.8736    4.9450 C.3       1 <0>         0.0740
     17 O2         -5.5552   -2.2669    4.8376 O.3       1 <0>        -0.2985
     18 C14        -6.2924   -3.0174    3.9767 C.ar      1 <0>         0.1550
     19 C15        -6.2407   -4.4025    4.0931 C.ar      1 <0>        -0.2031
     20 C16        -6.9719   -5.2022    3.2333 C.ar      1 <0>         0.1450
     21 C17        -7.7627   -4.6182    2.2482 C.ar      1 <0>         0.0763
     22 C18        -7.8140   -3.2403    2.1349 C.ar      1 <0>        -0.1324
     23 C19        -7.0823   -2.4392    2.9969 C.ar      1 <0>        -0.1539
     24 C20        -7.1665   -0.9318    2.8433 C.3       1 <0>        -0.1193
     25 H3         -8.0766   -0.5701    3.3217 H         1 <0>         0.1275
     26 C21        -7.1778   -0.5590    1.3910 C.2       1 <0>         0.4209
     27 O3         -8.2146   -0.3056    0.8138 O.2       1 <0>        -0.4423
     28 O4         -8.4829   -5.4000    1.3987 O.3       1 <0>        -0.3032
     29 C22        -9.2719   -4.7310    0.4128 C.3       1 <0>         0.0252
     30 O5         -6.9186   -6.5560    3.3506 O.3       1 <0>        -0.2987
     31 C23        -6.0864   -7.0853    4.3847 C.3       1 <0>         0.0226
     32 O6         -2.1719   -0.3050   -1.0297 O.3       1 <0>        -0.2819
     33 H4          1.0042    1.8801    0.0026 H         1 <0>         0.0670
     34 H5         -0.5455    1.8639   -0.8728 H         1 <0>         0.0715
     35 H6         -0.5286    1.8543    0.9071 H         1 <0>         0.0665
     36 H7          1.1599   -1.7234   -0.0183 H         1 <0>         0.1027
     37 H8          2.0732   -0.0909   -0.0182 H         1 <0>         0.1107
     38 H9         -1.9478   -1.2864    2.0369 H         1 <0>         0.0969
     39 H10        -1.8181    0.4774    1.7285 H         1 <0>         0.0944
     40 H11        -4.5878   -0.2700   -2.4352 H         1 <0>         0.1470
     41 H12        -6.7393   -0.3839   -1.2611 H         1 <0>         0.1425
     42 H13        -5.0559   -0.3696    5.4948 H         1 <0>         0.1276
     43 H14        -6.8008   -0.7372    5.4618 H         1 <0>         0.0945
     44 H15        -5.6269   -4.8555    4.8576 H         1 <0>         0.1487
     45 H16        -8.4273   -2.7866    1.3705 H         1 <0>         0.1399
     46 H17        -8.6240   -4.1275   -0.2229 H         1 <0>         0.0536
     47 H18        -9.7939   -5.4687   -0.1967 H         1 <0>         0.1035
     48 H19        -9.9997   -4.0866    0.9058 H         1 <0>         0.0552
     49 H20        -5.0573   -6.7645    4.2228 H         1 <0>         0.0581
     50 H21        -6.4326   -6.7209    5.3519 H         1 <0>         0.0585
     51 H22        -6.1344   -8.1741    4.3682 H         1 <0>         0.1041
@<TRIPOS>BOND
     1    1    2 1
     2    1   33 1
     3    1   34 1
     4    1   35 1
     5    2    3 2
     6    2    4 1
     7    3   36 1
     8    3   37 1
     9    4    5 1
    10    4   32 1
    11    4    6 1
    12    6    7 1
    13    6   38 1
    14    6   39 1
    15    7   12 ar
    16    7    8 ar
    17    8    9 ar
    18    8   32 1
    19    9   10 ar
    20    9   40 1
    21   10   11 ar
    22   10   41 1
    23   11   26 1
    24   11   12 ar
    25   12   13 1
    26   13   14 1
    27   14   15 1
    28   14   24 1
    29   14   16 1
    30   16   17 1
    31   16   42 1
    32   16   43 1
    33   17   18 1
    34   18   23 ar
    35   18   19 ar
    36   19   20 ar
    37   19   44 1
    38   20   21 ar
    39   20   30 1
    40   21   22 ar
    41   21   28 1
    42   22   23 ar
    43   22   45 1
    44   23   24 1
    45   24   25 1
    46   24   26 1
    47   26   27 2
    48   28   29 1
    49   29   46 1
    50   29   47 1
    51   29   48 1
    52   30   31 1
    53   31   49 1
    54   31   50 1
    55   31   51 1
