@<TRIPOS>MOLECULE
ZINC13831229
   65    70     0     0     0
SMALL
USER_CHARGES

@<TRIPOS>ATOM
      1 C1         -2.0927    0.6313   -0.5689 C.ar      1 <0>        -0.1231
      2 C2         -3.0798    0.7519    0.4011 C.ar      1 <0>        -0.0799
      3 C3         -3.3236   -0.3016    1.2591 C.ar      1 <0>        -0.0820
      4 C4         -2.5838   -1.4595    1.1414 C.ar      1 <0>        -0.1033
      5 C5         -1.5742   -1.6084    0.1639 C.ar      1 <0>        -0.1072
      6 C6         -1.3562   -0.5034   -0.6962 C.ar      1 <0>        -0.0635
      7 C7         -0.8946   -2.8910    0.1815 C.2       1 <0>        -0.0634
      8 C8         -1.2627   -3.8182    1.0988 C.2       1 <0>        -0.1297
      9 S1         -2.5653   -3.0081    2.0069 S.3       1 <0>         0.0748
     10 C9         -0.7157   -5.1758    1.2982 C.ar      1 <0>         0.3071
     11 C10        -1.2260   -6.0080    2.3019 C.ar      1 <0>        -0.2582
     12 C11        -0.6818   -7.2701    2.4501 C.ar      1 <0>         0.1966
     13 N1          0.2980   -7.6522    1.6454 N.ar      1 <0>        -0.5578
     14 C12         0.7625   -6.8443    0.7033 C.ar      1 <0>         0.5645
     15 N2          0.2679   -5.6302    0.5219 N.ar      1 <0>        -0.5506
     16 N3          1.7890   -7.2843   -0.1173 N.pl3     1 <0>        -0.6396
     17 C13         2.2383   -8.5990   -0.0259 C.ar      1 <0>         0.2030
     18 C14         3.5947   -8.8804   -0.1620 C.ar      1 <0>        -0.1525
     19 C15         4.0420  -10.1789   -0.0727 C.ar      1 <0>        -0.0739
     20 C16         3.1326  -11.2156    0.1555 C.ar      1 <0>        -0.1606
     21 C17         1.7712  -10.9297    0.2922 C.ar      1 <0>        -0.0414
     22 C18         1.3309   -9.6285    0.2070 C.ar      1 <0>        -0.1141
     23 C19         3.6087  -12.6089    0.2513 C.2       1 <0>         0.5713
     24 O1          3.0241  -13.4934   -0.3439 O.2       1 <0>        -0.5158
     25 N4          4.6915  -12.9011    0.9987 N.am      1 <0>        -0.6198
     26 C20         5.1265  -14.2935    1.1739 C.3       1 <0>         0.1161
     27 C21         5.2477  -14.5874    2.6725 C.3       1 <0>        -0.1547
     28 C22         6.1736  -13.5537    3.3177 C.3       1 <0>         0.0296
     29 C23         5.5771  -12.1547    3.1465 C.3       1 <0>        -0.1571
     30 C24         5.4629  -11.8329    1.6487 C.3       1 <0>         0.0965
     31 N5          6.3185  -13.8521    4.7488 N.4       1 <0>        -0.3932
     32 C25         6.9782  -15.1701    4.9328 C.3       1 <0>        -0.0065
     33 C26         7.5533  -15.0812    6.3688 C.3       1 <0>        -0.1453
     34 C27         8.0201  -13.6105    6.4637 C.3       1 <0>        -0.1447
     35 C28         7.2112  -12.8615    5.3885 C.3       1 <0>        -0.0094
     36 H1         -1.9095    1.4571   -1.2403 H         1 <0>         0.1325
     37 H2         -3.6523    1.6640    0.4837 H         1 <0>         0.1396
     38 H3         -4.0881   -0.2195    2.0175 H         1 <0>         0.1361
     39 H4         -0.5967   -0.5640   -1.4616 H         1 <0>         0.1293
     40 H5         -0.1072   -3.1035   -0.5264 H         1 <0>         0.1476
     41 H6         -2.0256   -5.6717    2.9453 H         1 <0>         0.1513
     42 H7         -1.0516   -7.9375    3.2145 H         1 <0>         0.1781
     43 H8          2.1944   -6.6764   -0.7552 H         1 <0>         0.4283
     44 H9          4.2968   -8.0789   -0.3383 H         1 <0>         0.1353
     45 H10         5.0945  -10.3966   -0.1791 H         1 <0>         0.1339
     46 H11         1.0661  -11.7285    0.4685 H         1 <0>         0.1340
     47 H12         0.2797   -9.4064    0.3165 H         1 <0>         0.1396
     48 H13         4.3923  -14.9646    0.7282 H         1 <0>         0.1136
     49 H14         6.0946  -14.4370    0.6939 H         1 <0>         0.0811
     50 H15         4.2622  -14.5319    3.1349 H         1 <0>         0.0918
     51 H16         5.6614  -15.5856    2.8152 H         1 <0>         0.1002
     52 H17         7.1516  -13.5926    2.8380 H         1 <0>         0.1384
     53 H18         4.5885  -12.1222    3.6045 H         1 <0>         0.0931
     54 H19         6.2253  -11.4216    3.6266 H         1 <0>         0.1000
     55 H20         6.4579  -11.7798    1.2067 H         1 <0>         0.0838
     56 H21         4.9507  -10.8799    1.5163 H         1 <0>         0.1218
     57 H22         6.2504  -15.9782    4.8593 H         1 <0>         0.1352
     58 H23         7.7787  -15.3046    4.2054 H         1 <0>         0.1338
     59 H24         6.7794  -15.2888    7.1078 H         1 <0>         0.0979
     60 H25         8.3960  -15.7619    6.4896 H         1 <0>         0.1168
     61 H26         7.8002  -13.2069    7.4521 H         1 <0>         0.1049
     62 H27         9.0872  -13.5379    6.2534 H         1 <0>         0.1037
     63 H28         7.8859  -12.4356    4.6459 H         1 <0>         0.1302
     64 H29         6.6189  -12.0726    5.8519 H         1 <0>         0.1313
     65 H30         5.4153  -13.8482    5.1986 H         1 <0>         0.4250
@<TRIPOS>BOND
     1    1    6 ar
     2    1    2 ar
     3    1   36 1
     4    2    3 ar
     5    2   37 1
     6    3    4 ar
     7    3   38 1
     8    4    9 1
     9    4    5 ar
    10    5    6 ar
    11    5    7 1
    12    6   39 1
    13    7    8 2
    14    7   40 1
    15    8    9 1
    16    8   10 1
    17   10   15 ar
    18   10   11 ar
    19   11   12 ar
    20   11   41 1
    21   12   13 ar
    22   12   42 1
    23   13   14 ar
    24   14   15 ar
    25   14   16 1
    26   16   17 1
    27   16   43 1
    28   17   22 ar
    29   17   18 ar
    30   18   19 ar
    31   18   44 1
    32   19   20 ar
    33   19   45 1
    34   20   21 ar
    35   20   23 1
    36   21   22 ar
    37   21   46 1
    38   22   47 1
    39   23   24 2
    40   23   25 am
    41   25   30 1
    42   25   26 1
    43   26   27 1
    44   26   48 1
    45   26   49 1
    46   27   28 1
    47   27   50 1
    48   27   51 1
    49   28   29 1
    50   28   31 1
    51   28   52 1
    52   29   30 1
    53   29   53 1
    54   29   54 1
    55   30   55 1
    56   30   56 1
    57   31   35 1
    58   31   32 1
    59   31   65 1
    60   32   33 1
    61   32   57 1
    62   32   58 1
    63   33   34 1
    64   33   59 1
    65   33   60 1
    66   34   35 1
    67   34   61 1
    68   34   62 1
    69   35   63 1
    70   35   64 1
