@<TRIPOS>MOLECULE
ZINC16978457
   23    25     0     0     0
SMALL
USER_CHARGES
1H-perimidin-2-amine
@<TRIPOS>ATOM
      1 C1         -0.0126    1.0758    0.0080 C.ar      1 <0>        -0.0644
      2 C2          1.1684    1.7589    0.0003 C.ar      1 <0>        -0.1560
      3 C3          1.1648    3.1641    0.0079 C.ar      1 <0>         0.0120
      4 C4          2.3527    3.9162    0.0011 C.ar      1 <0>        -0.1679
      5 C5          2.2966    5.2797    0.0094 C.ar      1 <0>        -0.0618
      6 C6          1.0843    5.9600    0.0246 C.ar      1 <0>        -0.1634
      7 C7         -0.1117    5.2576    0.0318 C.ar      1 <0>         0.1844
      8 C8         -0.0725    3.8424    0.0234 C.ar      1 <0>        -0.1309
      9 C9         -1.2784    3.1168    0.0310 C.ar      1 <0>         0.1921
     10 C10        -1.2364    1.7399    0.0175 C.ar      1 <0>        -0.2005
     11 N1         -2.4710    3.8313    0.0467 N.pl3     1 <0>        -0.6658
     12 C11        -2.4396    5.2012    0.0541 C.2       1 <0>         0.6386
     13 N2         -1.3191    5.8822    0.0471 N.2       1 <0>        -0.6001
     14 N3         -3.6276    5.8874    0.0691 N.pl3     1 <0>        -0.8298
     15 H1          0.0021   -0.0041    0.0020 H         1 <0>         0.1267
     16 H2          2.1046    1.2205   -0.0118 H         1 <0>         0.1287
     17 H3          3.3093    3.4150   -0.0110 H         1 <0>         0.1271
     18 H4          3.2171    5.8445    0.0037 H         1 <0>         0.1248
     19 H5          1.0737    7.0400    0.0312 H         1 <0>         0.1282
     20 H6         -2.1560    1.1735    0.0188 H         1 <0>         0.1259
     21 H7         -3.3204    3.3628    0.0520 H         1 <0>         0.4140
     22 H8         -3.6274    6.8574    0.0743 H         1 <0>         0.4276
     23 H9         -4.4678    5.4026    0.0745 H         1 <0>         0.4105
@<TRIPOS>BOND
     1    1   10 ar
     2    1    2 ar
     3    1   15 1
     4    2    3 ar
     5    2   16 1
     6    3    8 ar
     7    3    4 ar
     8    4    5 ar
     9    4   17 1
    10    5    6 ar
    11    5   18 1
    12    6    7 ar
    13    6   19 1
    14    7   13 1
    15    7    8 ar
    16    8    9 ar
    17    9   10 ar
    18    9   11 1
    19   10   20 1
    20   11   12 1
    21   11   21 1
    22   12   13 2
    23   12   14 1
    24   14   22 1
    25   14   23 1
