@<TRIPOS>MOLECULE
ZINC00896484
   23    24     0     0     0
SMALL
USER_CHARGES

@<TRIPOS>ATOM
      1 C1         -0.0167    1.3793    0.0096 C.ar      1 <0>        -0.1251
      2 C2          1.1680    2.0938    0.0022 C.ar      1 <0>        -0.0904
      3 C3          2.3785    1.4297   -0.0129 C.ar      1 <0>        -0.0648
      4 C4          2.4050    0.0334   -0.0206 C.ar      1 <0>         0.1769
      5 C5          1.2052   -0.6814   -0.0130 C.ar      1 <0>        -0.0649
      6 C6          0.0021   -0.0041    0.0020 C.ar      1 <0>        -0.0904
      7 Cl1         1.2264   -2.4172   -0.0231 Cl        1 <0>        -0.0561
      8 N1          3.6030   -0.6324   -0.0361 N.2       1 <0>        -0.6265
      9 C7          4.1879   -0.9573    1.0933 C.2       1 <0>         0.6631
     10 N2          3.6659   -0.6737    2.3229 N.pl3     1 <0>        -0.7535
     11 C8          4.5775   -1.1780    3.3591 C.3       1 <0>         0.0928
     12 C9          5.7389   -1.8145    2.5745 C.3       1 <0>         0.1005
     13 N3          5.3800   -1.6198    1.1630 N.pl3     1 <0>        -0.7140
     14 Cl2         3.8638    2.3282   -0.0229 Cl        1 <0>        -0.0561
     15 H1         -0.9606    1.9039    0.0260 H         1 <0>         0.1385
     16 H2          1.1460    3.1736    0.0078 H         1 <0>         0.1363
     17 H3         -0.9265   -0.5555    0.0082 H         1 <0>         0.1363
     18 H4          4.9410   -0.3577    3.9780 H         1 <0>         0.0821
     19 H5          4.0780   -1.9269    3.9736 H         1 <0>         0.0822
     20 H6          6.6764   -1.3088    2.8056 H         1 <0>         0.0847
     21 H7          5.8134   -2.8781    2.8012 H         1 <0>         0.0844
     22 H8          5.9064   -1.9129    0.4028 H         1 <0>         0.4371
     23 H9          2.8280   -0.2130    2.4861 H         1 <0>         0.4271
@<TRIPOS>BOND
     1    1    6 ar
     2    1    2 ar
     3    1   15 1
     4    2    3 ar
     5    2   16 1
     6    3    4 ar
     7    3   14 1
     8    4    5 ar
     9    4    8 1
    10    5    6 ar
    11    5    7 1
    12    6   17 1
    13    8    9 2
    14    9   13 1
    15    9   10 1
    16   10   11 1
    17   10   23 1
    18   11   12 1
    19   11   18 1
    20   11   19 1
    21   12   13 1
    22   12   20 1
    23   12   21 1
    24   13   22 1
@<TRIPOS>MOLECULE
ZINC02013186
   28    29     0     0     0
SMALL
USER_CHARGES
2-phenethyl-4,5-dihydro-1H-imidazole
@<TRIPOS>ATOM
      1 C1         -0.0167    1.3781    0.0096 C.ar      1 <0>        -0.1069
      2 C2          1.1709    2.0855    0.0021 C.ar      1 <0>        -0.1144
      3 C3          2.3773    1.4107   -0.0141 C.ar      1 <0>        -0.1116
      4 C4          2.3960    0.0285   -0.0217 C.ar      1 <0>        -0.1064
      5 C5          1.2084   -0.6789   -0.0136 C.ar      1 <0>        -0.1115
      6 C6          0.0021   -0.0041    0.0020 C.ar      1 <0>        -0.1144
      7 C7          3.7112   -0.7071   -0.0392 C.3       1 <0>        -0.0895
      8 C8          4.1416   -0.9479   -1.4876 C.3       1 <0>        -0.1088
      9 C9          5.4567   -1.6835   -1.5051 C.cat     1 <0>         0.5150
     10 C10         7.3213   -2.7265   -0.7694 C.3       1 <0>         0.0502
     11 C11         7.3365   -2.7350   -2.3115 C.3       1 <0>         0.0651
     12 N1          6.0877   -2.0364   -2.6604 N.pl3     1 <0>        -0.6654
     13 H1         -0.9592    1.9054    0.0170 H         1 <0>         0.1286
     14 H2          1.1563    3.1654    0.0081 H         1 <0>         0.1284
     15 H3          3.3051    1.9634   -0.0207 H         1 <0>         0.1234
     16 H4          1.2231   -1.7587   -0.0199 H         1 <0>         0.1234
     17 H5         -0.9258   -0.5567    0.0079 H         1 <0>         0.1284
     18 H6          4.4679   -0.1107    0.4703 H         1 <0>         0.0877
     19 H7          3.5990   -1.6641    0.4703 H         1 <0>         0.0879
     20 H8          3.3848   -1.5443   -1.9971 H         1 <0>         0.1365
     21 H9          4.2537    0.0092   -1.9971 H         1 <0>         0.1365
     22 H10         7.3061   -3.7449   -0.3812 H         1 <0>         0.1282
     23 H11         8.1825   -2.1829   -0.3812 H         1 <0>         0.1278
     24 H12         7.3255   -3.7567   -2.6913 H         1 <0>         0.1218
     25 H13         8.2012   -2.1926   -2.6939 H         1 <0>         0.1220
     26 H14         5.7690   -1.8576   -3.5590 H         1 <0>         0.4583
     27 N2          6.0734   -2.0222   -0.4299 N.pl3     1 <0>        -0.6160
     28 H15         5.7450   -1.8303    0.5239 H         1 <0>         0.4756
@<TRIPOS>BOND
     1    1    6 ar
     2    1    2 ar
     3    1   13 1
     4    2    3 ar
     5    2   14 1
     6    3    4 ar
     7    3   15 1
     8    4    5 ar
     9    4    7 1
    10    5    6 ar
    11    5   16 1
    12    6   17 1
    13    7    8 1
    14    7   18 1
    15    7   19 1
    16    8    9 1
    17    8   20 1
    18    8   21 1
    19    9   12 1
    20    9   27 2
    21   10   11 1
    22   10   22 1
    23   10   23 1
    24   10   27 1
    25   11   12 1
    26   11   24 1
    27   11   25 1
    28   12   26 1
    29   27   28 1
@<TRIPOS>MOLECULE
ZINC36294321
   31    32     0     0     0
SMALL
USER_CHARGES

@<TRIPOS>ATOM
      1 C1         -0.0184    1.5028    0.0103 C.3       1 <0>        -0.1201
      2 C2          0.0021   -0.0041    0.0020 C.ar      1 <0>        -0.0783
      3 C3          0.0057   -0.6888   -1.1991 C.ar      1 <0>        -0.1156
      4 C4          0.0245   -2.0707   -1.2067 C.ar      1 <0>        -0.1031
      5 C5          0.0400   -2.7685   -0.0132 C.ar      1 <0>        -0.1197
      6 C6          0.0373   -2.0840    1.1875 C.ar      1 <0>        -0.1069
      7 C7          0.0229   -0.7015    1.1951 C.ar      1 <0>        -0.1075
      8 C8          0.0252    0.0449    2.5043 C.3       1 <0>        -0.0724
      9 C9         -1.4129    0.3873    2.8987 C.3       1 <0>        -0.1130
     10 C10        -1.4105    1.1337    4.2079 C.cat     1 <0>         0.5155
     11 N1         -1.4822    0.5228    5.3672 N.pl3     1 <0>        -0.6319
     12 C11        -1.4573    1.5236    6.4461 C.3       1 <0>         0.0557
     13 C12        -1.3557    2.8609    5.6834 C.3       1 <0>         0.0558
     14 N2         -1.3311    2.4420    4.2727 N.pl3     1 <0>        -0.6328
     15 H1          1.0042    1.8801    0.0026 H         1 <0>         0.0767
     16 H2         -0.5455    1.8639   -0.8728 H         1 <0>         0.0745
     17 H3         -0.5286    1.8543    0.9071 H         1 <0>         0.0567
     18 H4         -0.0064   -0.1437   -2.1314 H         1 <0>         0.1278
     19 H5          0.0266   -2.6056   -2.1449 H         1 <0>         0.1286
     20 H6          0.0540   -3.8484   -0.0191 H         1 <0>         0.1280
     21 H7          0.0491   -2.6290    2.1199 H         1 <0>         0.1236
     22 H8          0.4754   -0.5783    3.2770 H         1 <0>         0.0870
     23 H9          0.6013    0.9641    2.3974 H         1 <0>         0.0882
     24 H10        -1.8630    1.0104    2.1260 H         1 <0>         0.1270
     25 H11        -1.9889   -0.5319    3.0056 H         1 <0>         0.1283
     26 H12        -2.3767    1.4827    7.0302 H         1 <0>         0.1270
     27 H13        -0.5869    1.3783    7.0858 H         1 <0>         0.1270
     28 H14        -2.2243    3.4871    5.8871 H         1 <0>         0.1273
     29 H15        -0.4345    3.3827    5.9427 H         1 <0>         0.1268
     30 H16        -1.2680    3.0390    3.5108 H         1 <0>         0.4597
     31 H17        -1.5425   -0.4371    5.4932 H         1 <0>         0.4603
@<TRIPOS>BOND
     1    1    2 1
     2    1   15 1
     3    1   16 1
     4    1   17 1
     5    2    7 ar
     6    2    3 ar
     7    3    4 ar
     8    3   18 1
     9    4    5 ar
    10    4   19 1
    11    5    6 ar
    12    5   20 1
    13    6    7 ar
    14    6   21 1
    15    7    8 1
    16    8    9 1
    17    8   22 1
    18    8   23 1
    19    9   10 1
    20    9   24 1
    21    9   25 1
    22   10   14 1
    23   10   11 2
    24   11   12 1
    25   11   31 1
    26   12   13 1
    27   12   26 1
    28   12   27 1
    29   13   14 1
    30   13   28 1
    31   13   29 1
    32   14   30 1
@<TRIPOS>MOLECULE
ZINC36294318
   38    40     0     0     0
SMALL
USER_CHARGES

@<TRIPOS>ATOM
      1 C1          0.2234    0.6843   -1.0685 C.ar      1 <0>        -0.1156
      2 C2          0.8688    1.0137    0.1097 C.ar      1 <0>        -0.1215
      3 C3          2.0838    0.4364    0.4186 C.ar      1 <0>        -0.1163
      4 C4          2.6602   -0.4796   -0.4590 C.ar      1 <0>        -0.0526
      5 C5          2.0056   -0.8077   -1.6445 C.ar      1 <0>        -0.1072
      6 C6          0.7910   -0.2244   -1.9434 C.ar      1 <0>        -0.1139
      7 C7          3.9665   -1.1032   -0.1325 C.ar      1 <0>        -0.0409
      8 C8          5.0387   -0.9831   -1.0146 C.ar      1 <0>        -0.1002
      9 C9          6.2514   -1.5645   -0.7057 C.ar      1 <0>        -0.1053
     10 C10         6.4040   -2.2656    0.4771 C.ar      1 <0>        -0.1110
     11 C11         5.3433   -2.3883    1.3559 C.ar      1 <0>        -0.1087
     12 C12         4.1273   -1.8058    1.0597 C.ar      1 <0>        -0.0905
     13 C13         2.9742   -1.9350    2.0212 C.3       1 <0>        -0.0806
     14 C14         2.0460   -3.0590    1.5564 C.3       1 <0>        -0.1109
     15 C15         0.9627   -3.2724    2.5820 C.cat     1 <0>         0.5166
     16 N1          1.0962   -4.1095    3.5839 N.pl3     1 <0>        -0.6329
     17 C16        -0.1278   -4.0884    4.4010 C.3       1 <0>         0.0562
     18 C17        -1.0192   -3.0608    3.6733 C.3       1 <0>         0.0554
     19 N2         -0.1814   -2.6308    2.5422 N.pl3     1 <0>        -0.6312
     20 H1         -0.7294    1.1350   -1.3042 H         1 <0>         0.1267
     21 H2          0.4213    1.7241    0.7890 H         1 <0>         0.1266
     22 H3          2.5871    0.6946    1.3387 H         1 <0>         0.1250
     23 H4          2.4480   -1.5169   -2.3284 H         1 <0>         0.1268
     24 H5          0.2826   -0.4782   -2.8618 H         1 <0>         0.1285
     25 H6          4.9205   -0.4363   -1.9384 H         1 <0>         0.1289
     26 H7          7.0829   -1.4724   -1.3888 H         1 <0>         0.1310
     27 H8          7.3549   -2.7191    0.7149 H         1 <0>         0.1296
     28 H9          5.4676   -2.9373    2.2776 H         1 <0>         0.1260
     29 H10         3.3548   -2.1662    3.0161 H         1 <0>         0.0864
     30 H11         2.4207   -0.9965    2.0530 H         1 <0>         0.0958
     31 H12         1.5946   -2.7863    0.6025 H         1 <0>         0.1254
     32 H13         2.6197   -3.9781    1.4373 H         1 <0>         0.1273
     33 H14        -0.6011   -5.0702    4.4104 H         1 <0>         0.1268
     34 H15         0.0925   -3.7565    5.4156 H         1 <0>         0.1268
     35 H16        -1.9374   -3.5300    3.3196 H         1 <0>         0.1271
     36 H17        -1.2437   -2.2163    4.3248 H         1 <0>         0.1268
     37 H18        -0.4356   -1.9774    1.8719 H         1 <0>         0.4599
     38 H19         1.8781   -4.6563    3.7581 H         1 <0>         0.4599
@<TRIPOS>BOND
     1    1    6 ar
     2    1    2 ar
     3    1   20 1
     4    2    3 ar
     5    2   21 1
     6    3    4 ar
     7    3   22 1
     8    4    5 ar
     9    4    7 1
    10    5    6 ar
    11    5   23 1
    12    6   24 1
    13    7   12 ar
    14    7    8 ar
    15    8    9 ar
    16    8   25 1
    17    9   10 ar
    18    9   26 1
    19   10   11 ar
    20   10   27 1
    21   11   12 ar
    22   11   28 1
    23   12   13 1
    24   13   14 1
    25   13   29 1
    26   13   30 1
    27   14   15 1
    28   14   31 1
    29   14   32 1
    30   15   19 1
    31   15   16 2
    32   16   17 1
    33   16   38 1
    34   17   18 1
    35   17   33 1
    36   17   34 1
    37   18   19 1
    38   18   35 1
    39   18   36 1
    40   19   37 1
@<TRIPOS>MOLECULE
ZINC36294324
   28    29     0     0     0
SMALL
USER_CHARGES

@<TRIPOS>ATOM
      1 C1         -0.0167    1.3780    0.0096 C.ar      1 <0>        -0.1078
      2 C2          1.1709    2.0861    0.0021 C.ar      1 <0>        -0.0943
      3 C3          2.3773    1.4123   -0.0135 C.ar      1 <0>        -0.1038
      4 C4          2.3967    0.0287   -0.0210 C.ar      1 <0>        -0.0302
      5 C5          1.2083   -0.6792   -0.0130 C.ar      1 <0>        -0.0960
      6 C6          0.0021   -0.0041    0.0020 C.ar      1 <0>        -0.0986
      7 C7          1.2286   -2.1860   -0.0218 C.3       1 <0>        -0.0773
      8 C8          1.3756   -2.7024    1.4109 C.3       1 <0>        -0.1119
      9 C9          1.3959   -4.2092    1.4022 C.cat     1 <0>         0.5166
     10 N1          0.3029   -4.9290    1.5001 N.pl3     1 <0>        -0.6319
     11 C10         0.6565   -6.3571    1.4603 C.3       1 <0>         0.0562
     12 C11         2.1926   -6.3357    1.3179 C.3       1 <0>         0.0555
     13 N2          2.5073   -4.8982    1.2906 N.pl3     1 <0>        -0.6312
     14 Cl1         3.9119   -0.8184   -0.0411 Cl        1 <0>        -0.0679
     15 H1         -0.9592    1.9049    0.0259 H         1 <0>         0.1366
     16 H2          1.1556    3.1659    0.0080 H         1 <0>         0.1396
     17 H3          3.3048    1.9655   -0.0201 H         1 <0>         0.1401
     18 H4         -0.9258   -0.5566    0.0079 H         1 <0>         0.1347
     19 H5          0.2978   -2.5594   -0.4488 H         1 <0>         0.0934
     20 H6          2.0692   -2.5346   -0.6217 H         1 <0>         0.0929
     21 H7          2.3064   -2.3290    1.8380 H         1 <0>         0.1260
     22 H8          0.5350   -2.3538    2.0109 H         1 <0>         0.1297
     23 H9          0.3627   -6.8522    2.3859 H         1 <0>         0.1273
     24 H10         0.1970   -6.8435    0.5999 H         1 <0>         0.1273
     25 H11         2.6651   -6.8201    2.1724 H         1 <0>         0.1277
     26 H12         2.4994   -6.8113    0.3864 H         1 <0>         0.1273
     27 H13         3.3963   -4.5196    1.2053 H         1 <0>         0.4601
     28 H14        -0.5963   -4.5755    1.5857 H         1 <0>         0.4602
@<TRIPOS>BOND
     1    1    6 ar
     2    1    2 ar
     3    1   15 1
     4    2    3 ar
     5    2   16 1
     6    3    4 ar
     7    3   17 1
     8    4    5 ar
     9    4   14 1
    10    5    6 ar
    11    5    7 1
    12    6   18 1
    13    7    8 1
    14    7   19 1
    15    7   20 1
    16    8    9 1
    17    8   21 1
    18    8   22 1
    19    9   13 1
    20    9   10 2
    21   10   11 1
    22   10   28 1
    23   11   12 1
    24   11   23 1
    25   11   24 1
    26   12   13 1
    27   12   25 1
    28   12   26 1
    29   13   27 1
@<TRIPOS>MOLECULE
ZINC40379944
   25    26     0     0     0
SMALL
USER_CHARGES

@<TRIPOS>ATOM
      1 C1         -0.0163    1.3513    0.0095 C.2       1 <0>        -0.1679
      2 C2          1.1833    2.0380    0.0017 C.2       1 <0>        -0.1280
      3 C3          2.3426    1.3358   -0.0131 C.2       1 <0>        -0.1871
      4 S1          1.7535   -0.3495   -0.0166 S.3       1 <0>         0.0509
      5 C4          0.0021   -0.0041    0.0020 C.2       1 <0>        -0.1466
      6 C5          3.7608    1.8454   -0.0244 C.3       1 <0>        -0.0233
      7 C6          4.2547    2.0106    1.4143 C.3       1 <0>        -0.1124
      8 C7          5.6729    2.5202    1.4030 C.cat     1 <0>         0.5154
      9 N1          6.7101    1.7165    1.3833 N.pl3     1 <0>        -0.6313
     10 C8          7.9451    2.5171    1.3764 C.3       1 <0>         0.0556
     11 C9          7.4235    3.9690    1.3964 C.3       1 <0>         0.0557
     12 N2          5.9614    3.8004    1.4067 N.pl3     1 <0>        -0.6314
     13 H1         -0.9542    1.8866    0.0258 H         1 <0>         0.1411
     14 H2          1.1967    3.1179    0.0070 H         1 <0>         0.1349
     15 H3         -0.8275   -0.6955    0.0065 H         1 <0>         0.1922
     16 H4          4.3986    1.1333   -0.5480 H         1 <0>         0.0930
     17 H5          3.7967    2.8084   -0.5337 H         1 <0>         0.0989
     18 H6          3.6169    2.7226    1.9379 H         1 <0>         0.1301
     19 H7          4.2187    1.0476    1.9236 H         1 <0>         0.1290
     20 H8          8.5425    2.3106    2.2644 H         1 <0>         0.1274
     21 H9          8.5215    2.3277    0.4709 H         1 <0>         0.1276
     22 H10         7.7607    4.4867    2.2943 H         1 <0>         0.1275
     23 H11         7.7398    4.5038    0.5008 H         1 <0>         0.1273
     24 H12         5.3132    4.5220    1.4165 H         1 <0>         0.4606
     25 H13         6.6693    0.7474    1.3750 H         1 <0>         0.4607
@<TRIPOS>BOND
     1    1    5 2
     2    1    2 1
     3    1   13 1
     4    2    3 2
     5    2   14 1
     6    3    4 1
     7    3    6 1
     8    4    5 1
     9    5   15 1
    10    6    7 1
    11    6   16 1
    12    6   17 1
    13    7    8 1
    14    7   18 1
    15    7   19 1
    16    8   12 1
    17    8    9 2
    18    9   10 1
    19    9   25 1
    20   10   11 1
    21   10   20 1
    22   10   21 1
    23   11   12 1
    24   11   22 1
    25   11   23 1
    26   12   24 1
