@<TRIPOS>MOLECULE
ZINC00598586
   51    53     0     0     0
SMALL
USER_CHARGES

@<TRIPOS>ATOM
      1 C1         -0.0184    1.5028    0.0103 C.3       1 <0>        -0.1785
      2 C2          0.0021   -0.0041    0.0020 C.2       1 <0>         0.5204
      3 O1          0.0203   -0.6160    1.0489 O.2       1 <0>        -0.5178
      4 N1          0.0001   -0.6716   -1.1688 N.am      1 <0>        -0.7177
      5 C3          0.0199   -2.1365   -1.1769 C.3       1 <0>         0.1729
      6 H1          0.0151   -2.4942   -2.2065 H         1 <0>         0.1225
      7 C4          1.2828   -2.6333   -0.4703 C.3       1 <0>        -0.0574
      8 C5          2.4971   -2.2137   -1.2580 C.2       1 <0>        -0.1697
      9 C6          3.1457   -2.9471   -2.1764 C.2       1 <0>         0.0606
     10 N2          4.2007   -2.2366   -2.6808 N.pl3     1 <0>        -0.5941
     11 H2          4.8163   -2.5582   -3.3579 H         1 <0>         0.4171
     12 C7          4.2583   -0.9970   -2.0841 C.ar      1 <0>         0.0940
     13 C8          3.1899   -0.9259   -1.1712 C.ar      1 <0>        -0.0922
     14 C9          2.9941    0.2322   -0.4170 C.ar      1 <0>        -0.0776
     15 C10         3.8405    1.2940   -0.5720 C.ar      1 <0>        -0.1458
     16 C11         4.8933    1.2304   -1.4741 C.ar      1 <0>        -0.0973
     17 C12         5.1104    0.0936   -2.2220 C.ar      1 <0>        -0.1297
     18 C13        -1.1968   -2.6593   -0.4576 C.2       1 <0>         0.4464
     19 O2         -1.7975   -1.9459    0.3106 O.2       1 <0>        -0.4684
     20 O3         -1.6132   -3.9175   -0.6704 O.3       1 <0>        -0.3500
     21 C14        -2.7734   -4.3466    0.0450 C.3       1 <0>         0.1082
     22 C15        -3.0881   -5.7748   -0.3187 C.ar      1 <0>        -0.0942
     23 C16        -3.9224   -6.0483   -1.3864 C.ar      1 <0>        -0.0137
     24 C17        -4.2111   -7.3584   -1.7201 C.ar      1 <0>        -0.1860
     25 C18        -3.6652   -8.3949   -0.9863 C.ar      1 <0>        -0.0127
     26 C19        -2.8301   -8.1214    0.0808 C.ar      1 <0>        -0.1852
     27 C20        -2.5380   -6.8114    0.4118 C.ar      1 <0>        -0.0115
     28 C21        -2.2353   -9.2514    0.8810 C.3       1 <0>         0.5128
     29 F1         -2.6707  -10.4734    0.3573 F         1 <0>        -0.1722
     30 F2         -0.8394   -9.1861    0.8139 F         1 <0>        -0.1704
     31 F3         -2.6436   -9.1437    2.2148 F         1 <0>        -0.1705
     32 C22        -5.1215   -7.6565   -2.8835 C.3       1 <0>         0.5129
     33 F4         -4.3617   -7.7723   -4.0524 F         1 <0>        -0.1705
     34 F5         -5.8010   -8.8566   -2.6482 F         1 <0>        -0.1715
     35 F6         -6.0468   -6.6176   -3.0297 F         1 <0>        -0.1718
     36 H3          1.0042    1.8801    0.0026 H         1 <0>         0.0959
     37 H4         -0.5455    1.8639   -0.8728 H         1 <0>         0.0795
     38 H5         -0.5286    1.8543    0.9071 H         1 <0>         0.0950
     39 H6         -0.0145   -0.1822   -2.0061 H         1 <0>         0.4088
     40 H7          1.3324   -2.2034    0.5301 H         1 <0>         0.1014
     41 H8          1.2546   -3.7205   -0.3977 H         1 <0>         0.0882
     42 H9          2.8751   -3.9497   -2.4730 H         1 <0>         0.1716
     43 H10         2.1765    0.2892    0.2864 H         1 <0>         0.1216
     44 H11         3.6886    2.1898    0.0117 H         1 <0>         0.1219
     45 H12         5.5533    2.0779   -1.5860 H         1 <0>         0.1251
     46 H13         5.9317    0.0543   -2.9221 H         1 <0>         0.1193
     47 H14        -2.5858   -4.2775    1.1165 H         1 <0>         0.0879
     48 H15        -3.6183   -3.7101   -0.2177 H         1 <0>         0.0863
     49 H16        -4.3490   -5.2385   -1.9597 H         1 <0>         0.1503
     50 H17        -3.8913   -9.4184   -1.2466 H         1 <0>         0.1563
     51 H18        -1.8826   -6.5978    1.2432 H         1 <0>         0.1495
@<TRIPOS>BOND
     1    1    2 1
     2    1   36 1
     3    1   37 1
     4    1   38 1
     5    2    3 2
     6    2    4 am
     7    4    5 1
     8    4   39 1
     9    5    6 1
    10    5    7 1
    11    5   18 1
    12    7    8 1
    13    7   40 1
    14    7   41 1
    15    8   13 1
    16    8    9 2
    17    9   10 1
    18    9   42 1
    19   10   11 1
    20   10   12 1
    21   12   17 ar
    22   12   13 ar
    23   13   14 ar
    24   14   15 ar
    25   14   43 1
    26   15   16 ar
    27   15   44 1
    28   16   17 ar
    29   16   45 1
    30   17   46 1
    31   18   19 2
    32   18   20 1
    33   20   21 1
    34   21   22 1
    35   21   47 1
    36   21   48 1
    37   22   27 ar
    38   22   23 ar
    39   23   24 ar
    40   23   49 1
    41   24   25 ar
    42   24   32 1
    43   25   26 ar
    44   25   50 1
    45   26   27 ar
    46   26   28 1
    47   27   51 1
    48   28   29 1
    49   28   30 1
    50   28   31 1
    51   32   33 1
    52   32   34 1
    53   32   35 1
@<TRIPOS>MOLECULE
ZINC03935475
   84    88     0     0     0
SMALL
USER_CHARGES
N-[1-[3-[1-benzoyl-3-(3,4-dichlorophenyl)-3-piperidyl]propyl]-4-phenyl-4-piperidyl]-N-methyl-acetamide
@<TRIPOS>ATOM
      1 C1         -1.7697   -6.2079   -2.9380 C.3       1 <0>        -0.1803
      2 C2         -1.5505   -6.7090   -1.5338 C.2       1 <0>         0.5117
      3 O1         -0.9517   -7.7470   -1.3470 O.2       1 <0>        -0.5158
      4 N1         -2.0200   -6.0038   -0.4856 N.am      1 <0>        -0.6196
      5 C3         -2.8344   -4.8075   -0.7134 C.3       1 <0>         0.0598
      6 C4         -1.7158   -6.4334    0.8815 C.3       1 <0>         0.2218
      7 C5         -2.0581   -5.3066    1.8601 C.3       1 <0>        -0.1522
      8 C6         -1.1856   -4.0876    1.5522 C.3       1 <0>        -0.0143
      9 C7          0.5945   -5.5017    0.7132 C.3       1 <0>        -0.0015
     10 C8         -0.2249   -6.7629    0.9960 C.3       1 <0>        -0.1633
     11 C9          1.0949   -3.2759    1.5231 C.3       1 <0>        -0.0069
     12 C10         2.5309   -3.6438    1.9020 C.3       1 <0>        -0.1650
     13 C11         3.4307   -2.4167    1.7428 C.3       1 <0>        -0.1087
     14 C12         4.8879   -2.8187    1.9788 C.3       1 <0>        -0.0228
     15 C13         5.0117   -3.5224    3.3322 C.3       1 <0>        -0.1128
     16 C14         4.5262   -2.5868    4.4417 C.3       1 <0>        -0.1363
     17 C15         5.4048   -1.3321    4.4670 C.3       1 <0>         0.0868
     18 N2          5.4068   -0.7292    3.1271 N.am      1 <0>        -0.6076
     19 C16         5.7706   -1.5667    1.9761 C.3       1 <0>         0.1233
     20 C17         5.0816    0.5677    2.9572 C.2       1 <0>         0.5642
     21 O2          5.0056    1.0335    1.8371 O.2       1 <0>        -0.5271
     22 C18         4.8172    1.4237    4.1333 C.ar      1 <0>        -0.1380
     23 C19         3.8267    2.4055    4.0772 C.ar      1 <0>        -0.0658
     24 C20         3.5814    3.1974    5.1799 C.ar      1 <0>        -0.1235
     25 C21         4.3223    3.0274    6.3360 C.ar      1 <0>        -0.0910
     26 C22         5.3095    2.0599    6.3964 C.ar      1 <0>        -0.1242
     27 C23         5.5609    1.2575    5.3027 C.ar      1 <0>        -0.0943
     28 C24         5.3358   -3.7522    0.8837 C.ar      1 <0>        -0.0612
     29 C25         6.5760   -4.3590    0.9573 C.ar      1 <0>        -0.0938
     30 C26         6.9904   -5.2105   -0.0493 C.ar      1 <0>        -0.0875
     31 C27         6.1595   -5.4650   -1.1258 C.ar      1 <0>        -0.0308
     32 C28         4.9176   -4.8575   -1.1994 C.ar      1 <0>        -0.0305
     33 C29         4.5067   -4.0010   -0.1937 C.ar      1 <0>        -0.1108
     34 Cl1         3.8765   -5.1707   -2.5528 Cl        1 <0>        -0.0437
     35 Cl2         6.6766   -6.5401   -2.3869 Cl        1 <0>        -0.0352
     36 C30        -2.5292   -7.6567    1.2177 C.ar      1 <0>        -0.1097
     37 C31        -2.7954   -7.9685    2.5378 C.ar      1 <0>        -0.1154
     38 C32        -3.5455   -9.0879    2.8460 C.ar      1 <0>        -0.1181
     39 C33        -4.0210   -9.9012    1.8343 C.ar      1 <0>        -0.1054
     40 C34        -3.7501   -9.5926    0.5144 C.ar      1 <0>        -0.1172
     41 C35        -3.0043   -8.4702    0.2060 C.ar      1 <0>        -0.0910
     42 H1         -1.3055   -5.2281   -3.0508 H         1 <0>         0.0906
     43 H2         -1.3229   -6.9053   -3.6466 H         1 <0>         0.0999
     44 H3         -2.8392   -6.1277   -3.1324 H         1 <0>         0.0950
     45 H4         -2.1822   -3.9477   -0.8667 H         1 <0>         0.0612
     46 H5         -3.4560   -4.9540   -1.5967 H         1 <0>         0.0865
     47 H6         -3.4709   -4.6308    0.1536 H         1 <0>         0.0853
     48 H7         -1.8694   -5.6408    2.8803 H         1 <0>         0.1081
     49 H8         -3.1091   -5.0381    1.7536 H         1 <0>         0.1241
     50 H9         -1.4168   -3.2883    2.2563 H         1 <0>         0.1344
     51 H10        -1.3849   -3.7455    0.5366 H         1 <0>         0.1377
     52 H11         0.3868   -5.1530   -0.2985 H         1 <0>         0.1261
     53 H12         1.6562   -5.7295    0.8079 H         1 <0>         0.1313
     54 H13        -0.0074   -7.1200    2.0026 H         1 <0>         0.0973
     55 H14         0.0339   -7.5350    0.2715 H         1 <0>         0.1491
     56 H15         0.7400   -2.4781    2.1755 H         1 <0>         0.1314
     57 H16         1.0678   -2.9374    0.4874 H         1 <0>         0.1297
     58 H17         2.8857   -4.4416    1.2496 H         1 <0>         0.0949
     59 H18         2.5580   -3.9823    2.9377 H         1 <0>         0.0941
     60 H19         3.1412   -1.6572    2.4691 H         1 <0>         0.0867
     61 H20         3.3231   -2.0155    0.7351 H         1 <0>         0.0808
     62 H21         4.4036   -4.4270    3.3281 H         1 <0>         0.0715
     63 H22         6.0541   -3.7866    3.5101 H         1 <0>         0.0770
     64 H23         4.5927   -3.0969    5.4027 H         1 <0>         0.0839
     65 H24         3.4913   -2.3024    4.2516 H         1 <0>         0.0685
     66 H25         6.4225   -1.6043    4.7467 H         1 <0>         0.0764
     67 H26         5.0037   -0.6196    5.1877 H         1 <0>         0.1053
     68 H27         6.8182   -1.8580    2.0527 H         1 <0>         0.0779
     69 H28         5.6109   -1.0089    1.0533 H         1 <0>         0.1008
     70 H29         3.2507    2.5422    3.1738 H         1 <0>         0.1304
     71 H30         2.8123    3.9545    5.1393 H         1 <0>         0.1320
     72 H31         4.1289    3.6525    7.1952 H         1 <0>         0.1306
     73 H32         5.8842    1.9322    7.3018 H         1 <0>         0.1322
     74 H33         6.3313    0.5021    5.3513 H         1 <0>         0.1330
     75 H34         7.2231   -4.1639    1.7997 H         1 <0>         0.1412
     76 H35         7.9611   -5.6806    0.0066 H         1 <0>         0.1481
     77 H36         3.5380   -3.5270   -0.2504 H         1 <0>         0.1410
     78 H37        -2.4204   -7.3353    3.3284 H         1 <0>         0.1191
     79 H38        -3.7569   -9.3292    3.8772 H         1 <0>         0.1268
     80 H39        -4.6040  -10.7779    2.0752 H         1 <0>         0.1269
     81 H40        -4.1213  -10.2282   -0.2759 H         1 <0>         0.1253
     82 H41        -2.7926   -8.2291   -0.8252 H         1 <0>         0.1286
     83 N3          0.2360   -4.4645    1.7037 N.4       1 <0>        -0.3924
     84 H42         0.3820   -4.8409    2.6477 H         1 <0>         0.4252
@<TRIPOS>BOND
     1    1    2 1
     2    1   42 1
     3    1   43 1
     4    1   44 1
     5    2    3 2
     6    2    4 am
     7    4    5 1
     8    4    6 1
     9    5   45 1
    10    5   46 1
    11    5   47 1
    12    6   10 1
    13    6    7 1
    14    6   36 1
    15    7    8 1
    16    7   48 1
    17    7   49 1
    18    8   50 1
    19    8   51 1
    20    8   83 1
    21    9   10 1
    22    9   52 1
    23    9   53 1
    24    9   83 1
    25   10   54 1
    26   10   55 1
    27   11   12 1
    28   11   56 1
    29   11   57 1
    30   11   83 1
    31   12   13 1
    32   12   58 1
    33   12   59 1
    34   13   14 1
    35   13   60 1
    36   13   61 1
    37   14   19 1
    38   14   15 1
    39   14   28 1
    40   15   16 1
    41   15   62 1
    42   15   63 1
    43   16   17 1
    44   16   64 1
    45   16   65 1
    46   17   18 1
    47   17   66 1
    48   17   67 1
    49   18   19 1
    50   18   20 am
    51   19   68 1
    52   19   69 1
    53   20   21 2
    54   20   22 1
    55   22   27 ar
    56   22   23 ar
    57   23   24 ar
    58   23   70 1
    59   24   25 ar
    60   24   71 1
    61   25   26 ar
    62   25   72 1
    63   26   27 ar
    64   26   73 1
    65   27   74 1
    66   28   33 ar
    67   28   29 ar
    68   29   30 ar
    69   29   75 1
    70   30   31 ar
    71   30   76 1
    72   31   32 ar
    73   31   35 1
    74   32   33 ar
    75   32   34 1
    76   33   77 1
    77   36   41 ar
    78   36   37 ar
    79   37   38 ar
    80   37   78 1
    81   38   39 ar
    82   38   79 1
    83   39   40 ar
    84   39   80 1
    85   40   41 ar
    86   40   81 1
    87   41   82 1
    88   83   84 1
