@<TRIPOS>MOLECULE
ZINC26823248
   22    23     0     0     0
SMALL
USER_CHARGES

@<TRIPOS>ATOM
      1 C1         -0.0167    1.3791    0.0096 C.ar      1 <0>        -0.0619
      2 C2          1.1738    2.0800    0.0020 C.ar      1 <0>        -0.0866
      3 C3          2.3803    1.4026   -0.0162 C.ar      1 <0>        -0.0168
      4 C4          2.4046    0.0232   -0.0306 C.ar      1 <0>        -0.0303
      5 C5          1.2074   -0.6787   -0.0171 C.ar      1 <0>        -0.0881
      6 C6          0.0021   -0.0041    0.0020 C.ar      1 <0>        -0.0299
      7 Cl1        -1.4894   -0.8923    0.0171 Cl        1 <0>        -0.0337
      8 N1          3.5946   -0.6953   -0.0702 N.4       1 <0>        -0.3848
      9 C7          4.6934    0.0006    0.3908 C.2       1 <0>         0.3381
     10 O1          5.7533   -0.7230    0.8307 O.3       1 <0>        -0.5661
     11 C8          4.7917    1.3007    0.4360 C.2       1 <0>        -0.2745
     12 C9          3.6656    2.1894   -0.0148 C.3       1 <0>        -0.0196
     13 N2          6.0397    1.9148    0.9428 N.pl3     1 <0>         0.0830
     14 O2          6.9534    1.2129    1.3091 O.2       1 <0>        -0.1529
     15 O3          6.1452    3.1182    0.9905 O.3       1 <0>        -0.2315
     16 H1         -0.9578    1.9087    0.0259 H         1 <0>         0.1563
     17 H2          1.1628    3.1599    0.0099 H         1 <0>         0.1603
     18 H3          1.2182   -1.7586   -0.0220 H         1 <0>         0.1572
     19 H4          3.4849   -1.5280    0.4888 H         1 <0>         0.4351
     20 H5          3.8705    2.5535   -1.0216 H         1 <0>         0.1041
     21 H6          3.5740    3.0350    0.6668 H         1 <0>         0.1116
     22 H7          3.7689   -0.9742   -1.0241 H         1 <0>         0.4310
@<TRIPOS>BOND
     1    1    6 ar
     2    1    2 ar
     3    1   16 1
     4    2    3 ar
     5    2   17 1
     6    3   12 1
     7    3    4 ar
     8    4    5 ar
     9    4    8 1
    10    5    6 ar
    11    5   18 1
    12    6    7 1
    13    8    9 1
    14    8   19 1
    15    8   22 1
    16    9   10 1
    17    9   11 2
    18   11   12 1
    19   11   13 1
    20   12   20 1
    21   12   21 1
    22   13   14 2
    23   13   15 1
@<TRIPOS>MOLECULE
ZINC18118278
   22    23     0     0     0
SMALL
USER_CHARGES

@<TRIPOS>ATOM
      1 C1          0.0496    1.1063    0.6344 C.ar      1 <0>        -0.0815
      2 C2          0.8293    1.9861   -0.1610 C.ar      1 <0>         0.4075
      3 N1          0.4596    3.2355   -0.3488 N.am      1 <0>        -0.4279
      4 C3          1.2172    4.0533   -1.1085 C.2       1 <0>         0.4679
      5 O1          0.8827    5.2069   -1.2858 O.2       1 <0>        -0.1860
      6 C4          2.4726    3.5290   -1.7307 C.2       1 <0>         0.4680
      7 O2          3.1640    4.2540   -2.4164 O.2       1 <0>        -0.1859
      8 N2          2.8311    2.2450   -1.5240 N.am      1 <0>        -0.4280
      9 C5          2.0762    1.4654   -0.7789 C.ar      1 <0>         0.4074
     10 C6          2.4324    0.1113   -0.5464 C.ar      1 <0>        -0.0816
     11 C7          1.6375   -0.6655    0.2237 C.ar      1 <0>         0.1372
     12 C8          0.4549   -0.1716    0.8097 C.ar      1 <0>         0.1371
     13 N3         -0.3677   -1.0785    1.6416 N.pl3     1 <0>        -0.0219
     14 O3         -1.5741   -1.0221    1.5858 O.2       1 <0>        -0.0173
     15 O4          0.1668   -1.8755    2.3769 O.3       1 <0>        -0.0340
     16 N4          2.0208   -2.0759    0.4581 N.pl3     1 <0>        -0.0219
     17 O5          3.1825   -2.3672    0.6234 O.2       1 <0>        -0.0173
     18 O6          1.1722   -2.9366    0.4842 O.3       1 <0>        -0.0339
     19 H1         -0.8595    1.4568    1.1003 H         1 <0>         0.2615
     20 H2          3.3326   -0.2963   -0.9822 H         1 <0>         0.2615
     21 H3         -0.3561    3.5673    0.0580 H         1 <0>         0.4946
     22 H4          3.6434    1.8969   -1.9239 H         1 <0>         0.4946
@<TRIPOS>BOND
     1    1   12 ar
     2    1    2 ar
     3    1   19 1
     4    2    9 ar
     5    2    3 2
     6    3    4 am
     7    3   21 1
     8    4    5 2
     9    4    6 1
    10    6    7 2
    11    6    8 am
    12    8    9 2
    13    8   22 1
    14    9   10 ar
    15   10   11 ar
    16   10   20 1
    17   11   12 ar
    18   11   16 1
    19   12   13 1
    20   13   14 2
    21   13   15 1
    22   16   17 2
    23   16   18 1
@<TRIPOS>MOLECULE
ZINC18118278
   21    22     0     0     0
SMALL
USER_CHARGES

@<TRIPOS>ATOM
      1 C1          0.0417    1.2522    0.5309 C.ar      1 <0>        -0.0473
      2 C2          0.8780    2.0146   -0.2789 C.ar      1 <0>         0.0748
      3 C3          2.0479    1.4409   -0.8068 C.ar      1 <0>         0.2260
      4 C4          2.3544    0.1053   -0.5080 C.ar      1 <0>        -0.0622
      5 C5          1.5202   -0.6244    0.2883 C.ar      1 <0>         0.0219
      6 C6          0.3650   -0.0580    0.8097 C.ar      1 <0>        -0.0602
      7 N1         -0.5259   -0.8673    1.6712 N.pl3     1 <0>         0.0426
      8 O1         -1.7257   -0.7484    1.5809 O.2       1 <0>        -0.1529
      9 O2         -0.0539   -1.6473    2.4653 O.3       1 <0>        -0.1493
     10 N2          1.8502   -2.0336    0.5987 N.pl3     1 <0>         0.0304
     11 O3          2.9984   -2.3560    0.7971 O.2       1 <0>        -0.1355
     12 O4          0.9715   -2.8622    0.6539 O.3       1 <0>        -0.1417
     13 N3          2.8727    2.1624   -1.5937 N.2       1 <0>        -0.5947
     14 C7          2.6068    3.4079   -1.8848 C.2       1 <0>         0.4324
     15 O5          3.4503    4.1124   -2.6771 O.3       1 <0>        -0.5802
     16 C8          1.3904    4.0475   -1.3530 C.2       1 <0>         0.4795
     17 O6          1.1361    5.2074   -1.6209 O.2       1 <0>        -0.4979
     18 N4          0.5617    3.3300   -0.5634 N.am      1 <0>        -0.6270
     19 H1         -0.2442    3.7314   -0.2024 H         1 <0>         0.4104
     20 H2         -0.8563    1.6877    0.9435 H         1 <0>         0.1592
     21 H3          3.2502   -0.3457   -0.9085 H         1 <0>         0.1717
@<TRIPOS>BOND
     1    1    6 ar
     2    1    2 ar
     3    1   20 1
     4    2   18 1
     5    2    3 ar
     6    3    4 ar
     7    3   13 1
     8    4    5 ar
     9    4   21 1
    10    5    6 ar
    11    5   10 1
    12    6    7 1
    13    7    8 2
    14    7    9 1
    15   10   11 2
    16   10   12 1
    17   13   14 2
    18   14   15 1
    19   14   16 1
    20   16   17 2
    21   16   18 am
    22   18   19 1
@<TRIPOS>MOLECULE
ZINC18118278
   22    23     0     0     0
SMALL
USER_CHARGES

@<TRIPOS>ATOM
      1 C1          0.0382    1.2610    0.5152 C.ar      1 <0>        -0.0552
      2 C2          0.8758    2.0183   -0.2964 C.ar      1 <0>         0.1719
      3 C3          2.0393    1.4471   -0.8145 C.ar      1 <0>         0.1720
      4 C4          2.3510    0.1254   -0.5146 C.ar      1 <0>        -0.0553
      5 C5          1.5125   -0.6159    0.2921 C.ar      1 <0>         0.0166
      6 C6          0.3581   -0.0491    0.8060 C.ar      1 <0>         0.0165
      7 N1         -0.5357   -0.8520    1.6707 N.pl3     1 <0>         0.0206
      8 O1         -1.7351   -0.7324    1.5766 O.2       1 <0>        -0.1120
      9 O2         -0.0664   -1.6272    2.4709 O.3       1 <0>        -0.1151
     10 N2          1.8476   -2.0224    0.6091 N.pl3     1 <0>         0.0206
     11 O3          2.9970   -2.3396    0.8090 O.2       1 <0>        -0.1120
     12 O4          0.9720   -2.8539    0.6680 O.3       1 <0>        -0.1151
     13 N3          2.8903    2.1887   -1.6291 N.am      1 <0>        -0.6303
     14 C7          2.5958    3.4709   -1.9250 C.2       1 <0>         0.5137
     15 C8          1.3528    4.0814   -1.3711 C.2       1 <0>         0.5137
     16 N4          0.5461    3.3396   -0.5854 N.am      1 <0>        -0.6303
     17 O5          1.0696    5.2348   -1.6257 O.2       1 <0>        -0.4318
     18 O6          3.3354    4.1221   -2.6351 O.2       1 <0>        -0.4318
     19 H1         -0.8610    1.7001    0.9216 H         1 <0>         0.1865
     20 H2          3.2498   -0.3211   -0.9137 H         1 <0>         0.1866
     21 H3          3.6965    1.7826   -1.9842 H         1 <0>         0.4351
     22 H4         -0.2650    3.7271   -0.2210 H         1 <0>         0.4351
@<TRIPOS>BOND
     1    1    6 ar
     2    1    2 ar
     3    1   19 1
     4    2   16 1
     5    2    3 ar
     6    3    4 ar
     7    3   13 1
     8    4    5 ar
     9    4   20 1
    10    5    6 ar
    11    5   10 1
    12    6    7 1
    13    7    8 2
    14    7    9 1
    15   10   11 2
    16   10   12 1
    17   13   14 am
    18   13   21 1
    19   14   15 1
    20   14   18 2
    21   15   16 am
    22   15   17 2
    23   16   22 1
@<TRIPOS>MOLECULE
ZINC06092461
   45    47     0     0     0
SMALL
USER_CHARGES
3-[1-(1-piperidyl)cyclohexyl]phenol
@<TRIPOS>ATOM
      1 C1          1.1504    1.7752    0.0622 C.ar      1 <0>        -0.0815
      2 C2          1.1385    3.1566   -0.0008 C.ar      1 <0>        -0.1768
      3 C3         -0.0559    3.8452    0.1007 C.ar      1 <0>        -0.0929
      4 C4         -1.2411    3.1545    0.2658 C.ar      1 <0>        -0.1219
      5 C5         -1.2325    1.7686    0.3231 C.ar      1 <0>         0.1336
      6 C6         -0.0318    1.0800    0.2268 C.ar      1 <0>        -0.1283
      7 O1         -2.3976    1.0866    0.4794 O.3       1 <0>        -0.4925
      8 C7         -0.0652    5.3506    0.0316 C.3       1 <0>         0.1193
      9 C8         -0.9064    5.9088    1.1812 C.3       1 <0>        -0.1365
     10 C9         -0.9158    7.4371    1.1111 C.3       1 <0>        -0.1337
     11 C10        -1.5166    7.8827   -0.2236 C.3       1 <0>        -0.1324
     12 C11        -0.6754    7.3246   -1.3733 C.3       1 <0>        -0.1364
     13 C12        -0.6660    5.7962   -1.3031 C.3       1 <0>        -0.1360
     14 C13         2.0692    5.5858   -1.0864 C.3       1 <0>        -0.0362
     15 C14         3.4451    6.2493   -0.9928 C.3       1 <0>        -0.1451
     16 C15         4.1924    5.6941    0.2228 C.3       1 <0>        -0.1400
     17 C16         3.3585    5.9437    1.4825 C.3       1 <0>        -0.1446
     18 C17         1.9851    5.2891    1.3172 C.3       1 <0>        -0.0405
     19 H1          2.0847    1.2394   -0.0176 H         1 <0>         0.1406
     20 H2          2.0639    3.6983   -0.1291 H         1 <0>         0.1454
     21 H3         -2.1739    3.6930    0.3454 H         1 <0>         0.1399
     22 H4         -0.0220    0.0012    0.2760 H         1 <0>         0.1422
     23 H5         -2.6410    0.9301    1.4021 H         1 <0>         0.4029
     24 H6         -1.9270    5.5350    1.0994 H         1 <0>         0.1121
     25 H7         -0.4784    5.5913    2.1321 H         1 <0>         0.0902
     26 H8          0.1048    7.8109    1.1929 H         1 <0>         0.0559
     27 H9         -1.5151    7.8348    1.9301 H         1 <0>         0.0959
     28 H10        -1.5234    8.9715   -0.2736 H         1 <0>         0.0824
     29 H11        -2.5373    7.5089   -0.3054 H         1 <0>         0.0811
     30 H12         0.3452    7.6983   -1.2915 H         1 <0>         0.0576
     31 H13        -1.1035    7.6420   -2.3241 H         1 <0>         0.0948
     32 H14        -0.0667    5.3986   -2.1222 H         1 <0>         0.0924
     33 H15        -1.6866    5.4224   -1.3849 H         1 <0>         0.1114
     34 H16         2.1924    4.5098   -1.2092 H         1 <0>         0.1453
     35 H17         1.5288    5.9894   -1.9427 H         1 <0>         0.1343
     36 H18         3.3228    7.3269   -0.8838 H         1 <0>         0.0866
     37 H19         4.0139    6.0367   -1.8980 H         1 <0>         0.1133
     38 H20         5.1557    6.1952    0.3184 H         1 <0>         0.0961
     39 H21         4.3501    4.6229    0.0967 H         1 <0>         0.0813
     40 H22         3.2349    7.0165    1.6304 H         1 <0>         0.0852
     41 H23         3.8655    5.5127    2.3459 H         1 <0>         0.1125
     42 H24         1.3838    5.4771    2.2066 H         1 <0>         0.1276
     43 H25         2.1089    4.2145    1.1831 H         1 <0>         0.1549
     44 N1          1.3079    5.8840    0.1455 N.4       1 <0>        -0.3834
     45 H26         1.2608    6.9022    0.2696 H         1 <0>         0.4240
@<TRIPOS>BOND
     1    1    6 ar
     2    1    2 ar
     3    1   19 1
     4    2    3 ar
     5    2   20 1
     6    3    4 ar
     7    3    8 1
     8    4    5 ar
     9    4   21 1
    10    5    6 ar
    11    5    7 1
    12    6   22 1
    13    7   23 1
    14    8   13 1
    15    8    9 1
    16    8   44 1
    17    9   10 1
    18    9   24 1
    19    9   25 1
    20   10   11 1
    21   10   26 1
    22   10   27 1
    23   11   12 1
    24   11   28 1
    25   11   29 1
    26   12   13 1
    27   12   30 1
    28   12   31 1
    29   13   32 1
    30   13   33 1
    31   14   15 1
    32   14   34 1
    33   14   35 1
    34   14   44 1
    35   15   16 1
    36   15   36 1
    37   15   37 1
    38   16   17 1
    39   16   38 1
    40   16   39 1
    41   17   18 1
    42   17   40 1
    43   17   41 1
    44   18   42 1
    45   18   43 1
    46   18   44 1
    47   44   45 1
@<TRIPOS>MOLECULE
ZINC00132781
   21    22     0     0     0
SMALL
USER_CHARGES
5-bromo-7-(trifluoromethyl)-1,4-dihydroquinoxaline-2,3-dione
@<TRIPOS>ATOM
      1 C1         -2.4847    3.6997    0.0434 C.ar      1 <0>        -0.0517
      2 C2         -3.6598    2.9760    0.0502 C.ar      1 <0>        -0.1680
      3 C3         -3.6267    1.5921    0.0429 C.ar      1 <0>        -0.0241
      4 C4         -2.4175    0.9255    0.0287 C.ar      1 <0>        -0.1080
      5 C5         -1.2267    1.6446    0.0168 C.ar      1 <0>         0.1819
      6 C6         -1.2608    3.0401    0.0290 C.ar      1 <0>         0.1270
      7 N1         -0.0801    3.7774    0.0222 N.am      1 <0>        -0.6349
      8 H1         -0.1155    4.7768    0.0279 H         1 <0>         0.4358
      9 C7          1.1114    3.1460    0.0079 C.2       1 <0>         0.5118
     10 O1          2.1442    3.7851    0.0010 O.2       1 <0>        -0.4525
     11 C8          1.1480    1.6550   -0.0000 C.2       1 <0>         0.5119
     12 O2          2.2110    1.0675   -0.0133 O.2       1 <0>        -0.4472
     13 N2         -0.0111    0.9658    0.0074 N.am      1 <0>        -0.6395
     14 H2          0.0025   -0.0341    0.0061 H         1 <0>         0.4328
     15 Br1        -2.3802   -0.9651    0.0188 Br        1 <0>        -0.0019
     16 C9         -4.9841    3.6951    0.0663 C.3       1 <0>         0.5157
     17 F1         -5.4060    3.9247   -1.2477 F         1 <0>        -0.1696
     18 F2         -5.9329    2.9102    0.7303 F         1 <0>        -0.1702
     19 F3         -4.8428    4.9179    0.7311 F         1 <0>        -0.1716
     20 H3         -2.5158    4.7793    0.0495 H         1 <0>         0.1615
     21 H4         -4.5500    1.0317    0.0480 H         1 <0>         0.1606
@<TRIPOS>BOND
     1    1    6 ar
     2    1    2 ar
     3    1   20 1
     4    2    3 ar
     5    2   16 1
     6    3    4 ar
     7    3   21 1
     8    4    5 ar
     9    4   15 1
    10    5   13 1
    11    5    6 ar
    12    6    7 1
    13    7    8 1
    14    7    9 am
    15    9   10 2
    16    9   11 1
    17   11   12 2
    18   11   13 am
    19   13   14 1
    20   16   17 1
    21   16   18 1
    22   16   19 1
@<TRIPOS>MOLECULE
ZINC00005936
   50    52     0     0     0
SMALL
USER_CHARGES
1-[2-hydroxy-2-(4-hydroxyphenyl)-1-methyl-ethyl]-4-phenyl-piperidin-4-ol
@<TRIPOS>ATOM
      1 C1         -1.7773    1.2090   -4.4603 C.3       1 <0>        -0.1747
      2 C2         -2.1841   -0.1251   -3.8314 C.3       1 <0>         0.0014
      3 H1         -3.2637   -0.1421   -3.6818 H         1 <0>         0.1463
      4 C3         -1.7799   -1.2714   -4.7607 C.3       1 <0>         0.1378
      5 H2         -2.2595   -1.1392   -5.7305 H         1 <0>         0.1525
      6 C4         -2.2153   -2.5829   -4.1595 C.ar      1 <0>        -0.1674
      7 C5         -1.4557   -3.1727   -3.1661 C.ar      1 <0>        -0.1394
      8 C6         -1.8557   -4.3721   -2.6094 C.ar      1 <0>        -0.1258
      9 C7         -3.0144   -4.9906   -3.0562 C.ar      1 <0>         0.1334
     10 C8         -3.7718   -4.3995   -4.0570 C.ar      1 <0>        -0.1261
     11 C9         -3.3707   -3.1971   -4.6062 C.ar      1 <0>        -0.0728
     12 O1         -3.4066   -6.1737   -2.5146 O.3       1 <0>        -0.4946
     13 O2         -0.3606   -1.2716   -4.9273 O.3       1 <0>        -0.5323
     14 C10        -2.2828    0.3446   -1.4586 C.3       1 <0>         0.0001
     15 C11        -1.6261    0.0367   -0.1110 C.3       1 <0>        -0.1339
     16 C12        -0.1921    0.5735   -0.1131 C.3       1 <0>         0.1764
     17 C13         0.5809   -0.0587   -1.2738 C.3       1 <0>        -0.1731
     18 C14        -0.1411    0.2518   -2.5885 C.3       1 <0>        -0.0205
     19 C15         0.4791    0.2222    1.1896 C.ar      1 <0>        -0.1288
     20 C16         0.1070   -0.9205    1.8727 C.ar      1 <0>        -0.1150
     21 C17         0.7261   -1.2454    3.0652 C.ar      1 <0>        -0.1122
     22 C18         1.7099   -0.4220    3.5799 C.ar      1 <0>        -0.1056
     23 C19         2.0784    0.7234    2.8995 C.ar      1 <0>        -0.1096
     24 C20         1.4630    1.0455    1.7043 C.ar      1 <0>        -0.1065
     25 O3         -0.2140    1.9936   -0.2712 O.3       1 <0>        -0.5476
     26 H3         -2.0653    2.0256   -3.7982 H         1 <0>         0.0834
     27 H4         -0.6977    1.2260   -4.6098 H         1 <0>         0.0904
     28 H5         -2.2790    1.3258   -5.4208 H         1 <0>         0.1059
     29 H6         -0.5511   -2.6934   -2.8222 H         1 <0>         0.1186
     30 H7         -1.2646   -4.8301   -1.8301 H         1 <0>         0.1427
     31 H8         -4.6740   -4.8793   -4.4068 H         1 <0>         0.1447
     32 H9         -3.9600   -2.7365   -5.3853 H         1 <0>         0.1416
     33 H10        -3.0524   -6.9507   -2.9685 H         1 <0>         0.4056
     34 H11         0.1262   -1.5854   -4.1529 H         1 <0>         0.3706
     35 H12        -3.2993   -0.0490   -1.4655 H         1 <0>         0.1292
     36 H13        -2.3102    1.4235   -1.6112 H         1 <0>         0.1415
     37 H14        -1.6108   -1.0414    0.0486 H         1 <0>         0.1012
     38 H15        -2.1925    0.5149    0.6882 H         1 <0>         0.1243
     39 H16         1.5902    0.3518   -1.3054 H         1 <0>         0.1200
     40 H17         0.6309   -1.1383   -1.1326 H         1 <0>         0.0958
     41 H18         0.3980   -0.2091   -3.4162 H         1 <0>         0.1380
     42 H19        -0.1785    1.3311   -2.7359 H         1 <0>         0.1456
     43 H20        -0.6648   -1.5615    1.4728 H         1 <0>         0.1223
     44 H21         0.4379   -2.1401    3.5970 H         1 <0>         0.1291
     45 H22         2.1905   -0.6735    4.5139 H         1 <0>         0.1299
     46 H23         2.8469    1.3669    3.3018 H         1 <0>         0.1302
     47 H24         1.7507    1.9407    1.1729 H         1 <0>         0.1227
     48 H25         0.6627    2.4016   -0.2833 H         1 <0>         0.3903
     49 N1         -1.5067   -0.3121   -2.5317 N.4       1 <0>        -0.3997
     50 H26        -1.4439   -1.3169   -2.3301 H         1 <0>         0.4142
@<TRIPOS>BOND
     1    1    2 1
     2    1   26 1
     3    1   27 1
     4    1   28 1
     5    2    3 1
     6    2    4 1
     7    2   49 1
     8    4    5 1
     9    4    6 1
    10    4   13 1
    11    6   11 ar
    12    6    7 ar
    13    7    8 ar
    14    7   29 1
    15    8    9 ar
    16    8   30 1
    17    9   10 ar
    18    9   12 1
    19   10   11 ar
    20   10   31 1
    21   11   32 1
    22   12   33 1
    23   13   34 1
    24   14   15 1
    25   14   35 1
    26   14   36 1
    27   14   49 1
    28   15   16 1
    29   15   37 1
    30   15   38 1
    31   16   17 1
    32   16   19 1
    33   16   25 1
    34   17   18 1
    35   17   39 1
    36   17   40 1
    37   18   41 1
    38   18   42 1
    39   18   49 1
    40   19   24 ar
    41   19   20 ar
    42   20   21 ar
    43   20   43 1
    44   21   22 ar
    45   21   44 1
    46   22   23 ar
    47   22   45 1
    48   23   24 ar
    49   23   46 1
    50   24   47 1
    51   25   48 1
    52   49   50 1
@<TRIPOS>MOLECULE
ZINC25757829
   32    35     0     0     0
SMALL
USER_CHARGES

@<TRIPOS>ATOM
      1 C1         -0.0187    1.5258    0.0104 C.3       1 <0>        -0.1252
      2 C2          0.0021   -0.0041    0.0020 C.3       1 <0>         0.1700
      3 C3          0.7167   -0.5895   -1.2034 C.ar      1 <0>        -0.1069
      4 C4          0.8979    0.1802   -2.3343 C.ar      1 <0>        -0.1048
      5 C5          1.5405   -0.3573   -3.4350 C.ar      1 <0>        -0.1212
      6 C6          1.9955   -1.6623   -3.3949 C.ar      1 <0>        -0.1154
      7 C7          1.8143   -2.4276   -2.2597 C.ar      1 <0>        -0.1172
      8 C8          1.1755   -1.8892   -1.1532 C.ar      1 <0>        -0.0768
      9 C9          1.0113   -2.7345    0.0833 C.3       1 <0>        -0.1060
     10 C10         0.1766   -2.0033    1.1369 C.3       1 <0>         0.1001
     11 H1          0.2513   -2.4929    2.1079 H         1 <0>         0.1081
     12 N1          0.6774   -0.5970    1.1980 N.3       1 <0>        -0.6342
     13 C11        -1.2530   -1.8806    0.6988 C.ar      1 <0>        -0.0952
     14 C12        -1.3755   -0.6242    0.0348 C.ar      1 <0>        -0.0809
     15 C13        -2.5771   -0.1782   -0.4723 C.ar      1 <0>        -0.0931
     16 C14        -3.6801   -1.0063   -0.2906 C.ar      1 <0>        -0.1176
     17 C15        -3.5744   -2.2154    0.3646 C.ar      1 <0>        -0.1209
     18 C16        -2.3295   -2.7288    0.8705 C.ar      1 <0>        -0.0946
     19 H2          1.0039    1.9031    0.0027 H         1 <0>         0.0650
     20 H3         -0.5459    1.8868   -0.8726 H         1 <0>         0.0670
     21 H4         -0.5289    1.8773    0.9072 H         1 <0>         0.0732
     22 H5          0.5390    1.1985   -2.3601 H         1 <0>         0.1272
     23 H6          1.6860    0.2402   -4.3228 H         1 <0>         0.1244
     24 H7          2.4941   -2.0848   -4.2547 H         1 <0>         0.1231
     25 H8          2.1706   -3.4468   -2.2339 H         1 <0>         0.1229
     26 H9          0.5143   -3.6672   -0.1835 H         1 <0>         0.0854
     27 H10         1.9944   -2.9588    0.4973 H         1 <0>         0.0869
     28 H11         1.6807   -0.5800    1.0922 H         1 <0>         0.3441
     29 H12        -2.6584    0.7686   -0.9856 H         1 <0>         0.1300
     30 H13        -4.6417   -0.6950   -0.6711 H         1 <0>         0.1239
     31 H14        -4.4549   -2.8304    0.4782 H         1 <0>         0.1194
     32 H15        -2.2281   -3.6740    1.3830 H         1 <0>         0.1394
@<TRIPOS>BOND
     1    1    2 1
     2    1   19 1
     3    1   20 1
     4    1   21 1
     5    2   12 1
     6    2   14 1
     7    2    3 1
     8    3    8 ar
     9    3    4 ar
    10    4    5 ar
    11    4   22 1
    12    5    6 ar
    13    5   23 1
    14    6    7 ar
    15    6   24 1
    16    7    8 ar
    17    7   25 1
    18    8    9 1
    19    9   10 1
    20    9   26 1
    21    9   27 1
    22   10   11 1
    23   10   12 1
    24   10   13 1
    25   12   28 1
    26   13   18 ar
    27   13   14 ar
    28   14   15 ar
    29   15   16 ar
    30   15   29 1
    31   16   17 ar
    32   16   30 1
    33   17   18 ar
    34   17   31 1
    35   18   32 1
@<TRIPOS>MOLECULE
ZINC12428297
   18    19     0     0     0
SMALL
USER_CHARGES

@<TRIPOS>ATOM
      1 C1         -0.0168    1.3862    0.0097 C.ar      1 <0>        -0.1045
      2 C2          1.1691    2.0939    0.0021 C.ar      1 <0>        -0.0139
      3 C3          2.3815    1.4234   -0.0130 C.ar      1 <0>        -0.0845
      4 C4          2.4122    0.0428   -0.0206 C.ar      1 <0>        -0.0327
      5 C5          1.2234   -0.6800   -0.0132 C.ar      1 <0>         0.1328
      6 C6          0.0021   -0.0041    0.0020 C.ar      1 <0>         0.1454
      7 N1         -1.1978   -0.7098    0.0096 N.am      1 <0>        -0.6311
      8 C7         -1.1895   -2.0582    0.0023 C.2       1 <0>         0.5117
      9 C8          0.1151   -2.7807   -0.0140 C.2       1 <0>         0.5110
     10 O1          0.1439   -3.9950   -0.0211 O.2       1 <0>        -0.4536
     11 N2          1.2625   -2.0722   -0.0210 N.am      1 <0>        -0.6332
     12 H1          2.1161   -2.5327   -0.0315 H         1 <0>         0.4259
     13 O2         -2.2340   -2.6781    0.0093 O.2       1 <0>        -0.4544
     14 Cl1         3.9346   -0.7911   -0.0401 Cl        1 <0>        -0.0290
     15 Cl2         1.1406    3.8296    0.0111 Cl        1 <0>        -0.0357
     16 H2         -0.9595    1.9129    0.0260 H         1 <0>         0.1584
     17 H3          3.3056    1.9824   -0.0192 H         1 <0>         0.1589
     18 H4         -2.0412   -0.2308    0.0205 H         1 <0>         0.4285
@<TRIPOS>BOND
     1    1    6 ar
     2    1    2 ar
     3    1   16 1
     4    2    3 ar
     5    2   15 1
     6    3    4 ar
     7    3   17 1
     8    4    5 ar
     9    4   14 1
    10    5   11 1
    11    5    6 ar
    12    6    7 1
    13    7    8 am
    14    7   18 1
    15    8    9 1
    16    8   13 2
    17    9   10 2
    18    9   11 am
    19   11   12 1
@<TRIPOS>MOLECULE
ZINC12428297
   17    18     0     0     0
SMALL
USER_CHARGES

@<TRIPOS>ATOM
      1 C1         -0.0168    1.3862    0.0097 C.ar      1 <0>        -0.1094
      2 C2          1.1683    2.0925    0.0021 C.ar      1 <0>        -0.0647
      3 C3          2.3861    1.4248   -0.0135 C.ar      1 <0>        -0.0944
      4 C4          2.4275    0.0495   -0.0218 C.ar      1 <0>        -0.0347
      5 C5          1.2320   -0.6859   -0.0139 C.ar      1 <0>         0.1832
      6 C6          0.0021   -0.0041    0.0020 C.ar      1 <0>         0.0626
      7 N1         -1.1839   -0.7152    0.0091 N.am      1 <0>        -0.6297
      8 C7         -1.1390   -2.0653    0.0010 C.2       1 <0>         0.4750
      9 C8          0.1705   -2.7392   -0.0151 C.2       1 <0>         0.4190
     10 O1          0.2347   -4.0928   -0.0239 O.3       1 <0>        -0.6202
     11 N2          1.2703   -2.0340   -0.0224 N.2       1 <0>        -0.5943
     12 O2         -2.1676   -2.7165    0.0073 O.2       1 <0>        -0.5221
     13 Cl1         3.9554   -0.7745   -0.0425 Cl        1 <0>        -0.0534
     14 Cl2         1.1372    3.8282    0.0118 Cl        1 <0>        -0.0836
     15 H1         -0.9593    1.9133    0.0260 H         1 <0>         0.1297
     16 H2          3.3070    1.9890   -0.0197 H         1 <0>         0.1353
     17 H3         -2.0357   -0.2512    0.0200 H         1 <0>         0.4016
@<TRIPOS>BOND
     1    1    6 ar
     2    1    2 ar
     3    1   15 1
     4    2    3 ar
     5    2   14 1
     6    3    4 ar
     7    3   16 1
     8    4    5 ar
     9    4   13 1
    10    5   11 1
    11    5    6 ar
    12    6    7 1
    13    7    8 am
    14    7   17 1
    15    8    9 1
    16    8   12 2
    17    9   10 1
    18    9   11 2
@<TRIPOS>MOLECULE
ZINC18187630
   18    19     0     0     0
SMALL
USER_CHARGES

@<TRIPOS>ATOM
      1 C1         -0.0166    1.3763    0.0096 C.ar      1 <0>        -0.0987
      2 C2          1.1776    2.0888    0.0020 C.ar      1 <0>         0.1367
      3 C3          2.3933    1.4029   -0.0137 C.ar      1 <0>         0.1367
      4 C4          2.4012    0.0123   -0.0216 C.ar      1 <0>        -0.0987
      5 C5          1.2101   -0.6856   -0.0136 C.ar      1 <0>        -0.0201
      6 C6          0.0021   -0.0041    0.0020 C.ar      1 <0>        -0.0201
      7 Cl1        -1.4910   -0.8897    0.0120 Cl        1 <0>        -0.0282
      8 Cl2         1.2243   -2.4215   -0.0241 Cl        1 <0>        -0.0282
      9 N1          3.5991    2.0989   -0.0219 N.am      1 <0>        -0.6322
     10 H1          4.4387    1.6131   -0.0335 H         1 <0>         0.4272
     11 C7          3.6016    3.4473   -0.0143 C.2       1 <0>         0.5107
     12 O1          4.6511    4.0590   -0.0219 O.2       1 <0>        -0.4559
     13 C8          2.3028    4.1801    0.0029 C.2       1 <0>         0.5108
     14 O2          2.2837    5.3946    0.0095 O.2       1 <0>        -0.4559
     15 N2          1.1499    3.4808    0.0097 N.am      1 <0>        -0.6323
     16 H2          0.3000    3.9482    0.0203 H         1 <0>         0.4272
     17 H3         -0.9593    1.9031    0.0259 H         1 <0>         0.1605
     18 H4          3.3397   -0.5220   -0.0345 H         1 <0>         0.1605
@<TRIPOS>BOND
     1    1    6 ar
     2    1    2 ar
     3    1   17 1
     4    2   15 1
     5    2    3 ar
     6    3    4 ar
     7    3    9 1
     8    4    5 ar
     9    4   18 1
    10    5    6 ar
    11    5    8 1
    12    6    7 1
    13    9   10 1
    14    9   11 am
    15   11   12 2
    16   11   13 1
    17   13   14 2
    18   13   15 am
    19   15   16 1
@<TRIPOS>MOLECULE
ZINC18187630
   18    19     0     0     0
SMALL
USER_CHARGES

@<TRIPOS>ATOM
      1 C1         -0.0163    1.3496    0.0095 C.ar      1 <0>        -0.1720
      2 C2          1.2042    2.0706    0.0017 C.ar      1 <0>         0.3977
      3 N1          1.2018    3.3887    0.0092 N.am      1 <0>        -0.4834
      4 C3          2.3685    4.0638    0.0017 C.2       1 <0>         0.4770
      5 O1          2.3724    5.2780    0.0090 O.2       1 <0>        -0.2305
      6 C4          3.6585    3.3064   -0.0153 C.2       1 <0>         0.4771
      7 O2          4.7169    3.9015   -0.0219 O.2       1 <0>        -0.2305
      8 N2          3.6374    1.9587   -0.0227 N.am      1 <0>        -0.4835
      9 C5          2.4852    1.3184   -0.0146 C.ar      1 <0>         0.3977
     10 C6          2.4506   -0.0986   -0.0219 C.ar      1 <0>        -0.1721
     11 C7          1.2596   -0.7424   -0.0140 C.ar      1 <0>         0.1260
     12 C8          0.0021   -0.0041    0.0020 C.ar      1 <0>         0.1258
     13 Cl1        -1.4985   -0.8768    0.0122 Cl        1 <0>         0.1611
     14 Cl2         1.2289   -2.4781   -0.0229 Cl        1 <0>         0.1612
     15 H1         -0.9578    1.8784    0.0258 H         1 <0>         0.2402
     16 H2          3.3713   -0.6630   -0.0341 H         1 <0>         0.2402
     17 H3          0.3612    3.8725    0.0199 H         1 <0>         0.4840
     18 H4          4.4696    1.4604   -0.0338 H         1 <0>         0.4840
@<TRIPOS>BOND
     1    1   12 ar
     2    1    2 ar
     3    1   15 1
     4    2    9 ar
     5    2    3 2
     6    3    4 am
     7    3   17 1
     8    4    5 2
     9    4    6 1
    10    6    7 2
    11    6    8 am
    12    8    9 2
    13    8   18 1
    14    9   10 ar
    15   10   11 ar
    16   10   16 1
    17   11   12 ar
    18   11   14 1
    19   12   13 1
@<TRIPOS>MOLECULE
ZINC13489845
   33    35     0     0     0
SMALL
USER_CHARGES

@<TRIPOS>ATOM
      1 C1         -0.0428    1.3480    0.0142 C.ar      1 <0>        -0.1063
      2 C2          1.1416    2.0613    0.0194 C.ar      1 <0>        -0.1121
      3 C3          2.3455    1.3880    0.0007 C.ar      1 <0>        -0.1096
      4 C4          2.3766    0.0001   -0.0195 C.ar      1 <0>        -0.1117
      5 C5          1.1982   -0.7118   -0.0149 C.ar      1 <0>        -0.0759
      6 C6         -0.0132   -0.0307   -0.0038 C.ar      1 <0>        -0.1150
      7 C7          1.1531   -2.2170   -0.0053 C.3       1 <0>        -0.1003
      8 C8          2.4751   -2.8042   -0.4972 C.3       1 <0>         0.1024
      9 N1          3.5680   -2.1086    0.2022 N.pl3     1 <0>        -0.5714
     10 C9          3.7257   -0.6730   -0.0540 C.3       1 <0>         0.1495
     11 C10         4.4177   -2.7863    1.0719 C.ar      1 <0>         0.3450
     12 C11         4.1904   -4.1261    1.3957 C.ar      1 <0>        -0.2310
     13 C12         5.0520   -4.7648    2.2598 C.ar      1 <0>         0.1803
     14 N2          6.0847   -4.1285    2.7827 N.ar      1 <0>        -0.5401
     15 C13         6.3368   -2.8579    2.5030 C.ar      1 <0>         0.4801
     16 C14         5.5177   -2.1478    1.6357 C.ar      1 <0>        -0.2962
     17 N3          7.4361   -2.2314    3.0793 N.pl3     1 <0>        -0.8299
     18 H1         -0.9887    1.8690    0.0288 H         1 <0>         0.1298
     19 H2          1.1243    3.1410    0.0377 H         1 <0>         0.1305
     20 H3          3.2709    1.9447    0.0014 H         1 <0>         0.1268
     21 H4         -0.9395   -0.5860   -0.0091 H         1 <0>         0.1273
     22 H5          0.9629   -2.5635    1.0105 H         1 <0>         0.0858
     23 H6          0.3465   -2.5556   -0.6556 H         1 <0>         0.0995
     24 H7          2.5120   -3.8698   -0.2712 H         1 <0>         0.1016
     25 H8          2.5691   -2.6511   -1.5723 H         1 <0>         0.0966
     26 H9          4.1789   -0.5271   -1.0345 H         1 <0>         0.0979
     27 H10         4.3684   -0.2366    0.7106 H         1 <0>         0.1010
     28 H11         3.3486   -4.6548    0.9735 H         1 <0>         0.1752
     29 H12         4.8806   -5.8004    2.5137 H         1 <0>         0.2050
     30 H13         5.7286   -1.1138    1.4058 H         1 <0>         0.1700
     31 H14         8.0139   -2.7242    3.6828 H         1 <0>         0.4195
     32 H15         7.6251   -1.3016    2.8779 H         1 <0>         0.4367
     33 H16         6.6745   -4.6042    3.3883 H         1 <0>         0.4390
@<TRIPOS>BOND
     1    1    6 ar
     2    1    2 ar
     3    1   18 1
     4    2    3 ar
     5    2   19 1
     6    3    4 ar
     7    3   20 1
     8    4   10 1
     9    4    5 ar
    10    5    6 ar
    11    5    7 1
    12    6   21 1
    13    7    8 1
    14    7   22 1
    15    7   23 1
    16    8    9 1
    17    8   24 1
    18    8   25 1
    19    9   10 1
    20    9   11 1
    21   10   26 1
    22   10   27 1
    23   11   16 ar
    24   11   12 ar
    25   12   13 ar
    26   12   28 1
    27   13   14 ar
    28   13   29 1
    29   14   15 ar
    30   14   33 1
    31   15   16 ar
    32   15   17 1
    33   16   30 1
    34   17   31 1
    35   17   32 1
@<TRIPOS>MOLECULE
ZINC01481896
   52    55     0     0     0
SMALL
USER_CHARGES
dimethyl-phenethyl-BLAHol
@<TRIPOS>ATOM
      1 C1         -6.1807    6.7631   -4.0595 C.3       1 <0>        -0.1546
      2 C2         -5.9468    6.1156   -2.6931 C.3       1 <0>        -0.0889
      3 H1         -6.7377    5.3945   -2.4870 H         1 <0>         0.1007
      4 C3         -4.5906    5.4108   -2.6819 C.3       1 <0>         0.0346
      5 H2         -4.6349    4.5919   -3.3999 H         1 <0>         0.1316
      6 C4         -3.5092    6.3650   -3.1582 C.3       1 <0>        -0.0897
      7 C5         -3.6465    7.7289   -2.5364 C.ar      1 <0>        -0.1107
      8 C6         -2.5909    8.6197   -2.6985 C.ar      1 <0>        -0.0940
      9 C7         -2.6576    9.8912   -2.1710 C.ar      1 <0>        -0.1365
     10 C8         -3.7874   10.2892   -1.4705 C.ar      1 <0>         0.1242
     11 C9         -4.8366    9.4006   -1.3038 C.ar      1 <0>        -0.1399
     12 C10        -4.7623    8.1209   -1.8326 C.ar      1 <0>        -0.0594
     13 C11        -5.9342    7.1946   -1.6050 C.3       1 <0>        -0.0212
     14 C12        -5.7094    6.4962   -0.2519 C.3       1 <0>        -0.1336
     15 C13        -4.3282    5.8326   -0.2934 C.3       1 <0>        -0.0147
     16 C14        -3.0120    4.1248   -1.3898 C.3       1 <0>        -0.0078
     17 C15        -2.6934    3.6179    0.0181 C.3       1 <0>        -0.1009
     18 C16        -1.3782    2.8822    0.0015 C.ar      1 <0>        -0.1072
     19 C17        -1.3496    1.5232   -0.2498 C.ar      1 <0>        -0.1104
     20 C18        -0.1437    0.8474   -0.2593 C.ar      1 <0>        -0.1138
     21 C19         1.0344    1.5325   -0.0284 C.ar      1 <0>        -0.1047
     22 C20         1.0063    2.8926    0.2172 C.ar      1 <0>        -0.1137
     23 C21        -0.2000    3.5675    0.2320 C.ar      1 <0>        -0.1103
     24 C22        -7.2542    7.9682   -1.5991 C.3       1 <0>        -0.1466
     25 O1         -3.8640   11.5429   -0.9518 O.3       1 <0>        -0.4967
     26 H3         -6.1665    5.9950   -4.8327 H         1 <0>         0.0685
     27 H4         -7.1486    7.2644   -4.0631 H         1 <0>         0.0798
     28 H5         -5.3937    7.4911   -4.2561 H         1 <0>         0.0721
     29 H6         -2.5339    5.9536   -2.8983 H         1 <0>         0.0949
     30 H7         -3.5740    6.4616   -4.2420 H         1 <0>         0.1216
     31 H8         -1.7105    8.3122   -3.2433 H         1 <0>         0.1315
     32 H9         -1.8330   10.5761   -2.3028 H         1 <0>         0.1364
     33 H10        -5.7178    9.7063   -0.7593 H         1 <0>         0.1372
     34 H11        -5.7423    7.2305    0.5529 H         1 <0>         0.1139
     35 H12        -6.4788    5.7404   -0.0939 H         1 <0>         0.0945
     36 H13        -4.1336    5.3388    0.6586 H         1 <0>         0.1305
     37 H14        -3.5660    6.5910   -0.4718 H         1 <0>         0.1348
     38 H15        -2.2224    4.7996   -1.7204 H         1 <0>         0.1346
     39 H16        -3.0774    3.2791   -2.0744 H         1 <0>         0.1304
     40 H17        -3.4830    2.9431    0.3487 H         1 <0>         0.0945
     41 H18        -2.6280    4.4636    0.7027 H         1 <0>         0.0961
     42 H19        -2.2697    0.9887   -0.4346 H         1 <0>         0.1238
     43 H20        -0.1217   -0.2152   -0.4515 H         1 <0>         0.1292
     44 H21         1.9769    1.0053   -0.0403 H         1 <0>         0.1295
     45 H22         1.9268    3.4279    0.3973 H         1 <0>         0.1290
     46 H23        -0.2220    4.6301    0.4239 H         1 <0>         0.1230
     47 H24        -8.0775    7.2806   -1.4053 H         1 <0>         0.0702
     48 H25        -7.2257    8.7297   -0.8197 H         1 <0>         0.0711
     49 H26        -7.3999    8.4455   -2.5682 H         1 <0>         0.0733
     50 H27        -4.2504   12.1944   -1.5530 H         1 <0>         0.4006
     51 N1         -4.3150    4.8038   -1.3632 N.4       1 <0>        -0.3844
     52 H28        -5.0456    4.1112   -1.1613 H         1 <0>         0.4275
@<TRIPOS>BOND
     1    1    2 1
     2    1   26 1
     3    1   27 1
     4    1   28 1
     5    2    3 1
     6    2   13 1
     7    2    4 1
     8    4    5 1
     9    4    6 1
    10    4   51 1
    11    6    7 1
    12    6   29 1
    13    6   30 1
    14    7   12 ar
    15    7    8 ar
    16    8    9 ar
    17    8   31 1
    18    9   10 ar
    19    9   32 1
    20   10   11 ar
    21   10   25 1
    22   11   12 ar
    23   11   33 1
    24   12   13 1
    25   13   14 1
    26   13   24 1
    27   14   15 1
    28   14   34 1
    29   14   35 1
    30   15   36 1
    31   15   37 1
    32   15   51 1
    33   16   17 1
    34   16   38 1
    35   16   39 1
    36   16   51 1
    37   17   18 1
    38   17   40 1
    39   17   41 1
    40   18   23 ar
    41   18   19 ar
    42   19   20 ar
    43   19   42 1
    44   20   21 ar
    45   20   43 1
    46   21   22 ar
    47   21   44 1
    48   22   23 ar
    49   22   45 1
    50   23   46 1
    51   24   47 1
    52   24   48 1
    53   24   49 1
    54   25   50 1
    55   51   52 1
@<TRIPOS>MOLECULE
ZINC00000523
   43    45     0     0     0
SMALL
USER_CHARGES

@<TRIPOS>ATOM
      1 C1         -0.3092    1.4992   -0.1585 C.3       1 <0>        -0.1545
      2 C2         -0.1427   -0.0197   -0.0813 C.3       1 <0>        -0.0891
      3 H1         -1.1219   -0.4942   -0.0163 H         1 <0>         0.1012
      4 C3          0.5921   -0.5217   -1.3233 C.3       1 <0>         0.0282
      5 H2         -0.0501   -0.3358   -2.1842 H         1 <0>         0.1364
      6 C4          1.8721    0.2694   -1.5249 C.3       1 <0>        -0.0949
      7 C5          2.6259    0.4650   -0.2371 C.ar      1 <0>        -0.1124
      8 C6          3.9266    0.9503   -0.3193 C.ar      1 <0>        -0.0941
      9 C7          4.6685    1.1673    0.8216 C.ar      1 <0>        -0.1367
     10 C8          4.1147    0.9020    2.0660 C.ar      1 <0>         0.1248
     11 C9          2.8216    0.4129    2.1483 C.ar      1 <0>        -0.1400
     12 C10         2.0830    0.1878    0.9966 C.ar      1 <0>        -0.0592
     13 C11         0.6927   -0.3866    1.1502 C.3       1 <0>        -0.0221
     14 C12         0.8333   -1.9195    1.1810 C.3       1 <0>        -0.1318
     15 C13         1.5926   -2.3422   -0.0815 C.3       1 <0>        -0.0228
     16 N1          0.8425   -1.9546   -1.2597 N.4       1 <0>        -0.3642
     17 C14         1.5793   -2.3654   -2.4623 C.3       1 <0>         0.0229
     18 C15         1.7022   -3.8671   -2.4876 C.2       1 <0>        -0.2375
     19 C16         1.2835   -4.5411   -3.5300 C.2       1 <0>        -0.1019
     20 C17         0.0296    0.1343    2.4269 C.3       1 <0>        -0.1463
     21 O1          4.8367    1.1202    3.1965 O.3       1 <0>        -0.4966
     22 H3          0.6720    1.9694   -0.2234 H         1 <0>         0.0720
     23 H4         -0.8944    1.7562   -1.0415 H         1 <0>         0.0686
     24 H5         -0.8239    1.8541    0.7343 H         1 <0>         0.0799
     25 H6          2.5096   -0.2627   -2.2310 H         1 <0>         0.0962
     26 H7          1.6232    1.2455   -1.9412 H         1 <0>         0.1210
     27 H8          4.3596    1.1588   -1.2865 H         1 <0>         0.1318
     28 H9          5.6785    1.5426    0.7474 H         1 <0>         0.1367
     29 H10         2.3862    0.2057    3.1147 H         1 <0>         0.1377
     30 H11         1.3919   -2.2217    2.0668 H         1 <0>         0.1134
     31 H12        -0.1541   -2.3811    1.1904 H         1 <0>         0.0947
     32 H13         2.5644   -1.8491   -0.1027 H         1 <0>         0.1307
     33 H14         1.7344   -3.4229   -0.0750 H         1 <0>         0.1335
     34 H15         1.0426   -2.0297   -3.3496 H         1 <0>         0.1324
     35 H16         2.5740   -1.9196   -2.4489 H         1 <0>         0.1358
     36 H17         2.1354   -4.3878   -1.6464 H         1 <0>         0.1336
     37 H18         0.8504   -4.0204   -4.3713 H         1 <0>         0.1119
     38 H19         1.3716   -5.6173   -3.5482 H         1 <0>         0.1234
     39 H20        -0.9613   -0.3084    2.5283 H         1 <0>         0.0701
     40 H21         0.6386   -0.1368    3.2893 H         1 <0>         0.0713
     41 H22        -0.0609    1.2192    2.3726 H         1 <0>         0.0737
     42 H23         4.7358    2.0098    3.5620 H         1 <0>         0.4007
     43 H24        -0.0408   -2.4417   -1.2347 H         1 <0>         0.4213
@<TRIPOS>BOND
     1    1    2 1
     2    1   22 1
     3    1   23 1
     4    1   24 1
     5    2    3 1
     6    2   13 1
     7    2    4 1
     8    4    5 1
     9    4   16 1
    10    4    6 1
    11    6    7 1
    12    6   25 1
    13    6   26 1
    14    7   12 ar
    15    7    8 ar
    16    8    9 ar
    17    8   27 1
    18    9   10 ar
    19    9   28 1
    20   10   11 ar
    21   10   21 1
    22   11   12 ar
    23   11   29 1
    24   12   13 1
    25   13   14 1
    26   13   20 1
    27   14   15 1
    28   14   30 1
    29   14   31 1
    30   15   16 1
    31   15   32 1
    32   15   33 1
    33   16   17 1
    34   16   43 1
    35   17   18 1
    36   17   34 1
    37   17   35 1
    38   18   19 2
    39   18   36 1
    40   19   37 1
    41   19   38 1
    42   20   39 1
    43   20   40 1
    44   20   41 1
    45   21   42 1
@<TRIPOS>MOLECULE
ZINC06031758
   36    38     0     0     0
SMALL
USER_CHARGES
dimethylBLAHol
@<TRIPOS>ATOM
      1 C1          2.8205   -0.5889   -2.4836 C.3       1 <0>        -0.1558
      2 C2          2.1434   -0.0411   -1.2257 C.3       1 <0>        -0.0893
      3 H1          2.6987   -0.3561   -0.3423 H         1 <0>         0.1010
      4 C3          0.7081   -0.5604   -1.1450 C.3       1 <0>         0.0333
      5 H2          0.7518   -1.6421   -1.0180 H         1 <0>         0.1379
      6 C4         -0.0020   -0.2746   -2.4569 C.3       1 <0>        -0.0909
      7 C5          0.2463    1.0992   -2.9662 C.ar      1 <0>        -0.1139
      8 C6         -0.5376    1.5540   -4.0211 C.ar      1 <0>        -0.0931
      9 C7         -0.3328    2.8061   -4.5589 C.ar      1 <0>        -0.1364
     10 C8          0.6641    3.6235   -4.0455 C.ar      1 <0>         0.1254
     11 C9          1.4401    3.1741   -2.9900 C.ar      1 <0>        -0.1405
     12 C10         1.2262    1.9153   -2.4490 C.ar      1 <0>        -0.0622
     13 C11         2.0955    1.4891   -1.2890 C.3       1 <0>        -0.0220
     14 C12         1.4202    1.9928   -0.0008 C.3       1 <0>        -0.1333
     15 C13        -0.0178    1.4619    0.0101 C.3       1 <0>        -0.0095
     16 C14         3.5054    2.0656   -1.4332 C.3       1 <0>        -0.1473
     17 O1          0.8779    4.8566   -4.5752 O.3       1 <0>        -0.4966
     18 H3          2.2683   -0.2626   -3.3649 H         1 <0>         0.0720
     19 H4          3.8434   -0.2161   -2.5372 H         1 <0>         0.0798
     20 H5          2.8323   -1.6781   -2.4449 H         1 <0>         0.0691
     21 H6          0.3327   -0.9933   -3.2050 H         1 <0>         0.1224
     22 H7         -1.0759   -0.3910   -2.3113 H         1 <0>         0.0936
     23 H8         -1.3142    0.9198   -4.4226 H         1 <0>         0.1324
     24 H9         -0.9469    3.1505   -5.3778 H         1 <0>         0.1370
     25 H10         2.2162    3.8073   -2.5863 H         1 <0>         0.1374
     26 H11         1.4117    3.0827    0.0101 H         1 <0>         0.1138
     27 H12         1.9590    1.6181    0.8695 H         1 <0>         0.0950
     28 H13        -0.5451    1.8229   -0.8730 H         1 <0>         0.1329
     29 H14        -0.5281    1.8134    0.9069 H         1 <0>         0.1318
     30 H15         3.9604    1.6881   -2.3490 H         1 <0>         0.0737
     31 H16         3.4505    3.1534   -1.4764 H         1 <0>         0.0713
     32 H17         4.1097    1.7661   -0.5770 H         1 <0>         0.0700
     33 H18         1.5174    4.8677   -5.3004 H         1 <0>         0.4011
     34 N1         -0.0088   -0.0185    0.0201 N.4       1 <0>        -0.5084
     35 H19         0.4534   -0.3438    0.8773 H         1 <0>         0.4334
     36 H20        -0.9776   -0.3583    0.0036 H         1 <0>         0.4348
@<TRIPOS>BOND
     1    1    2 1
     2    1   18 1
     3    1   19 1
     4    1   20 1
     5    2    3 1
     6    2   13 1
     7    2    4 1
     8    4    5 1
     9    4    6 1
    10    4   34 1
    11    6    7 1
    12    6   21 1
    13    6   22 1
    14    7   12 ar
    15    7    8 ar
    16    8    9 ar
    17    8   23 1
    18    9   10 ar
    19    9   24 1
    20   10   11 ar
    21   10   17 1
    22   11   12 ar
    23   11   25 1
    24   12   13 1
    25   13   14 1
    26   13   16 1
    27   14   15 1
    28   14   26 1
    29   14   27 1
    30   15   28 1
    31   15   29 1
    32   15   34 1
    33   16   30 1
    34   16   31 1
    35   16   32 1
    36   17   33 1
    37   34   35 1
    38   34   36 1
@<TRIPOS>MOLECULE
ZINC13743982
   18    19     0     0     0
SMALL
USER_CHARGES
5,7-dibromo-1,4-dihydroquinoxaline-2,3-dione
@<TRIPOS>ATOM
      1 C1         -0.0167    1.3767    0.0096 C.ar      1 <0>        -0.0734
      2 C2          0.0021   -0.0041    0.0020 C.ar      1 <0>        -0.0795
      3 C3          1.2082   -0.6852   -0.0132 C.ar      1 <0>        -0.0441
      4 C4          2.4001    0.0119   -0.0214 C.ar      1 <0>        -0.0989
      5 C5          2.3930    1.4030   -0.0138 C.ar      1 <0>         0.1624
      6 C6          1.1773    2.0891    0.0020 C.ar      1 <0>         0.1328
      7 N1          1.1496    3.4808    0.0098 N.am      1 <0>        -0.6312
      8 H1          0.2998    3.9482    0.0207 H         1 <0>         0.4285
      9 C7          2.3025    4.1801    0.0020 C.2       1 <0>         0.5113
     10 O1          2.2834    5.3946    0.0084 O.2       1 <0>        -0.4540
     11 C8          3.6014    3.4474   -0.0149 C.2       1 <0>         0.5112
     12 O2          4.6508    4.0591   -0.0225 O.2       1 <0>        -0.4504
     13 N2          3.5990    2.0990   -0.0221 N.am      1 <0>        -0.6351
     14 H2          4.4385    1.6132   -0.0328 H         1 <0>         0.4259
     15 Br1         4.0427   -0.9248   -0.0421 Br        1 <0>        -0.0067
     16 Br2        -1.6245   -0.9685    0.0118 Br        1 <0>        -0.0144
     17 H3         -0.9594    1.9035    0.0169 H         1 <0>         0.1580
     18 H4          1.2164   -1.7651   -0.0191 H         1 <0>         0.1574
@<TRIPOS>BOND
     1    1    6 ar
     2    1    2 ar
     3    1   17 1
     4    2    3 ar
     5    2   16 1
     6    3    4 ar
     7    3   18 1
     8    4    5 ar
     9    4   15 1
    10    5   13 1
    11    5    6 ar
    12    6    7 1
    13    7    8 1
    14    7    9 am
    15    9   10 2
    16    9   11 1
    17   11   12 2
    18   11   13 am
    19   13   14 1
@<TRIPOS>MOLECULE
ZINC28768623
   27    27     0     0     0
SMALL
USER_CHARGES
(2S,4R)-4-(phosphonomethyl)piperidine-2-carboxylic acid
@<TRIPOS>ATOM
      1 C1         -1.3745   -2.5417   -1.5677 C.3       1 <0>        -0.1674
      2 C2         -1.4183   -4.0649   -1.7090 C.3       1 <0>         0.0024
      3 N1         -2.7510   -4.5544   -1.3342 N.4       1 <0>        -0.5170
      4 C3         -3.0574   -4.2401    0.0671 C.3       1 <0>        -0.0095
      5 H1         -2.2856   -4.7142    0.6913 H         1 <0>         0.1270
      6 C4         -3.0626   -2.7222    0.2615 C.3       1 <0>        -0.1168
      7 C5         -1.6905   -2.1591   -0.1191 C.3       1 <0>        -0.0753
      8 H2         -0.9216   -2.5732    0.5497 H         1 <0>         0.0782
      9 C6         -1.7082   -0.6351    0.0149 C.3       1 <0>        -0.7309
     10 P1          0.0021   -0.0041    0.0020 P.3       1 <0>         2.2817
     11 O1          0.6948   -0.4814   -1.2156 O.2       1 <0>        -1.0838
     12 O2         -0.0198    1.6058    0.0109 O.3       1 <0>        -1.1192
     13 O3          0.7807   -0.5374    1.3064 O.3       1 <0>        -0.9391
     14 C7         -4.4124   -4.7964    0.4218 C.2       1 <0>         0.4598
     15 O4         -5.2035   -5.0629   -0.4516 O.co2     1 <0>        -0.6242
     16 O5         -4.7403   -4.9958    1.7081 O.co2     1 <0>        -0.7122
     17 H3         -2.1197   -2.0880   -2.2377 H         1 <0>         0.0765
     18 H4         -0.3717   -2.1757   -1.8332 H         1 <0>         0.1550
     19 H5         -1.2061   -4.3426   -2.7520 H         1 <0>         0.1238
     20 H6         -0.6633   -4.5163   -1.0486 H         1 <0>         0.1187
     21 H7         -3.5093   -4.0797   -1.9742 H         1 <0>         0.4435
     22 H8         -3.8358   -2.2731   -0.3792 H         1 <0>         0.0761
     23 H9         -3.2777   -2.4881    1.3146 H         1 <0>         0.0998
     24 H10        -2.2661   -0.1995   -0.8271 H         1 <0>         0.0895
     25 H11        -2.1950   -0.3558    0.9610 H         1 <0>         0.0777
     26 H12         1.8317   -0.2583    1.4720 H         1 <0>         0.4463
     27 H13        -2.7912   -5.6457   -1.4659 H         1 <0>         0.4396
@<TRIPOS>BOND
     1    1    7 1
     2    1    2 1
     3    1   17 1
     4    1   18 1
     5    2    3 1
     6    2   19 1
     7    2   20 1
     8    3    4 1
     9    3   21 1
    10    3   27 1
    11    4    5 1
    12    4    6 1
    13    4   14 1
    14    6    7 1
    15    6   22 1
    16    6   23 1
    17    7    8 1
    18    7    9 1
    19    9   10 1
    20    9   24 1
    21    9   25 1
    22   10   11 2
    23   10   12 1
    24   10   13 1
    25   13   26 1
    26   14   15 2
    27   14   16 1
@<TRIPOS>MOLECULE
ZINC13489844
   34    36     0     0     0
SMALL
USER_CHARGES
2-(2-methyl-4-pyridyl)-3,4-dihydro-1H-isoquinoline
@<TRIPOS>ATOM
      1 C1         -4.2009    1.6778   -2.5678 C.3       1 <0>        -0.1520
      2 C2         -2.7680    2.0857   -2.3411 C.ar      1 <0>         0.2000
      3 C3         -2.0744    1.5677   -1.2675 C.ar      1 <0>        -0.1680
      4 C4         -0.7507    1.9568   -1.0646 C.ar      1 <0>         0.2512
      5 C5         -0.1786    2.8505   -1.9701 C.ar      1 <0>        -0.2002
      6 C6         -0.9386    3.3173   -3.0214 C.ar      1 <0>         0.1720
      7 N1         -0.0178    1.4621    0.0101 N.pl3     1 <0>        -0.4671
      8 C7          1.3555    1.9907   -0.0002 C.3       1 <0>         0.0333
      9 C8          1.9891    1.7224    1.3651 C.3       1 <0>        -0.0806
     10 C9          1.8074    0.2741    1.7407 C.ar      1 <0>        -0.0741
     11 C10         2.5980   -0.2512    2.7517 C.ar      1 <0>        -0.1145
     12 C11         2.4578   -1.5705    3.1325 C.ar      1 <0>        -0.1046
     13 C12         1.5244   -2.3726    2.5024 C.ar      1 <0>        -0.1138
     14 C13         0.7387   -1.8514    1.4945 C.ar      1 <0>        -0.1073
     15 C14         0.8791   -0.5259    1.1098 C.ar      1 <0>        -0.1024
     16 C15         0.0021   -0.0041    0.0020 C.3       1 <0>         0.1018
     17 H1         -4.2305    0.7911   -3.2009 H         1 <0>         0.1151
     18 H2         -4.6715    1.4562   -1.6099 H         1 <0>         0.1144
     19 H3         -4.7372    2.4912   -3.0565 H         1 <0>         0.0981
     20 H4         -2.5511    0.8740   -0.5907 H         1 <0>         0.1842
     21 H5          0.8454    3.1718   -1.8495 H         1 <0>         0.1873
     22 H6         -0.5039    4.0095   -3.7274 H         1 <0>         0.1975
     23 H7          1.9344    1.4910   -0.7769 H         1 <0>         0.0763
     24 H8          1.3334    3.0639   -0.1892 H         1 <0>         0.1025
     25 H9          1.5126    2.3533    2.1155 H         1 <0>         0.0931
     26 H10         3.0532    1.9539    1.3204 H         1 <0>         0.0977
     27 H11         3.3271    0.3754    3.2439 H         1 <0>         0.1284
     28 H12         3.0757   -1.9752    3.9204 H         1 <0>         0.1302
     29 H13         1.4102   -3.4049    2.7985 H         1 <0>         0.1304
     30 H14         0.0103   -2.4790    1.0026 H         1 <0>         0.1262
     31 H15        -1.0123   -0.3783    0.1398 H         1 <0>         0.1065
     32 H16         0.3873   -0.3533   -0.9560 H         1 <0>         0.0777
     33 N2         -2.2335    2.9582   -3.2384 N.ar      1 <0>        -0.5121
     34 H17        -2.7742    3.3236   -4.0310 H         1 <0>         0.4731
@<TRIPOS>BOND
     1    1    2 1
     2    1   17 1
     3    1   18 1
     4    1   19 1
     5    2    3 ar
     6    2   33 ar
     7    3    4 ar
     8    3   20 1
     9    4    5 ar
    10    4    7 1
    11    5    6 ar
    12    5   21 1
    13    6   22 1
    14    6   33 ar
    15    7   16 1
    16    7    8 1
    17    8    9 1
    18    8   23 1
    19    8   24 1
    20    9   10 1
    21    9   25 1
    22    9   26 1
    23   10   15 ar
    24   10   11 ar
    25   11   12 ar
    26   11   27 1
    27   12   13 ar
    28   12   28 1
    29   13   14 ar
    30   13   29 1
    31   14   15 ar
    32   14   30 1
    33   15   16 1
    34   16   31 1
    35   16   32 1
    36   33   34 1
@<TRIPOS>MOLECULE
ZINC00014669
   52    54     0     0     0
SMALL
USER_CHARGES

@<TRIPOS>ATOM
      1 C1         -0.0187    1.5258    0.0104 C.3       1 <0>        -0.1955
      2 C2          0.0021   -0.0041    0.0020 C.3       1 <0>        -0.0083
      3 H1         -1.0205   -0.3814    0.0098 H         1 <0>         0.1468
      4 C3          0.7182   -0.4975   -1.2568 C.3       1 <0>         0.1400
      5 H2          0.8116   -1.5829   -1.2198 H         1 <0>         0.1310
      6 C4         -0.0771   -0.1029   -2.4745 C.ar      1 <0>        -0.1512
      7 C5          0.0941    1.1497   -3.0345 C.ar      1 <0>        -0.0890
      8 C6         -0.6341    1.5140   -4.1505 C.ar      1 <0>        -0.1398
      9 C7         -1.5374    0.6217   -4.7096 C.ar      1 <0>         0.1316
     10 C8         -1.7070   -0.6346   -4.1460 C.ar      1 <0>        -0.1402
     11 C9         -0.9726   -0.9960   -3.0331 C.ar      1 <0>        -0.0838
     12 O1         -2.2553    0.9780   -5.8071 O.3       1 <0>        -0.4970
     13 O2          2.0188    0.0904   -1.3262 O.3       1 <0>        -0.5453
     14 N1          0.7126   -0.4907    1.1921 N.4       1 <0>        -0.3761
     15 C10         0.7394   -1.9582    1.1781 C.3       1 <0>        -0.0130
     16 C11         1.5480   -2.4687    2.3727 C.3       1 <0>        -0.1408
     17 C12         0.8958   -1.9809    3.6696 C.3       1 <0>        -0.0939
     18 C13         0.8055   -0.4524    3.6405 C.3       1 <0>        -0.1446
     19 C14         0.0245   -0.0166    2.3989 C.3       1 <0>        -0.0111
     20 C15         1.7430   -2.4207    4.8653 C.3       1 <0>        -0.0745
     21 C16         1.0387   -2.0476    6.1443 C.ar      1 <0>        -0.0945
     22 C17         1.2668   -0.8138    6.7244 C.ar      1 <0>        -0.1215
     23 C18         0.6208   -0.4716    7.8976 C.ar      1 <0>        -0.1162
     24 C19        -0.2537   -1.3631    8.4905 C.ar      1 <0>        -0.1164
     25 C20        -0.4825   -2.5965    7.9099 C.ar      1 <0>        -0.1138
     26 C21         0.1602   -2.9370    6.7344 C.ar      1 <0>        -0.1161
     27 H3          1.0039    1.9031    0.0027 H         1 <0>         0.0830
     28 H4         -0.5459    1.8868   -0.8726 H         1 <0>         0.1122
     29 H5         -0.5289    1.8773    0.9072 H         1 <0>         0.0916
     30 H6          0.7975    1.8439   -2.5989 H         1 <0>         0.1273
     31 H7         -0.5005    2.4927   -4.5871 H         1 <0>         0.1383
     32 H8         -2.4096   -1.3309   -4.5794 H         1 <0>         0.1385
     33 H9         -1.1011   -1.9755   -2.5967 H         1 <0>         0.1312
     34 H10        -1.8251    0.7616   -6.6457 H         1 <0>         0.4023
     35 H11         2.0123    1.0567   -1.3619 H         1 <0>         0.3863
     36 H12        -0.2795   -2.3404    1.2397 H         1 <0>         0.1288
     37 H13         1.2010   -2.3039    0.2532 H         1 <0>         0.1321
     38 H14         1.5652   -3.5585    2.3616 H         1 <0>         0.1138
     39 H15         2.5673   -2.0873    2.3121 H         1 <0>         0.0906
     40 H16        -0.1053   -2.4035    3.7555 H         1 <0>         0.0907
     41 H17         0.2921   -0.1010    4.5354 H         1 <0>         0.1157
     42 H18         1.8094   -0.0291    3.6061 H         1 <0>         0.0886
     43 H19        -0.0418    1.0711    2.3751 H         1 <0>         0.1320
     44 H20        -0.9792   -0.4402    2.4344 H         1 <0>         0.1280
     45 H21         1.8865   -3.5007    4.8312 H         1 <0>         0.0833
     46 H22         2.7124   -1.9239    4.8261 H         1 <0>         0.0787
     47 H23         1.9500   -0.1173    6.2612 H         1 <0>         0.1195
     48 H24         0.7995    0.4921    8.3512 H         1 <0>         0.1244
     49 H25        -0.7579   -1.0960    9.4075 H         1 <0>         0.1252
     50 H26        -1.1655   -3.2931    8.3733 H         1 <0>         0.1252
     51 H27        -0.0214   -3.8992    6.2788 H         1 <0>         0.1215
     52 H28         1.6582   -0.1389    1.1853 H         1 <0>         0.4240
@<TRIPOS>BOND
     1    1    2 1
     2    1   27 1
     3    1   28 1
     4    1   29 1
     5    2    3 1
     6    2    4 1
     7    2   14 1
     8    4    5 1
     9    4    6 1
    10    4   13 1
    11    6   11 ar
    12    6    7 ar
    13    7    8 ar
    14    7   30 1
    15    8    9 ar
    16    8   31 1
    17    9   10 ar
    18    9   12 1
    19   10   11 ar
    20   10   32 1
    21   11   33 1
    22   12   34 1
    23   13   35 1
    24   14   19 1
    25   14   15 1
    26   14   52 1
    27   15   16 1
    28   15   36 1
    29   15   37 1
    30   16   17 1
    31   16   38 1
    32   16   39 1
    33   17   18 1
    34   17   20 1
    35   17   40 1
    36   18   19 1
    37   18   41 1
    38   18   42 1
    39   19   43 1
    40   19   44 1
    41   20   21 1
    42   20   45 1
    43   20   46 1
    44   21   26 ar
    45   21   22 ar
    46   22   23 ar
    47   22   47 1
    48   23   24 ar
    49   23   48 1
    50   24   25 ar
    51   24   49 1
    52   25   26 ar
    53   25   50 1
    54   26   51 1
@<TRIPOS>MOLECULE
ZINC00000596
   49    51     0     0     0
SMALL
USER_CHARGES
dimethyl-(3-methylbut-2-enyl)BLAHol
@<TRIPOS>ATOM
      1 C1          1.1810    0.6734   -0.4602 C.3       1 <0>        -0.1552
      2 C2         -0.3103    0.3734   -0.2964 C.3       1 <0>        -0.0889
      3 H1         -0.4566   -0.6974   -0.1546 H         1 <0>         0.1007
      4 C3         -0.8596    1.1333    0.9106 C.3       1 <0>         0.0339
      5 H2         -0.3716    0.7400    1.8024 H         1 <0>         0.1315
      6 C4         -0.4886    2.6026    0.8088 C.3       1 <0>        -0.0890
      7 C5         -0.7124    3.1461   -0.5773 C.ar      1 <0>        -0.1105
      8 C6         -0.6417    4.5245   -0.7476 C.ar      1 <0>        -0.0947
      9 C7         -0.8037    5.0868   -1.9953 C.ar      1 <0>        -0.1368
     10 C8         -1.0399    4.2730   -3.0941 C.ar      1 <0>         0.1240
     11 C9         -1.1181    2.9007   -2.9238 C.ar      1 <0>        -0.1397
     12 C10        -0.9596    2.3404   -1.6653 C.ar      1 <0>        -0.0583
     13 C11        -1.0712    0.8387   -1.5424 C.3       1 <0>        -0.0213
     14 C12        -2.5604    0.5047   -1.3358 C.3       1 <0>        -0.1334
     15 C13        -3.0578    1.3124   -0.1317 C.3       1 <0>        -0.0053
     16 C14        -2.8018    1.6243    2.2533 C.3       1 <0>         0.0259
     17 C15        -4.2991    1.4695    2.3258 C.2       1 <0>        -0.2563
     18 C16        -5.0630    2.5289    2.4263 C.2       1 <0>        -0.0381
     19 C17        -4.4429    3.8911    2.6019 C.3       1 <0>        -0.1488
     20 C18        -6.5620    2.3854    2.3663 C.3       1 <0>        -0.1379
     21 C19        -0.5306    0.1432   -2.7933 C.3       1 <0>        -0.1469
     22 O1         -1.1938    4.8189   -4.3291 O.3       1 <0>        -0.4948
     23 H3          1.7168    0.3508    0.4325 H         1 <0>         0.0686
     24 H4          1.5661    0.1382   -1.3282 H         1 <0>         0.0801
     25 H5          1.3227    1.7449   -0.6017 H         1 <0>         0.0720
     26 H6         -1.0945    3.1709    1.5146 H         1 <0>         0.0928
     27 H7          0.5628    2.7216    1.0708 H         1 <0>         0.1221
     28 H8         -0.4582    5.1602    0.1059 H         1 <0>         0.1313
     29 H9         -0.7465    6.1583   -2.1177 H         1 <0>         0.1363
     30 H10        -1.3033    2.2635   -3.7759 H         1 <0>         0.1374
     31 H11        -2.6758   -0.5611   -1.1388 H         1 <0>         0.0935
     32 H12        -3.1280    0.7795   -2.2249 H         1 <0>         0.1121
     33 H13        -4.1155    1.1061    0.0322 H         1 <0>         0.1284
     34 H14        -2.9211    2.3761   -0.3263 H         1 <0>         0.1309
     35 H15        -2.3482    1.1918    3.1451 H         1 <0>         0.1302
     36 H16        -2.5484    2.6828    2.1938 H         1 <0>         0.1348
     37 H17        -4.7423    0.4851    2.2948 H         1 <0>         0.1345
     38 H18        -4.1823    4.3003    1.6258 H         1 <0>         0.0808
     39 H19        -5.1543    4.5533    3.0953 H         1 <0>         0.0842
     40 H20        -3.5435    3.8050    3.2116 H         1 <0>         0.0726
     41 H21        -6.8215    1.3347    2.2372 H         1 <0>         0.0712
     42 H22        -6.9998    2.7566    3.2929 H         1 <0>         0.0829
     43 H23        -6.9487    2.9612    1.5255 H         1 <0>         0.0838
     44 H24        -0.6488   -0.9354   -2.6891 H         1 <0>         0.0700
     45 H25        -1.0835    0.4866   -3.6676 H         1 <0>         0.0708
     46 H26         0.5259    0.3828   -2.9143 H         1 <0>         0.0738
     47 H27        -2.1084    5.0436   -4.5486 H         1 <0>         0.3984
     48 N1         -2.3079    0.8926    1.0783 N.4       1 <0>        -0.3801
     49 H28        -2.4589   -0.1122    1.2258 H         1 <0>         0.4267
@<TRIPOS>BOND
     1    1    2 1
     2    1   23 1
     3    1   24 1
     4    1   25 1
     5    2    3 1
     6    2   13 1
     7    2    4 1
     8    4    5 1
     9    4    6 1
    10    4   48 1
    11    6    7 1
    12    6   26 1
    13    6   27 1
    14    7   12 ar
    15    7    8 ar
    16    8    9 ar
    17    8   28 1
    18    9   10 ar
    19    9   29 1
    20   10   11 ar
    21   10   22 1
    22   11   12 ar
    23   11   30 1
    24   12   13 1
    25   13   14 1
    26   13   21 1
    27   14   15 1
    28   14   31 1
    29   14   32 1
    30   15   33 1
    31   15   34 1
    32   15   48 1
    33   16   17 1
    34   16   35 1
    35   16   36 1
    36   16   48 1
    37   17   18 2
    38   17   37 1
    39   18   19 1
    40   18   20 1
    41   19   38 1
    42   19   39 1
    43   19   40 1
    44   20   41 1
    45   20   42 1
    46   20   43 1
    47   21   44 1
    48   21   45 1
    49   21   46 1
    50   22   47 1
    51   48   49 1
@<TRIPOS>MOLECULE
ZINC03830613
   46    49     0     0     0
SMALL
USER_CHARGES

@<TRIPOS>ATOM
      1 C1         -0.3045    1.4999   -0.1559 C.3       1 <0>        -0.1545
      2 C2         -0.1403   -0.0193   -0.0800 C.3       1 <0>        -0.0889
      3 H1         -1.1203   -0.4924   -0.0160 H         1 <0>         0.1013
      4 C3          0.5943   -0.5212   -1.3221 C.3       1 <0>         0.0286
      5 H2         -0.0471   -0.3336   -2.1832 H         1 <0>         0.1368
      6 C4          1.8757    0.2680   -1.5223 C.3       1 <0>        -0.0946
      7 C5          2.6291    0.4612   -0.2339 C.ar      1 <0>        -0.1122
      8 C6          3.9306    0.9446   -0.3149 C.ar      1 <0>        -0.0943
      9 C7          4.6722    1.1594    0.8266 C.ar      1 <0>        -0.1367
     10 C8          4.1174    0.8937    2.0704 C.ar      1 <0>         0.1249
     11 C9          2.8234    0.4066    2.1516 C.ar      1 <0>        -0.1399
     12 C10         2.0851    0.1837    0.9993 C.ar      1 <0>        -0.0588
     13 C11         0.6938   -0.3887    1.1516 C.3       1 <0>        -0.0221
     14 C12         0.8320   -1.9218    1.1810 C.3       1 <0>        -0.1320
     15 C13         1.5913   -2.3444   -0.0815 C.3       1 <0>        -0.0206
     16 N1          0.8425   -1.9546   -1.2597 N.4       1 <0>        -0.3638
     17 C14         1.5793   -2.3654   -2.4623 C.3       1 <0>         0.0196
     18 C15         1.7041   -3.8901   -2.4880 C.3       1 <0>        -0.2098
     19 C16         3.1111   -4.4853   -2.4046 C.3       1 <0>        -0.1679
     20 C17         2.3402   -4.5260   -3.7256 C.3       1 <0>        -0.1485
     21 C18         0.0309    0.1321    2.4285 C.3       1 <0>        -0.1463
     22 O1          4.8391    1.1098    3.2015 O.3       1 <0>        -0.4966
     23 H3          0.6775    1.9687   -0.2197 H         1 <0>         0.0719
     24 H4         -0.8887    1.7587   -1.0389 H         1 <0>         0.0687
     25 H5         -0.8191    1.8548    0.7371 H         1 <0>         0.0800
     26 H6          2.5128   -0.2644   -2.2285 H         1 <0>         0.0953
     27 H7          1.6285    1.2449   -1.9378 H         1 <0>         0.1211
     28 H8          4.3644    1.1534   -1.2817 H         1 <0>         0.1314
     29 H9          5.6828    1.5332    0.7533 H         1 <0>         0.1366
     30 H10         2.3872    0.1992    3.1176 H         1 <0>         0.1377
     31 H11         1.3897   -2.2257    2.0668 H         1 <0>         0.1134
     32 H12        -0.1561   -2.3819    1.1895 H         1 <0>         0.0943
     33 H13         2.5640   -1.8529   -0.1017 H         1 <0>         0.1304
     34 H14         1.7315   -3.4254   -0.0760 H         1 <0>         0.1339
     35 H15         1.0426   -2.0297   -3.3496 H         1 <0>         0.1343
     36 H16         2.5740   -1.9196   -2.4489 H         1 <0>         0.1310
     37 H17         0.8965   -4.4361   -2.0003 H         1 <0>         0.1248
     38 H18         3.9479   -3.7907   -2.3314 H         1 <0>         0.1051
     39 H19         3.2294   -5.4231   -1.8618 H         1 <0>         0.1100
     40 H20         1.9515   -5.4907   -4.0519 H         1 <0>         0.1124
     41 H21         2.6699   -3.8582   -4.5215 H         1 <0>         0.1073
     42 H22        -0.9608   -0.3092    2.5289 H         1 <0>         0.0701
     43 H23         0.6390   -0.1408    3.2909 H         1 <0>         0.0713
     44 H24        -0.0579    1.2171    2.3752 H         1 <0>         0.0737
     45 H25         4.7394    1.9991    3.5678 H         1 <0>         0.4007
     46 H26        -0.0415   -2.4404   -1.2356 H         1 <0>         0.4206
@<TRIPOS>BOND
     1    1    2 1
     2    1   23 1
     3    1   24 1
     4    1   25 1
     5    2    3 1
     6    2   13 1
     7    2    4 1
     8    4    5 1
     9    4   16 1
    10    4    6 1
    11    6    7 1
    12    6   26 1
    13    6   27 1
    14    7   12 ar
    15    7    8 ar
    16    8    9 ar
    17    8   28 1
    18    9   10 ar
    19    9   29 1
    20   10   11 ar
    21   10   22 1
    22   11   12 ar
    23   11   30 1
    24   12   13 1
    25   13   14 1
    26   13   21 1
    27   14   15 1
    28   14   31 1
    29   14   32 1
    30   15   16 1
    31   15   33 1
    32   15   34 1
    33   16   17 1
    34   16   46 1
    35   17   18 1
    36   17   35 1
    37   17   36 1
    38   18   20 1
    39   18   19 1
    40   18   37 1
    41   19   20 1
    42   19   38 1
    43   19   39 1
    44   20   40 1
    45   20   41 1
    46   21   42 1
    47   21   43 1
    48   21   44 1
    49   22   45 1
@<TRIPOS>MOLECULE
ZINC02015833
   49    51     0     0     0
SMALL
USER_CHARGES
dimethyl-(3-methylbut-2-enyl)BLAHol
@<TRIPOS>ATOM
      1 C1          0.7871    0.1681   -2.3664 C.3       1 <0>        -0.1543
      2 C2          1.0290   -0.5044   -1.0136 C.3       1 <0>        -0.0895
      3 H1          0.9448   -1.5859   -1.1195 H         1 <0>         0.1004
      4 C3          0.0021   -0.0041    0.0020 C.3       1 <0>         0.0336
      5 H2         -0.9756   -0.3489   -0.3348 H         1 <0>         0.1315
      6 C4         -0.0185    1.5145    0.0104 C.3       1 <0>        -0.0878
      7 C5          1.3688    2.0979    0.0003 C.ar      1 <0>        -0.1107
      8 C6          1.4961    3.4605    0.2480 C.ar      1 <0>        -0.0947
      9 C7          2.7354    4.0629    0.2406 C.ar      1 <0>        -0.1368
     10 C8          3.8693    3.3057   -0.0171 C.ar      1 <0>         0.1241
     11 C9          3.7439    1.9476   -0.2579 C.ar      1 <0>        -0.1402
     12 C10         2.4949    1.3454   -0.2437 C.ar      1 <0>        -0.0591
     13 C11         2.4261   -0.1424   -0.4986 C.3       1 <0>        -0.0216
     14 C12         2.6280   -0.8493    0.8536 C.3       1 <0>        -0.1333
     15 C13         1.5895   -0.2893    1.8323 C.3       1 <0>        -0.0057
     16 C14        -0.7814   -0.1176    2.2799 C.3       1 <0>         0.0302
     17 C15        -0.6498   -0.9004    3.5609 C.2       1 <0>        -0.2601
     18 C16        -0.5056   -0.2716    4.7010 C.2       1 <0>        -0.0349
     19 C17        -0.4712    1.2347    4.7315 C.3       1 <0>        -0.1490
     20 C18        -0.3740   -1.0544    5.9819 C.3       1 <0>        -0.1387
     21 C19         3.5063   -0.5678   -1.4950 C.3       1 <0>        -0.1465
     22 O1          5.0948    3.8930   -0.0336 O.3       1 <0>        -0.4968
     23 H3          0.8836    1.2483   -2.2576 H         1 <0>         0.0720
     24 H4          1.5214   -0.1915   -3.0873 H         1 <0>         0.0794
     25 H5         -0.2159   -0.0736   -2.7181 H         1 <0>         0.0685
     26 H6         -0.5573    1.8664   -0.8694 H         1 <0>         0.1214
     27 H7         -0.5404    1.8569    0.9040 H         1 <0>         0.0930
     28 H8          0.6150    4.0523    0.4477 H         1 <0>         0.1314
     29 H9          2.8240    5.1215    0.4351 H         1 <0>         0.1363
     30 H10         4.6239    1.3543   -0.4581 H         1 <0>         0.1374
     31 H11         3.6325   -0.6513    1.2276 H         1 <0>         0.1128
     32 H12         2.4822   -1.9229    0.7346 H         1 <0>         0.0938
     33 H13         1.7273    0.7874    1.9314 H         1 <0>         0.1312
     34 H14         1.7154   -0.7629    2.8059 H         1 <0>         0.1266
     35 H15        -0.6455    0.9439    2.4872 H         1 <0>         0.1326
     36 H16        -1.7715   -0.2808    1.8543 H         1 <0>         0.1321
     37 H17        -0.6745   -1.9799    3.5390 H         1 <0>         0.1342
     38 H18        -1.4054    1.6277    4.3304 H         1 <0>         0.0808
     39 H19        -0.3457    1.5745    5.7596 H         1 <0>         0.0815
     40 H20         0.3625    1.5915    4.1267 H         1 <0>         0.0749
     41 H21         0.6784   -1.2641    6.1732 H         1 <0>         0.0847
     42 H22        -0.7844   -0.4724    6.8072 H         1 <0>         0.0790
     43 H23        -0.9210   -1.9929    5.8920 H         1 <0>         0.0755
     44 H24         3.4546   -1.6456   -1.6488 H         1 <0>         0.0698
     45 H25         3.3461   -0.0572   -2.4446 H         1 <0>         0.0731
     46 H26         4.4879   -0.3036   -1.1015 H         1 <0>         0.0712
     47 H27         5.3605    4.2244   -0.9024 H         1 <0>         0.4006
     48 N1          0.2298   -0.6075    1.3328 N.4       1 <0>        -0.3809
     49 H28         0.1410   -1.6271    1.2509 H         1 <0>         0.4267
@<TRIPOS>BOND
     1    1    2 1
     2    1   23 1
     3    1   24 1
     4    1   25 1
     5    2    3 1
     6    2   13 1
     7    2    4 1
     8    4    5 1
     9    4    6 1
    10    4   48 1
    11    6    7 1
    12    6   26 1
    13    6   27 1
    14    7   12 ar
    15    7    8 ar
    16    8    9 ar
    17    8   28 1
    18    9   10 ar
    19    9   29 1
    20   10   11 ar
    21   10   22 1
    22   11   12 ar
    23   11   30 1
    24   12   13 1
    25   13   14 1
    26   13   21 1
    27   14   15 1
    28   14   31 1
    29   14   32 1
    30   15   33 1
    31   15   34 1
    32   15   48 1
    33   16   17 1
    34   16   35 1
    35   16   36 1
    36   16   48 1
    37   17   18 2
    38   17   37 1
    39   18   19 1
    40   18   20 1
    41   19   38 1
    42   19   39 1
    43   19   40 1
    44   20   41 1
    45   20   42 1
    46   20   43 1
    47   21   44 1
    48   21   45 1
    49   21   46 1
    50   22   47 1
    51   48   49 1
@<TRIPOS>MOLECULE
ZINC07996680
   43    45     0     0     0
SMALL
USER_CHARGES

@<TRIPOS>ATOM
      1 C1         -0.0103    1.5223    0.1872 C.3       1 <0>        -0.1551
      2 C2          0.0058   -0.0045    0.0900 C.3       1 <0>        -0.0890
      3 H1          0.4977   -0.3090   -0.8338 H         1 <0>         0.1014
      4 C3         -1.4258   -0.5377    0.1119 C.3       1 <0>         0.0284
      5 H2         -1.9224   -0.1869   -0.7928 H         1 <0>         0.1372
      6 C4         -2.1759    0.0364    1.3005 C.3       1 <0>        -0.0946
      7 C5         -1.3488    0.0124    2.5576 C.ar      1 <0>        -0.1124
      8 C6         -1.9966    0.2742    3.7601 C.ar      1 <0>        -0.0946
      9 C7         -1.2967    0.2838    4.9471 C.ar      1 <0>        -0.1368
     10 C8          0.0678    0.0318    4.9460 C.ar      1 <0>         0.1247
     11 C9          0.7124   -0.2355    3.7496 C.ar      1 <0>        -0.1398
     12 C10         0.0016   -0.2523    2.5593 C.ar      1 <0>        -0.0592
     13 C11         0.7539   -0.5914    1.2921 C.3       1 <0>        -0.0222
     14 C12         0.7397   -2.1243    1.1496 C.3       1 <0>        -0.1312
     15 C13        -0.7221   -2.5823    1.1989 C.3       1 <0>        -0.0200
     16 N1         -1.4596   -1.9932    0.0988 N.4       1 <0>        -0.3644
     17 C14        -2.8578   -2.4399    0.1563 C.3       1 <0>         0.0215
     18 C15        -2.9149   -3.9357   -0.0177 C.2       1 <0>        -0.2330
     19 C16        -3.5151   -4.6771    0.8802 C.2       1 <0>        -0.1062
     20 C17         2.1852   -0.0541    1.3520 C.3       1 <0>        -0.1465
     21 O1          0.7672    0.0476    6.1111 O.3       1 <0>        -0.4947
     22 H3          1.0130    1.8976    0.1823 H         1 <0>         0.0802
     23 H4         -0.5526    1.9348   -0.6636 H         1 <0>         0.0689
     24 H5         -0.5029    1.8224    1.1121 H         1 <0>         0.0721
     25 H6         -2.4542    1.0668    1.0794 H         1 <0>         0.1214
     26 H7         -3.0826   -0.5467    1.4621 H         1 <0>         0.0954
     27 H8         -3.0583    0.4722    3.7636 H         1 <0>         0.1316
     28 H9         -1.8089    0.4873    5.8759 H         1 <0>         0.1367
     29 H10         1.7745   -0.4311    3.7438 H         1 <0>         0.1379
     30 H11         1.1850   -2.4111    0.1969 H         1 <0>         0.0946
     31 H12         1.2967   -2.5770    1.9700 H         1 <0>         0.1126
     32 H13        -0.7645   -3.6693    1.1296 H         1 <0>         0.1326
     33 H14        -1.1716   -2.2611    2.1385 H         1 <0>         0.1292
     34 H15        -3.2862   -2.1697    1.1214 H         1 <0>         0.1311
     35 H16        -3.4257   -1.9595   -0.6406 H         1 <0>         0.1375
     36 H17        -2.4610   -4.3965   -0.8825 H         1 <0>         0.1350
     37 H18        -3.9691   -4.2163    1.7451 H         1 <0>         0.1104
     38 H19        -3.5560   -5.7491    0.7556 H         1 <0>         0.1236
     39 H20         2.1621    1.0315    1.4468 H         1 <0>         0.0743
     40 H21         2.6987   -0.4831    2.2124 H         1 <0>         0.0712
     41 H22         2.7145   -0.3279    0.4393 H         1 <0>         0.0701
     42 H23         0.8105   -0.8101    6.5556 H         1 <0>         0.3987
     43 H24        -1.0454   -2.3239   -0.7598 H         1 <0>         0.4213
@<TRIPOS>BOND
     1    1    2 1
     2    1   22 1
     3    1   23 1
     4    1   24 1
     5    2    3 1
     6    2   13 1
     7    2    4 1
     8    4    5 1
     9    4   16 1
    10    4    6 1
    11    6    7 1
    12    6   25 1
    13    6   26 1
    14    7   12 ar
    15    7    8 ar
    16    8    9 ar
    17    8   27 1
    18    9   10 ar
    19    9   28 1
    20   10   11 ar
    21   10   21 1
    22   11   12 ar
    23   11   29 1
    24   12   13 1
    25   13   14 1
    26   13   20 1
    27   14   15 1
    28   14   30 1
    29   14   31 1
    30   15   16 1
    31   15   32 1
    32   15   33 1
    33   16   17 1
    34   16   43 1
    35   17   18 1
    36   17   34 1
    37   17   35 1
    38   18   19 2
    39   18   36 1
    40   19   37 1
    41   19   38 1
    42   20   39 1
    43   20   40 1
    44   20   41 1
    45   21   42 1
@<TRIPOS>MOLECULE
ZINC01687741
   39    41     0     0     0
SMALL
USER_CHARGES
trimethylBLAHol
@<TRIPOS>ATOM
      1 C1          3.1952   -2.0055   -2.0328 C.3       1 <0>        -0.1555
      2 C2          3.5913   -2.0969   -0.5578 C.3       1 <0>        -0.0902
      3 H1          4.5361   -2.6321   -0.4627 H         1 <0>         0.1006
      4 C3          2.5021   -2.8305    0.2241 C.3       1 <0>         0.0345
      5 H2          2.4710   -3.8599   -0.1329 H         1 <0>         0.1314
      6 C4          1.1495   -2.1993   -0.0572 C.3       1 <0>        -0.0887
      7 C5          1.2083   -0.6961   -0.0124 C.ar      1 <0>        -0.1127
      8 C6          0.0021   -0.0041    0.0020 C.ar      1 <0>        -0.0941
      9 C7         -0.0166    1.3739    0.0096 C.ar      1 <0>        -0.1367
     10 C8          1.1776    2.0805    0.0020 C.ar      1 <0>         0.1246
     11 C9          2.3792    1.3919   -0.0054 C.ar      1 <0>        -0.1402
     12 C10         2.3923    0.0053   -0.0044 C.ar      1 <0>        -0.0603
     13 C11         3.7343   -0.6879    0.0273 C.3       1 <0>        -0.0217
     14 C12         4.1438   -0.8298    1.5040 C.3       1 <0>        -0.1336
     15 C13         3.0063   -1.5493    2.2374 C.3       1 <0>        -0.0083
     16 C14         1.7814   -3.6302    2.3823 C.3       1 <0>        -0.0491
     17 C15         4.7732    0.1164   -0.7566 C.3       1 <0>        -0.1471
     18 O1          1.1681    3.4395    0.0022 O.3       1 <0>        -0.4948
     19 H3          3.9640   -1.4624   -2.5825 H         1 <0>         0.0803
     20 H4          3.0946   -3.0095   -2.4449 H         1 <0>         0.0688
     21 H5          2.2448   -1.4793   -2.1218 H         1 <0>         0.0721
     22 H6          0.4339   -2.5483    0.6873 H         1 <0>         0.0954
     23 H7          0.8113   -2.5115   -1.0452 H         1 <0>         0.1220
     24 H8         -0.9288   -0.5517    0.0077 H         1 <0>         0.1319
     25 H9         -0.9584    1.9024    0.0169 H         1 <0>         0.1369
     26 H10         3.3110    1.9378   -0.0116 H         1 <0>         0.1377
     27 H11         5.0600   -1.4155    1.5786 H         1 <0>         0.0946
     28 H12         4.2988    0.1568    1.9407 H         1 <0>         0.1134
     29 H13         2.0887   -0.9688    2.1430 H         1 <0>         0.1336
     30 H14         3.2629   -1.6542    3.2916 H         1 <0>         0.1271
     31 H15         1.7370   -4.6503    2.0008 H         1 <0>         0.1232
     32 H16         2.0337   -3.6494    3.4425 H         1 <0>         0.1234
     33 H17         0.8124   -3.1496    2.2481 H         1 <0>         0.1250
     34 H18         4.8763    1.1067   -0.3130 H         1 <0>         0.0710
     35 H19         5.7331   -0.3989   -0.7222 H         1 <0>         0.0699
     36 H20         4.4504    0.2144   -1.7931 H         1 <0>         0.0742
     37 H21         1.1710    3.8327    0.8856 H         1 <0>         0.3989
     38 N1          2.8383   -2.9058    1.6622 N.4       1 <0>        -0.3871
     39 H22         3.7219   -3.4182    1.7669 H         1 <0>         0.4299
@<TRIPOS>BOND
     1    1    2 1
     2    1   19 1
     3    1   20 1
     4    1   21 1
     5    2    3 1
     6    2   13 1
     7    2    4 1
     8    4    5 1
     9    4    6 1
    10    4   38 1
    11    6    7 1
    12    6   22 1
    13    6   23 1
    14    7   12 ar
    15    7    8 ar
    16    8    9 ar
    17    8   24 1
    18    9   10 ar
    19    9   25 1
    20   10   11 ar
    21   10   18 1
    22   11   12 ar
    23   11   26 1
    24   12   13 1
    25   13   14 1
    26   13   17 1
    27   14   15 1
    28   14   27 1
    29   14   28 1
    30   15   29 1
    31   15   30 1
    32   15   38 1
    33   16   31 1
    34   16   32 1
    35   16   33 1
    36   16   38 1
    37   17   34 1
    38   17   35 1
    39   17   36 1
    40   18   37 1
    41   38   39 1
