@<TRIPOS>MOLECULE
ZINC26823248
   22    23     0     0     0
SMALL
USER_CHARGES

@<TRIPOS>ATOM
      1 C1         -0.0167    1.3791    0.0096 C.ar      1 <0>        -0.0619
      2 C2          1.1738    2.0800    0.0020 C.ar      1 <0>        -0.0866
      3 C3          2.3803    1.4026   -0.0162 C.ar      1 <0>        -0.0168
      4 C4          2.4046    0.0232   -0.0306 C.ar      1 <0>        -0.0303
      5 C5          1.2074   -0.6787   -0.0171 C.ar      1 <0>        -0.0881
      6 C6          0.0021   -0.0041    0.0020 C.ar      1 <0>        -0.0299
      7 Cl1        -1.4894   -0.8923    0.0171 Cl        1 <0>        -0.0337
      8 N1          3.5946   -0.6953   -0.0702 N.4       1 <0>        -0.3848
      9 C7          4.6934    0.0006    0.3908 C.2       1 <0>         0.3381
     10 O1          5.7533   -0.7230    0.8307 O.3       1 <0>        -0.5661
     11 C8          4.7917    1.3007    0.4360 C.2       1 <0>        -0.2745
     12 C9          3.6656    2.1894   -0.0148 C.3       1 <0>        -0.0196
     13 N2          6.0397    1.9148    0.9428 N.pl3     1 <0>         0.0830
     14 O2          6.9534    1.2129    1.3091 O.2       1 <0>        -0.1529
     15 O3          6.1452    3.1182    0.9905 O.3       1 <0>        -0.2315
     16 H1         -0.9578    1.9087    0.0259 H         1 <0>         0.1563
     17 H2          1.1628    3.1599    0.0099 H         1 <0>         0.1603
     18 H3          1.2182   -1.7586   -0.0220 H         1 <0>         0.1572
     19 H4          3.4849   -1.5280    0.4888 H         1 <0>         0.4351
     20 H5          3.8705    2.5535   -1.0216 H         1 <0>         0.1041
     21 H6          3.5740    3.0350    0.6668 H         1 <0>         0.1116
     22 H7          3.7689   -0.9742   -1.0241 H         1 <0>         0.4310
@<TRIPOS>BOND
     1    1    6 ar
     2    1    2 ar
     3    1   16 1
     4    2    3 ar
     5    2   17 1
     6    3   12 1
     7    3    4 ar
     8    4    5 ar
     9    4    8 1
    10    5    6 ar
    11    5   18 1
    12    6    7 1
    13    8    9 1
    14    8   19 1
    15    8   22 1
    16    9   10 1
    17    9   11 2
    18   11   12 1
    19   11   13 1
    20   12   20 1
    21   12   21 1
    22   13   14 2
    23   13   15 1
@<TRIPOS>MOLECULE
ZINC18118278
   22    23     0     0     0
SMALL
USER_CHARGES

@<TRIPOS>ATOM
      1 C1          0.0496    1.1063    0.6344 C.ar      1 <0>        -0.0815
      2 C2          0.8293    1.9861   -0.1610 C.ar      1 <0>         0.4075
      3 N1          0.4596    3.2355   -0.3488 N.am      1 <0>        -0.4279
      4 C3          1.2172    4.0533   -1.1085 C.2       1 <0>         0.4679
      5 O1          0.8827    5.2069   -1.2858 O.2       1 <0>        -0.1860
      6 C4          2.4726    3.5290   -1.7307 C.2       1 <0>         0.4680
      7 O2          3.1640    4.2540   -2.4164 O.2       1 <0>        -0.1859
      8 N2          2.8311    2.2450   -1.5240 N.am      1 <0>        -0.4280
      9 C5          2.0762    1.4654   -0.7789 C.ar      1 <0>         0.4074
     10 C6          2.4324    0.1113   -0.5464 C.ar      1 <0>        -0.0816
     11 C7          1.6375   -0.6655    0.2237 C.ar      1 <0>         0.1372
     12 C8          0.4549   -0.1716    0.8097 C.ar      1 <0>         0.1371
     13 N3         -0.3677   -1.0785    1.6416 N.pl3     1 <0>        -0.0219
     14 O3         -1.5741   -1.0221    1.5858 O.2       1 <0>        -0.0173
     15 O4          0.1668   -1.8755    2.3769 O.3       1 <0>        -0.0340
     16 N4          2.0208   -2.0759    0.4581 N.pl3     1 <0>        -0.0219
     17 O5          3.1825   -2.3672    0.6234 O.2       1 <0>        -0.0173
     18 O6          1.1722   -2.9366    0.4842 O.3       1 <0>        -0.0339
     19 H1         -0.8595    1.4568    1.1003 H         1 <0>         0.2615
     20 H2          3.3326   -0.2963   -0.9822 H         1 <0>         0.2615
     21 H3         -0.3561    3.5673    0.0580 H         1 <0>         0.4946
     22 H4          3.6434    1.8969   -1.9239 H         1 <0>         0.4946
@<TRIPOS>BOND
     1    1   12 ar
     2    1    2 ar
     3    1   19 1
     4    2    9 ar
     5    2    3 2
     6    3    4 am
     7    3   21 1
     8    4    5 2
     9    4    6 1
    10    6    7 2
    11    6    8 am
    12    8    9 2
    13    8   22 1
    14    9   10 ar
    15   10   11 ar
    16   10   20 1
    17   11   12 ar
    18   11   16 1
    19   12   13 1
    20   13   14 2
    21   13   15 1
    22   16   17 2
    23   16   18 1
@<TRIPOS>MOLECULE
ZINC18118278
   21    22     0     0     0
SMALL
USER_CHARGES

@<TRIPOS>ATOM
      1 C1          0.0417    1.2522    0.5309 C.ar      1 <0>        -0.0473
      2 C2          0.8780    2.0146   -0.2789 C.ar      1 <0>         0.0748
      3 C3          2.0479    1.4409   -0.8068 C.ar      1 <0>         0.2260
      4 C4          2.3544    0.1053   -0.5080 C.ar      1 <0>        -0.0622
      5 C5          1.5202   -0.6244    0.2883 C.ar      1 <0>         0.0219
      6 C6          0.3650   -0.0580    0.8097 C.ar      1 <0>        -0.0602
      7 N1         -0.5259   -0.8673    1.6712 N.pl3     1 <0>         0.0426
      8 O1         -1.7257   -0.7484    1.5809 O.2       1 <0>        -0.1529
      9 O2         -0.0539   -1.6473    2.4653 O.3       1 <0>        -0.1493
     10 N2          1.8502   -2.0336    0.5987 N.pl3     1 <0>         0.0304
     11 O3          2.9984   -2.3560    0.7971 O.2       1 <0>        -0.1355
     12 O4          0.9715   -2.8622    0.6539 O.3       1 <0>        -0.1417
     13 N3          2.8727    2.1624   -1.5937 N.2       1 <0>        -0.5947
     14 C7          2.6068    3.4079   -1.8848 C.2       1 <0>         0.4324
     15 O5          3.4503    4.1124   -2.6771 O.3       1 <0>        -0.5802
     16 C8          1.3904    4.0475   -1.3530 C.2       1 <0>         0.4795
     17 O6          1.1361    5.2074   -1.6209 O.2       1 <0>        -0.4979
     18 N4          0.5617    3.3300   -0.5634 N.am      1 <0>        -0.6270
     19 H1         -0.2442    3.7314   -0.2024 H         1 <0>         0.4104
     20 H2         -0.8563    1.6877    0.9435 H         1 <0>         0.1592
     21 H3          3.2502   -0.3457   -0.9085 H         1 <0>         0.1717
@<TRIPOS>BOND
     1    1    6 ar
     2    1    2 ar
     3    1   20 1
     4    2   18 1
     5    2    3 ar
     6    3    4 ar
     7    3   13 1
     8    4    5 ar
     9    4   21 1
    10    5    6 ar
    11    5   10 1
    12    6    7 1
    13    7    8 2
    14    7    9 1
    15   10   11 2
    16   10   12 1
    17   13   14 2
    18   14   15 1
    19   14   16 1
    20   16   17 2
    21   16   18 am
    22   18   19 1
@<TRIPOS>MOLECULE
ZINC18118278
   22    23     0     0     0
SMALL
USER_CHARGES

@<TRIPOS>ATOM
      1 C1          0.0382    1.2610    0.5152 C.ar      1 <0>        -0.0552
      2 C2          0.8758    2.0183   -0.2964 C.ar      1 <0>         0.1719
      3 C3          2.0393    1.4471   -0.8145 C.ar      1 <0>         0.1720
      4 C4          2.3510    0.1254   -0.5146 C.ar      1 <0>        -0.0553
      5 C5          1.5125   -0.6159    0.2921 C.ar      1 <0>         0.0166
      6 C6          0.3581   -0.0491    0.8060 C.ar      1 <0>         0.0165
      7 N1         -0.5357   -0.8520    1.6707 N.pl3     1 <0>         0.0206
      8 O1         -1.7351   -0.7324    1.5766 O.2       1 <0>        -0.1120
      9 O2         -0.0664   -1.6272    2.4709 O.3       1 <0>        -0.1151
     10 N2          1.8476   -2.0224    0.6091 N.pl3     1 <0>         0.0206
     11 O3          2.9970   -2.3396    0.8090 O.2       1 <0>        -0.1120
     12 O4          0.9720   -2.8539    0.6680 O.3       1 <0>        -0.1151
     13 N3          2.8903    2.1887   -1.6291 N.am      1 <0>        -0.6303
     14 C7          2.5958    3.4709   -1.9250 C.2       1 <0>         0.5137
     15 C8          1.3528    4.0814   -1.3711 C.2       1 <0>         0.5137
     16 N4          0.5461    3.3396   -0.5854 N.am      1 <0>        -0.6303
     17 O5          1.0696    5.2348   -1.6257 O.2       1 <0>        -0.4318
     18 O6          3.3354    4.1221   -2.6351 O.2       1 <0>        -0.4318
     19 H1         -0.8610    1.7001    0.9216 H         1 <0>         0.1865
     20 H2          3.2498   -0.3211   -0.9137 H         1 <0>         0.1866
     21 H3          3.6965    1.7826   -1.9842 H         1 <0>         0.4351
     22 H4         -0.2650    3.7271   -0.2210 H         1 <0>         0.4351
@<TRIPOS>BOND
     1    1    6 ar
     2    1    2 ar
     3    1   19 1
     4    2   16 1
     5    2    3 ar
     6    3    4 ar
     7    3   13 1
     8    4    5 ar
     9    4   20 1
    10    5    6 ar
    11    5   10 1
    12    6    7 1
    13    7    8 2
    14    7    9 1
    15   10   11 2
    16   10   12 1
    17   13   14 am
    18   13   21 1
    19   14   15 1
    20   14   18 2
    21   15   16 am
    22   15   17 2
    23   16   22 1
@<TRIPOS>MOLECULE
ZINC06092461
   45    47     0     0     0
SMALL
USER_CHARGES
3-[1-(1-piperidyl)cyclohexyl]phenol
@<TRIPOS>ATOM
      1 C1          1.1504    1.7752    0.0622 C.ar      1 <0>        -0.0815
      2 C2          1.1385    3.1566   -0.0008 C.ar      1 <0>        -0.1768
      3 C3         -0.0559    3.8452    0.1007 C.ar      1 <0>        -0.0929
      4 C4         -1.2411    3.1545    0.2658 C.ar      1 <0>        -0.1219
      5 C5         -1.2325    1.7686    0.3231 C.ar      1 <0>         0.1336
      6 C6         -0.0318    1.0800    0.2268 C.ar      1 <0>        -0.1283
      7 O1         -2.3976    1.0866    0.4794 O.3       1 <0>        -0.4925
      8 C7         -0.0652    5.3506    0.0316 C.3       1 <0>         0.1193
      9 C8         -0.9064    5.9088    1.1812 C.3       1 <0>        -0.1365
     10 C9         -0.9158    7.4371    1.1111 C.3       1 <0>        -0.1337
     11 C10        -1.5166    7.8827   -0.2236 C.3       1 <0>        -0.1324
     12 C11        -0.6754    7.3246   -1.3733 C.3       1 <0>        -0.1364
     13 C12        -0.6660    5.7962   -1.3031 C.3       1 <0>        -0.1360
     14 C13         2.0692    5.5858   -1.0864 C.3       1 <0>        -0.0362
     15 C14         3.4451    6.2493   -0.9928 C.3       1 <0>        -0.1451
     16 C15         4.1924    5.6941    0.2228 C.3       1 <0>        -0.1400
     17 C16         3.3585    5.9437    1.4825 C.3       1 <0>        -0.1446
     18 C17         1.9851    5.2891    1.3172 C.3       1 <0>        -0.0405
     19 H1          2.0847    1.2394   -0.0176 H         1 <0>         0.1406
     20 H2          2.0639    3.6983   -0.1291 H         1 <0>         0.1454
     21 H3         -2.1739    3.6930    0.3454 H         1 <0>         0.1399
     22 H4         -0.0220    0.0012    0.2760 H         1 <0>         0.1422
     23 H5         -2.6410    0.9301    1.4021 H         1 <0>         0.4029
     24 H6         -1.9270    5.5350    1.0994 H         1 <0>         0.1121
     25 H7         -0.4784    5.5913    2.1321 H         1 <0>         0.0902
     26 H8          0.1048    7.8109    1.1929 H         1 <0>         0.0559
     27 H9         -1.5151    7.8348    1.9301 H         1 <0>         0.0959
     28 H10        -1.5234    8.9715   -0.2736 H         1 <0>         0.0824
     29 H11        -2.5373    7.5089   -0.3054 H         1 <0>         0.0811
     30 H12         0.3452    7.6983   -1.2915 H         1 <0>         0.0576
     31 H13        -1.1035    7.6420   -2.3241 H         1 <0>         0.0948
     32 H14        -0.0667    5.3986   -2.1222 H         1 <0>         0.0924
     33 H15        -1.6866    5.4224   -1.3849 H         1 <0>         0.1114
     34 H16         2.1924    4.5098   -1.2092 H         1 <0>         0.1453
     35 H17         1.5288    5.9894   -1.9427 H         1 <0>         0.1343
     36 H18         3.3228    7.3269   -0.8838 H         1 <0>         0.0866
     37 H19         4.0139    6.0367   -1.8980 H         1 <0>         0.1133
     38 H20         5.1557    6.1952    0.3184 H         1 <0>         0.0961
     39 H21         4.3501    4.6229    0.0967 H         1 <0>         0.0813
     40 H22         3.2349    7.0165    1.6304 H         1 <0>         0.0852
     41 H23         3.8655    5.5127    2.3459 H         1 <0>         0.1125
     42 H24         1.3838    5.4771    2.2066 H         1 <0>         0.1276
     43 H25         2.1089    4.2145    1.1831 H         1 <0>         0.1549
     44 N1          1.3079    5.8840    0.1455 N.4       1 <0>        -0.3834
     45 H26         1.2608    6.9022    0.2696 H         1 <0>         0.4240
@<TRIPOS>BOND
     1    1    6 ar
     2    1    2 ar
     3    1   19 1
     4    2    3 ar
     5    2   20 1
     6    3    4 ar
     7    3    8 1
     8    4    5 ar
     9    4   21 1
    10    5    6 ar
    11    5    7 1
    12    6   22 1
    13    7   23 1
    14    8   13 1
    15    8    9 1
    16    8   44 1
    17    9   10 1
    18    9   24 1
    19    9   25 1
    20   10   11 1
    21   10   26 1
    22   10   27 1
    23   11   12 1
    24   11   28 1
    25   11   29 1
    26   12   13 1
    27   12   30 1
    28   12   31 1
    29   13   32 1
    30   13   33 1
    31   14   15 1
    32   14   34 1
    33   14   35 1
    34   14   44 1
    35   15   16 1
    36   15   36 1
    37   15   37 1
    38   16   17 1
    39   16   38 1
    40   16   39 1
    41   17   18 1
    42   17   40 1
    43   17   41 1
    44   18   42 1
    45   18   43 1
    46   18   44 1
    47   44   45 1
@<TRIPOS>MOLECULE
ZINC22309331
   24    23     0     0     0
SMALL
USER_CHARGES

@<TRIPOS>ATOM
      1 C1         -0.7087    1.4067    0.0945 C.3       1 <0>        -0.1377
      2 C2         -0.2180   -0.0164    0.0234 C.2       1 <0>        -0.0158
      3 C3          0.1091   -0.6521    1.1212 C.2       1 <0>        -0.2188
      4 C4          0.1232    0.0784    2.4392 C.3       1 <0>        -0.0074
      5 H1         -0.0643    1.1386    2.2690 H         1 <0>         0.1314
      6 C5          1.4688   -0.0948    3.0953 C.2       1 <0>         0.4994
      7 O1          2.4514    0.4523    2.6246 O.co2     1 <0>        -0.6423
      8 O2          1.5748   -0.7822    4.0967 O.co2     1 <0>        -0.6819
      9 N1         -0.9222   -0.4695    3.3138 N.4       1 <0>        -0.6097
     10 C6         -0.1037   -0.7083   -1.3105 C.3       1 <0>        -0.6991
     11 P1         -1.7171   -1.4263   -1.7628 P.3       1 <0>         2.2594
     12 O3         -2.2045   -2.3540   -0.6275 O.2       1 <0>        -1.0922
     13 O4         -2.7437   -0.2919   -1.9774 O.3       1 <0>        -1.0905
     14 O5         -1.5643   -2.2760   -3.1218 O.3       1 <0>        -0.9047
     15 H2          0.1445    2.0848    0.1099 H         1 <0>         0.0717
     16 H3         -1.3279    1.6214   -0.7764 H         1 <0>         0.0917
     17 H4         -1.2975    1.5431    1.0016 H         1 <0>         0.0612
     18 H5          0.3688   -1.6997    1.0816 H         1 <0>         0.1235
     19 H6         -0.7892   -1.4646    3.4144 H         1 <0>         0.4319
     20 H7         -0.8671   -0.0296    4.2202 H         1 <0>         0.4230
     21 H8          0.1984    0.0134   -2.0694 H         1 <0>         0.0888
     22 H9          0.6416   -1.5011   -1.2459 H         1 <0>         0.0842
     23 H10        -2.3859   -2.6878   -3.4227 H         1 <0>         0.4139
     24 H11        -1.8284   -0.2907    2.9077 H         1 <0>         0.4201
@<TRIPOS>BOND
     1    1    2 1
     2    1   15 1
     3    1   16 1
     4    1   17 1
     5    2    3 2
     6    2   10 1
     7    3    4 1
     8    3   18 1
     9    4    5 1
    10    4    6 1
    11    4    9 1
    12    6    7 2
    13    6    8 1
    14    9   19 1
    15    9   20 1
    16    9   24 1
    17   10   11 1
    18   10   21 1
    19   10   22 1
    20   11   12 2
    21   11   13 1
    22   11   14 1
    23   14   23 1
@<TRIPOS>MOLECULE
ZINC22028288
   32    32     0     0     0
SMALL
USER_CHARGES

@<TRIPOS>ATOM
      1 C1         -0.0178    1.4646    0.0101 C.3       1 <0>        -0.0021
      2 C2          1.4177    1.9945   -0.0008 C.3       1 <0>         0.0195
      3 N1          2.1091    1.5033   -1.2012 N.3       1 <0>        -0.5387
      4 C3          2.1152    0.0340   -1.2356 C.3       1 <0>         0.0516
      5 C4          0.6738   -0.4797   -1.2145 C.3       1 <0>        -0.0413
      6 H1          0.1431   -0.1087   -2.0913 H         1 <0>         0.1387
      7 N2          0.0021   -0.0041    0.0020 N.4       1 <0>        -0.4837
      8 C5          0.6774   -1.9866   -1.2299 C.2       1 <0>         0.4937
      9 O1          0.3358   -2.6072   -0.2376 O.co2     1 <0>        -0.6772
     10 O2          1.0218   -2.5852   -2.2347 O.co2     1 <0>        -0.6364
     11 C6          3.4755    2.0374   -1.2772 C.3       1 <0>         0.0599
     12 C7          3.4202    3.5524   -1.4833 C.3       1 <0>        -0.0877
     13 C8          4.8433    4.1086   -1.5626 C.3       1 <0>        -0.7296
     14 P1          4.7774    5.9138   -1.8081 P.3       1 <0>         2.2588
     15 O3          3.9209    6.2332   -3.0537 O.2       1 <0>        -1.0956
     16 O4          4.1468    6.5799   -0.5649 O.3       1 <0>        -1.0987
     17 O5          6.2688    6.4810   -2.0225 O.3       1 <0>        -0.9059
     18 H2         -0.5281    1.8161    0.9069 H         1 <0>         0.1295
     19 H3         -0.5451    1.8257   -0.8730 H         1 <0>         0.1332
     20 H4          1.4031    3.0843   -0.0098 H         1 <0>         0.1256
     21 H5          1.9412    1.6448    0.8891 H         1 <0>         0.0535
     22 H6          2.6093   -0.3064   -2.1455 H         1 <0>         0.1178
     23 H7          2.6501   -0.3479   -0.3661 H         1 <0>         0.0497
     24 H8          0.5002   -0.3379    0.8135 H         1 <0>         0.4219
     25 H9          4.0043    1.8158   -0.3502 H         1 <0>         0.0346
     26 H10         3.9999    1.5758   -2.1139 H         1 <0>         0.0787
     27 H11         2.8913    3.7739   -2.4103 H         1 <0>         0.0847
     28 H12         2.8957    4.0140   -0.6466 H         1 <0>         0.0686
     29 H13         5.3721    3.8871   -0.6355 H         1 <0>         0.0680
     30 H14         5.3677    3.6470   -2.3992 H         1 <0>         0.0706
     31 H15         6.3100    7.4374   -2.1595 H         1 <0>         0.4126
     32 H16        -0.9444   -0.3532    0.0217 H         1 <0>         0.4258
@<TRIPOS>BOND
     1    1    7 1
     2    1    2 1
     3    1   18 1
     4    1   19 1
     5    2    3 1
     6    2   20 1
     7    2   21 1
     8    3    4 1
     9    3   11 1
    10    4    5 1
    11    4   22 1
    12    4   23 1
    13    5    6 1
    14    5    7 1
    15    5    8 1
    16    7   24 1
    17    7   32 1
    18    8    9 2
    19    8   10 1
    20   11   12 1
    21   11   25 1
    22   11   26 1
    23   12   13 1
    24   12   27 1
    25   12   28 1
    26   13   14 1
    27   13   29 1
    28   13   30 1
    29   14   15 2
    30   14   16 1
    31   14   17 1
    32   17   31 1
@<TRIPOS>MOLECULE
ZINC22028288
   31    31     0     0     0
SMALL
USER_CHARGES

@<TRIPOS>ATOM
      1 C1         -0.0178    1.4646    0.0101 C.3       1 <0>        -0.0013
      2 C2          1.4177    1.9945   -0.0008 C.3       1 <0>         0.0193
      3 N1          2.1091    1.5033   -1.2012 N.3       1 <0>        -0.5378
      4 C3          2.1152    0.0340   -1.2356 C.3       1 <0>         0.0504
      5 C4          0.6738   -0.4797   -1.2145 C.3       1 <0>        -0.0405
      6 H1          0.1431   -0.1087   -2.0913 H         1 <0>         0.1377
      7 N2          0.0021   -0.0041    0.0020 N.4       1 <0>        -0.4825
      8 C5          0.6774   -1.9866   -1.2299 C.2       1 <0>         0.4958
      9 O1          0.3358   -2.6072   -0.2376 O.co2     1 <0>        -0.6821
     10 O2          1.0218   -2.5852   -2.2347 O.co2     1 <0>        -0.6392
     11 C6          3.4755    2.0374   -1.2772 C.3       1 <0>         0.0593
     12 C7          3.4202    3.5524   -1.4833 C.3       1 <0>        -0.0800
     13 C8          4.8433    4.1086   -1.5626 C.3       1 <0>        -0.7273
     14 P1          4.7774    5.9138   -1.8081 P.3       1 <0>         2.2121
     15 O3          3.9089    6.2377   -3.0711 O.2       1 <0>        -1.1806
     16 O4          4.1380    6.5893   -0.5474 O.3       1 <0>        -1.1837
     17 O5          6.2287    6.4657   -2.0167 O.3       1 <0>        -1.1866
     18 H2         -0.5281    1.8161    0.9069 H         1 <0>         0.1273
     19 H3         -0.5451    1.8257   -0.8730 H         1 <0>         0.1326
     20 H4          1.4031    3.0843   -0.0098 H         1 <0>         0.1290
     21 H5          1.9412    1.6448    0.8891 H         1 <0>         0.0510
     22 H6          2.6093   -0.3064   -2.1455 H         1 <0>         0.1156
     23 H7          2.6501   -0.3479   -0.3661 H         1 <0>         0.0460
     24 H8          0.5002   -0.3379    0.8135 H         1 <0>         0.4207
     25 H9          4.0043    1.8158   -0.3502 H         1 <0>         0.0297
     26 H10         3.9999    1.5758   -2.1139 H         1 <0>         0.0741
     27 H11         2.8913    3.7739   -2.4103 H         1 <0>         0.0737
     28 H12         2.8957    4.0140   -0.6466 H         1 <0>         0.0572
     29 H13         5.3721    3.8871   -0.6355 H         1 <0>         0.0419
     30 H14         5.3677    3.6470   -2.3992 H         1 <0>         0.0461
     31 H15        -0.9444   -0.3532    0.0217 H         1 <0>         0.4219
@<TRIPOS>BOND
     1    1    7 1
     2    1    2 1
     3    1   18 1
     4    1   19 1
     5    2    3 1
     6    2   20 1
     7    2   21 1
     8    3    4 1
     9    3   11 1
    10    4    5 1
    11    4   22 1
    12    4   23 1
    13    5    6 1
    14    5    7 1
    15    5    8 1
    16    7   24 1
    17    7   31 1
    18    8    9 2
    19    8   10 1
    20   11   12 1
    21   11   25 1
    22   11   26 1
    23   12   13 1
    24   12   27 1
    25   12   28 1
    26   13   14 1
    27   13   29 1
    28   13   30 1
    29   14   15 2
    30   14   16 1
    31   14   17 1
@<TRIPOS>MOLECULE
ZINC22033348
   32    32     0     0     0
SMALL
USER_CHARGES

@<TRIPOS>ATOM
      1 C1         -0.0178    1.4646    0.0101 C.3       1 <0>        -0.0020
      2 C2          1.4177    1.9945   -0.0008 C.3       1 <0>         0.0198
      3 N1          2.1318    1.4905    1.1809 N.3       1 <0>        -0.5385
      4 C3          2.1384    0.0209    1.1994 C.3       1 <0>         0.0499
      5 C4          0.6969   -0.4926    1.2004 C.3       1 <0>        -0.0402
      6 H1          0.1830   -0.1311    2.0910 H         1 <0>         0.1380
      7 N2          0.0021   -0.0041    0.0020 N.4       1 <0>        -0.4854
      8 C5          0.7006   -1.9996    1.1995 C.2       1 <0>         0.4915
      9 O1          0.7030   -2.6099    2.2550 O.co2     1 <0>        -0.6375
     10 O2          0.7011   -2.6086    0.1432 O.co2     1 <0>        -0.6728
     11 C6          3.4995    2.0239    1.2366 C.3       1 <0>         0.0598
     12 C7          3.4483    3.5366    1.4599 C.3       1 <0>        -0.0878
     13 C8          4.8727    4.0921    1.5180 C.3       1 <0>        -0.7296
     14 P1          4.8117    5.8945    1.7841 P.3       1 <0>         2.2588
     15 O3          3.9400    6.5476    0.6884 O.2       1 <0>        -1.0979
     16 O4          4.2010    6.1898    3.1722 O.3       1 <0>        -1.0962
     17 O5          6.3027    6.4980    1.7143 O.3       1 <0>        -0.9060
     18 H2         -0.5281    1.8161    0.9069 H         1 <0>         0.1335
     19 H3         -0.5451    1.8257   -0.8730 H         1 <0>         0.1295
     20 H4          1.9241    1.6544   -0.9041 H         1 <0>         0.0538
     21 H5          1.4034    3.0842    0.0203 H         1 <0>         0.1261
     22 H6          2.6566   -0.3516    0.3158 H         1 <0>         0.0531
     23 H7          2.6498   -0.3292    2.0960 H         1 <0>         0.1143
     24 H8         -0.9446   -0.3530   -0.0034 H         1 <0>         0.4239
     25 H9          4.0397    1.5534    2.0581 H         1 <0>         0.0785
     26 H10         4.0105    1.8123    0.2973 H         1 <0>         0.0348
     27 H11         2.9080    4.0071    0.6384 H         1 <0>         0.0717
     28 H12         2.9373    3.7481    2.3992 H         1 <0>         0.0818
     29 H13         5.4130    3.6216    2.3395 H         1 <0>         0.0721
     30 H14         5.3837    3.8805    0.5787 H         1 <0>         0.0665
     31 H15         6.3463    7.4548    1.8476 H         1 <0>         0.4126
     32 H16         0.4846   -0.3292   -0.8223 H         1 <0>         0.4236
@<TRIPOS>BOND
     1    1    7 1
     2    1    2 1
     3    1   18 1
     4    1   19 1
     5    2    3 1
     6    2   20 1
     7    2   21 1
     8    3    4 1
     9    3   11 1
    10    4    5 1
    11    4   22 1
    12    4   23 1
    13    5    6 1
    14    5    7 1
    15    5    8 1
    16    7   24 1
    17    7   32 1
    18    8    9 2
    19    8   10 1
    20   11   12 1
    21   11   25 1
    22   11   26 1
    23   12   13 1
    24   12   27 1
    25   12   28 1
    26   13   14 1
    27   13   29 1
    28   13   30 1
    29   14   15 2
    30   14   16 1
    31   14   17 1
    32   17   31 1
@<TRIPOS>MOLECULE
ZINC22033348
   31    31     0     0     0
SMALL
USER_CHARGES

@<TRIPOS>ATOM
      1 C1         -0.0178    1.4646    0.0101 C.3       1 <0>        -0.0011
      2 C2          1.4177    1.9945   -0.0008 C.3       1 <0>         0.0195
      3 N1          2.1318    1.4905    1.1809 N.3       1 <0>        -0.5376
      4 C3          2.1384    0.0209    1.1994 C.3       1 <0>         0.0487
      5 C4          0.6969   -0.4926    1.2004 C.3       1 <0>        -0.0393
      6 H1          0.1830   -0.1311    2.0910 H         1 <0>         0.1370
      7 N2          0.0021   -0.0041    0.0020 N.4       1 <0>        -0.4842
      8 C5          0.7006   -1.9996    1.1995 C.2       1 <0>         0.4938
      9 O1          0.7030   -2.6099    2.2550 O.co2     1 <0>        -0.6413
     10 O2          0.7011   -2.6086    0.1432 O.co2     1 <0>        -0.6768
     11 C6          3.4995    2.0239    1.2366 C.3       1 <0>         0.0592
     12 C7          3.4483    3.5366    1.4599 C.3       1 <0>        -0.0801
     13 C8          4.8727    4.0921    1.5180 C.3       1 <0>        -0.7273
     14 P1          4.8117    5.8945    1.7841 P.3       1 <0>         2.2124
     15 O3          3.9277    6.5568    0.6730 O.2       1 <0>        -1.1828
     16 O4          4.1924    6.1939    3.1916 O.3       1 <0>        -1.1815
     17 O5          6.2625    6.4818    1.7162 O.3       1 <0>        -1.1868
     18 H2         -0.5281    1.8161    0.9069 H         1 <0>         0.1328
     19 H3         -0.5451    1.8257   -0.8730 H         1 <0>         0.1274
     20 H4          1.9241    1.6544   -0.9041 H         1 <0>         0.0515
     21 H5          1.4034    3.0842    0.0203 H         1 <0>         0.1298
     22 H6          2.6566   -0.3516    0.3158 H         1 <0>         0.0496
     23 H7          2.6498   -0.3292    2.0960 H         1 <0>         0.1120
     24 H8         -0.9446   -0.3530   -0.0034 H         1 <0>         0.4198
     25 H9          4.0397    1.5534    2.0581 H         1 <0>         0.0736
     26 H10         4.0105    1.8123    0.2973 H         1 <0>         0.0302
     27 H11         2.9080    4.0071    0.6384 H         1 <0>         0.0611
     28 H12         2.9373    3.7481    2.3992 H         1 <0>         0.0701
     29 H13         5.4130    3.6216    2.3395 H         1 <0>         0.0460
     30 H14         5.3837    3.8805    0.5787 H         1 <0>         0.0421
     31 H15         0.4846   -0.3292   -0.8223 H         1 <0>         0.4224
@<TRIPOS>BOND
     1    1    7 1
     2    1    2 1
     3    1   18 1
     4    1   19 1
     5    2    3 1
     6    2   20 1
     7    2   21 1
     8    3    4 1
     9    3   11 1
    10    4    5 1
    11    4   22 1
    12    4   23 1
    13    5    6 1
    14    5    7 1
    15    5    8 1
    16    7   24 1
    17    7   31 1
    18    8    9 2
    19    8   10 1
    20   11   12 1
    21   11   25 1
    22   11   26 1
    23   12   13 1
    24   12   27 1
    25   12   28 1
    26   13   14 1
    27   13   29 1
    28   13   30 1
    29   14   15 2
    30   14   16 1
    31   14   17 1
@<TRIPOS>MOLECULE
ZINC25757829
   32    35     0     0     0
SMALL
USER_CHARGES

@<TRIPOS>ATOM
      1 C1         -0.0187    1.5258    0.0104 C.3       1 <0>        -0.1252
      2 C2          0.0021   -0.0041    0.0020 C.3       1 <0>         0.1700
      3 C3          0.7167   -0.5895   -1.2034 C.ar      1 <0>        -0.1069
      4 C4          0.8979    0.1802   -2.3343 C.ar      1 <0>        -0.1048
      5 C5          1.5405   -0.3573   -3.4350 C.ar      1 <0>        -0.1212
      6 C6          1.9955   -1.6623   -3.3949 C.ar      1 <0>        -0.1154
      7 C7          1.8143   -2.4276   -2.2597 C.ar      1 <0>        -0.1172
      8 C8          1.1755   -1.8892   -1.1532 C.ar      1 <0>        -0.0768
      9 C9          1.0113   -2.7345    0.0833 C.3       1 <0>        -0.1060
     10 C10         0.1766   -2.0033    1.1369 C.3       1 <0>         0.1001
     11 H1          0.2513   -2.4929    2.1079 H         1 <0>         0.1081
     12 N1          0.6774   -0.5970    1.1980 N.3       1 <0>        -0.6342
     13 C11        -1.2530   -1.8806    0.6988 C.ar      1 <0>        -0.0952
     14 C12        -1.3755   -0.6242    0.0348 C.ar      1 <0>        -0.0809
     15 C13        -2.5771   -0.1782   -0.4723 C.ar      1 <0>        -0.0931
     16 C14        -3.6801   -1.0063   -0.2906 C.ar      1 <0>        -0.1176
     17 C15        -3.5744   -2.2154    0.3646 C.ar      1 <0>        -0.1209
     18 C16        -2.3295   -2.7288    0.8705 C.ar      1 <0>        -0.0946
     19 H2          1.0039    1.9031    0.0027 H         1 <0>         0.0650
     20 H3         -0.5459    1.8868   -0.8726 H         1 <0>         0.0670
     21 H4         -0.5289    1.8773    0.9072 H         1 <0>         0.0732
     22 H5          0.5390    1.1985   -2.3601 H         1 <0>         0.1272
     23 H6          1.6860    0.2402   -4.3228 H         1 <0>         0.1244
     24 H7          2.4941   -2.0848   -4.2547 H         1 <0>         0.1231
     25 H8          2.1706   -3.4468   -2.2339 H         1 <0>         0.1229
     26 H9          0.5143   -3.6672   -0.1835 H         1 <0>         0.0854
     27 H10         1.9944   -2.9588    0.4973 H         1 <0>         0.0869
     28 H11         1.6807   -0.5800    1.0922 H         1 <0>         0.3441
     29 H12        -2.6584    0.7686   -0.9856 H         1 <0>         0.1300
     30 H13        -4.6417   -0.6950   -0.6711 H         1 <0>         0.1239
     31 H14        -4.4549   -2.8304    0.4782 H         1 <0>         0.1194
     32 H15        -2.2281   -3.6740    1.3830 H         1 <0>         0.1394
@<TRIPOS>BOND
     1    1    2 1
     2    1   19 1
     3    1   20 1
     4    1   21 1
     5    2   12 1
     6    2   14 1
     7    2    3 1
     8    3    8 ar
     9    3    4 ar
    10    4    5 ar
    11    4   22 1
    12    5    6 ar
    13    5   23 1
    14    6    7 ar
    15    6   24 1
    16    7    8 ar
    17    7   25 1
    18    8    9 1
    19    9   10 1
    20    9   26 1
    21    9   27 1
    22   10   11 1
    23   10   12 1
    24   10   13 1
    25   12   28 1
    26   13   18 ar
    27   13   14 ar
    28   14   15 ar
    29   15   16 ar
    30   15   29 1
    31   16   17 ar
    32   16   30 1
    33   17   18 ar
    34   17   31 1
    35   18   32 1
@<TRIPOS>MOLECULE
ZINC13829431
   43    45     0     0     0
SMALL
USER_CHARGES

@<TRIPOS>ATOM
      1 C1          0.1416    1.6069    0.1038 C.3       1 <0>        -0.1611
      2 C2          0.1684    0.0784    0.0434 C.3       1 <0>         0.1179
      3 H1         -0.8507   -0.3001   -0.0359 H         1 <0>         0.0467
      4 C3          0.9630   -0.3629   -1.1587 C.ar      1 <0>        -0.0630
      5 C4          2.3443   -0.3805   -1.1055 C.ar      1 <0>        -0.0963
      6 C5          3.0735   -0.7856   -2.2076 C.ar      1 <0>        -0.0906
      7 C6          2.4209   -1.1735   -3.3639 C.ar      1 <0>        -0.0957
      8 C7          1.0388   -1.1557   -3.4167 C.ar      1 <0>        -0.0914
      9 C8          0.3103   -0.7555   -2.3123 C.ar      1 <0>        -0.1117
     10 Br1         3.4179   -1.7272   -4.8723 Br        1 <0>        -0.0608
     11 N1          0.7931   -0.4491    1.2638 N.3       1 <0>        -0.6424
     12 C9         -0.1906   -0.5721    2.3478 C.3       1 <0>        -0.4605
     13 H2         -1.1954   -0.4562    1.9415 H         1 <0>         0.0812
     14 C10        -0.0622   -1.9289    2.9911 C.ar      1 <0>        -0.0782
     15 C11         1.1792   -2.5190    3.1145 C.ar      1 <0>        -0.1020
     16 C12         1.3033   -3.7655    3.7041 C.ar      1 <0>        -0.1037
     17 C13         0.1865   -4.4271    4.1728 C.ar      1 <0>        -0.1257
     18 C14        -1.0693   -3.8425    4.0545 C.ar      1 <0>         0.1113
     19 C15        -1.1938   -2.5829    3.4650 C.ar      1 <0>         0.1386
     20 N2         -2.4418   -1.9788    3.3420 N.am      1 <0>        -0.6186
     21 C16        -3.5446   -2.6058    3.7993 C.2       1 <0>         0.5081
     22 C17        -3.4109   -3.9485    4.4350 C.2       1 <0>         0.5122
     23 N3         -2.1911   -4.5160    4.5296 N.am      1 <0>        -0.6301
     24 O1         -4.3919   -4.5295    4.8535 O.2       1 <0>        -0.4801
     25 O2         -4.6357   -2.0824    3.6950 O.2       1 <0>        -0.4744
     26 P1          0.1138    0.7227    3.5945 P.3       1 <0>         2.2764
     27 O3         -0.1406    2.1115    2.9673 O.2       1 <0>        -1.0799
     28 O4         -0.8382    0.5170    4.7938 O.3       1 <0>        -1.0911
     29 O5          1.6400    0.6333    4.0994 O.3       1 <0>        -0.8935
     30 H3          1.1607    1.9854    0.1831 H         1 <0>         0.0612
     31 H4         -0.3219    1.9983   -0.8017 H         1 <0>         0.0427
     32 H5         -0.4331    1.9261    0.9733 H         1 <0>         0.1200
     33 H6          2.8537   -0.0773   -0.2028 H         1 <0>         0.1439
     34 H7          4.1526   -0.7990   -2.1660 H         1 <0>         0.1322
     35 H8          0.5288   -1.4585   -4.3193 H         1 <0>         0.1297
     36 H9         -0.7689   -0.7455   -2.3521 H         1 <0>         0.1281
     37 H10         1.2467   -1.3325    1.0851 H         1 <0>         0.3344
     38 H11         2.0571   -2.0067    2.7494 H         1 <0>         0.1427
     39 H12         2.2777   -4.2219    3.7973 H         1 <0>         0.1353
     40 H13         0.2881   -5.3996    4.6314 H         1 <0>         0.1365
     41 H14         1.8733    1.2943    4.7656 H         1 <0>         0.4093
     42 H15        -2.0938   -5.3892    4.9406 H         1 <0>         0.4192
     43 H16        -2.5184   -1.1053    2.9271 H         1 <0>         0.4234
@<TRIPOS>BOND
     1    1    2 1
     2    1   30 1
     3    1   31 1
     4    1   32 1
     5    2    3 1
     6    2    4 1
     7    2   11 1
     8    4    9 ar
     9    4    5 ar
    10    5    6 ar
    11    5   33 1
    12    6    7 ar
    13    6   34 1
    14    7    8 ar
    15    7   10 1
    16    8    9 ar
    17    8   35 1
    18    9   36 1
    19   11   12 1
    20   11   37 1
    21   12   13 1
    22   12   14 1
    23   12   26 1
    24   14   19 ar
    25   14   15 ar
    26   15   16 ar
    27   15   38 1
    28   16   17 ar
    29   16   39 1
    30   17   18 ar
    31   17   40 1
    32   18   23 1
    33   18   19 ar
    34   19   20 1
    35   20   21 am
    36   20   43 1
    37   21   22 1
    38   21   25 2
    39   22   23 am
    40   22   24 2
    41   23   42 1
    42   26   27 2
    43   26   28 1
    44   26   29 1
    45   29   41 1
@<TRIPOS>MOLECULE
ZINC13829431
   43    45     0     0     0
SMALL
USER_CHARGES

@<TRIPOS>ATOM
      1 C1         -0.5197   -2.5153   -0.9883 C.3       1 <0>        -0.1705
      2 C2         -1.3740   -1.9647    0.1553 C.3       1 <0>         0.0549
      3 H1         -2.4018   -2.3087    0.0393 H         1 <0>         0.1440
      4 C3         -0.8264   -2.4532    1.4716 C.ar      1 <0>        -0.1101
      5 C4          0.2671   -1.8271    2.0401 C.ar      1 <0>        -0.1108
      6 C5          0.7695   -2.2744    3.2476 C.ar      1 <0>        -0.0758
      7 C6          0.1778   -3.3488    3.8871 C.ar      1 <0>        -0.0787
      8 C7         -0.9164   -3.9750    3.3179 C.ar      1 <0>        -0.0842
      9 C8         -1.4213   -3.5236    2.1130 C.ar      1 <0>        -0.0856
     10 Br1         0.8650   -3.9617    5.5388 Br        1 <0>        -0.0385
     11 N1         -1.3430   -0.4963    0.1267 N.4       1 <0>        -0.4666
     12 C9         -2.0000   -0.0164   -1.0964 C.3       1 <0>        -0.5004
     13 H2         -1.5524   -0.5017   -1.9637 H         1 <0>         0.1322
     14 C10        -3.4695   -0.3455   -1.0394 C.ar      1 <0>        -0.0672
     15 C11        -4.0492   -0.7079    0.1595 C.ar      1 <0>        -0.1239
     16 C12        -5.3986   -1.0117    0.2180 C.ar      1 <0>        -0.0975
     17 C13        -6.1741   -0.9544   -0.9222 C.ar      1 <0>        -0.1216
     18 C14        -5.6016   -0.5902   -2.1356 C.ar      1 <0>         0.1208
     19 C15        -4.2418   -0.2783   -2.1934 C.ar      1 <0>         0.1541
     20 N2         -3.6512    0.0935   -3.3979 N.am      1 <0>        -0.6016
     21 C16        -4.3928    0.1617   -4.5220 C.2       1 <0>         0.5095
     22 C17        -5.8467   -0.1652   -4.4589 C.2       1 <0>         0.5113
     23 N3         -6.3902   -0.5347   -3.2813 N.am      1 <0>        -0.6323
     24 O1         -6.5320   -0.1094   -5.4602 O.2       1 <0>        -0.4790
     25 O2         -3.8822    0.4864   -5.5751 O.2       1 <0>        -0.4652
     26 P1         -1.7864    1.7889   -1.2326 P.3       1 <0>         2.0731
     27 O3         -2.5804    2.4970   -0.0826 O.2       1 <0>        -1.1067
     28 O4         -0.2654    2.1453   -1.1132 O.3       1 <0>        -1.1174
     29 O5         -2.3296    2.2759   -2.6190 O.3       1 <0>        -1.0939
     30 H3         -0.4643   -3.6011   -0.9102 H         1 <0>         0.0970
     31 H4         -0.9703   -2.2422   -1.9425 H         1 <0>         0.0832
     32 H5          0.4841   -2.0949   -0.9269 H         1 <0>         0.0833
     33 H6          0.7292   -0.9884    1.5405 H         1 <0>         0.1389
     34 H7          1.6240   -1.7854    3.6915 H         1 <0>         0.1447
     35 H8         -1.3787   -4.8139    3.8169 H         1 <0>         0.1413
     36 H9         -2.2781   -4.0099    1.6705 H         1 <0>         0.1410
     37 H10        -1.8283   -0.1339    0.9336 H         1 <0>         0.4257
     38 H11        -3.4478   -0.7549    1.0553 H         1 <0>         0.1174
     39 H12        -5.8460   -1.2949    1.1593 H         1 <0>         0.1366
     40 H13        -7.2263   -1.1930   -0.8719 H         1 <0>         0.1393
     41 H14        -7.3346   -0.7500   -3.2301 H         1 <0>         0.4186
     42 H15        -2.7048    0.3042   -3.4285 H         1 <0>         0.4303
     43 H16        -0.3850   -0.1799    0.1402 H         1 <0>         0.4307
@<TRIPOS>BOND
     1    1    2 1
     2    1   30 1
     3    1   31 1
     4    1   32 1
     5    2    3 1
     6    2    4 1
     7    2   11 1
     8    4    9 ar
     9    4    5 ar
    10    5    6 ar
    11    5   33 1
    12    6    7 ar
    13    6   34 1
    14    7    8 ar
    15    7   10 1
    16    8    9 ar
    17    8   35 1
    18    9   36 1
    19   11   12 1
    20   11   37 1
    21   11   43 1
    22   12   13 1
    23   12   14 1
    24   12   26 1
    25   14   19 ar
    26   14   15 ar
    27   15   16 ar
    28   15   38 1
    29   16   17 ar
    30   16   39 1
    31   17   18 ar
    32   17   40 1
    33   18   23 1
    34   18   19 ar
    35   19   20 1
    36   20   21 am
    37   20   42 1
    38   21   22 1
    39   21   25 2
    40   22   23 am
    41   22   24 2
    42   23   41 1
    43   26   27 2
    44   26   28 1
    45   26   29 1
@<TRIPOS>MOLECULE
ZINC13829431
   42    44     0     0     0
SMALL
USER_CHARGES

@<TRIPOS>ATOM
      1 C1          0.1560    1.6195    0.1183 C.3       1 <0>        -0.1622
      2 C2          0.1714    0.0912    0.0475 C.3       1 <0>         0.1176
      3 H1         -0.8506   -0.2791   -0.0334 H         1 <0>         0.0349
      4 C3          0.9617   -0.3479   -1.1582 C.ar      1 <0>        -0.0494
      5 C4          2.3428   -0.3760   -1.1063 C.ar      1 <0>        -0.0923
      6 C5          3.0681   -0.7791   -2.2118 C.ar      1 <0>        -0.0916
      7 C6          2.4117   -1.1543   -3.3701 C.ar      1 <0>        -0.1013
      8 C7          1.0297   -1.1259   -3.4216 C.ar      1 <0>        -0.0955
      9 C8          0.3051   -0.7278   -2.3139 C.ar      1 <0>        -0.1164
     10 Br1         3.4034   -1.7052   -4.8830 Br        1 <0>        -0.0740
     11 N1          0.7931   -0.4491    1.2638 N.3       1 <0>        -0.6206
     12 C9         -0.1906   -0.5721    2.3478 C.3       1 <0>        -0.4519
     13 H2         -1.1954   -0.4562    1.9415 H         1 <0>         0.0469
     14 C10        -0.0622   -1.9289    2.9911 C.ar      1 <0>        -0.0265
     15 C11         1.1792   -2.5190    3.1145 C.ar      1 <0>        -0.1010
     16 C12         1.3034   -3.7653    3.7045 C.ar      1 <0>        -0.1040
     17 C13         0.1866   -4.4267    4.1736 C.ar      1 <0>        -0.1476
     18 C14        -1.0692   -3.8421    4.0553 C.ar      1 <0>         0.1015
     19 C15        -1.1938   -2.5829    3.4650 C.ar      1 <0>         0.1245
     20 N2         -2.4419   -1.9789    3.3417 N.am      1 <0>        -0.6069
     21 H3         -2.5184   -1.1056    2.9265 H         1 <0>         0.4249
     22 C16        -3.5447   -2.6064    3.7983 C.2       1 <0>         0.5038
     23 O1         -4.6360   -2.0838    3.6922 O.2       1 <0>        -0.4948
     24 C17        -3.4109   -3.9488    4.4344 C.2       1 <0>         0.5128
     25 O2         -4.3922   -4.5305    4.8516 O.2       1 <0>        -0.5002
     26 N3         -2.1910   -4.5154    4.5309 N.am      1 <0>        -0.6247
     27 H4         -2.0936   -5.3885    4.9422 H         1 <0>         0.4136
     28 P1          0.1138    0.7227    3.5945 P.3       1 <0>         2.2006
     29 O3          1.6486    0.8048    3.8981 O.2       1 <0>        -1.1550
     30 O4         -0.3846    2.1030    3.0462 O.3       1 <0>        -1.1598
     31 O5         -0.6608    0.3730    4.9105 O.3       1 <0>        -1.1694
     32 H5          1.1779    1.9898    0.1992 H         1 <0>         0.0593
     33 H6         -0.3054    2.0204   -0.7842 H         1 <0>         0.0309
     34 H7         -0.4156    1.9371    0.9904 H         1 <0>         0.1275
     35 H8          2.8552   -0.0827   -0.2020 H         1 <0>         0.1505
     36 H9          4.1471   -0.8008   -2.1712 H         1 <0>         0.1300
     37 H10         0.5168   -1.4188   -4.3257 H         1 <0>         0.1251
     38 H11        -0.7741   -0.7095   -2.3527 H         1 <0>         0.1259
     39 H12         2.0570   -2.0069    2.7491 H         1 <0>         0.1440
     40 H13         2.2777   -4.2217    3.7977 H         1 <0>         0.1277
     41 H14         0.2883   -5.3990    4.6326 H         1 <0>         0.1271
     42 H15         1.2399   -1.3347    1.0788 H         1 <0>         0.3162
@<TRIPOS>BOND
     1    1    2 1
     2    1   32 1
     3    1   33 1
     4    1   34 1
     5    2    3 1
     6    2    4 1
     7    2   11 1
     8    4    9 ar
     9    4    5 ar
    10    5    6 ar
    11    5   35 1
    12    6    7 ar
    13    6   36 1
    14    7    8 ar
    15    7   10 1
    16    8    9 ar
    17    8   37 1
    18    9   38 1
    19   11   12 1
    20   11   42 1
    21   12   13 1
    22   12   14 1
    23   12   28 1
    24   14   19 ar
    25   14   15 ar
    26   15   16 ar
    27   15   39 1
    28   16   17 ar
    29   16   40 1
    30   17   18 ar
    31   17   41 1
    32   18   26 1
    33   18   19 ar
    34   19   20 1
    35   20   21 1
    36   20   22 am
    37   22   23 2
    38   22   24 1
    39   24   25 2
    40   24   26 am
    41   26   27 1
    42   28   29 2
    43   28   30 1
    44   28   31 1
@<TRIPOS>MOLECULE
ZINC13829431
   43    45     0     0     0
SMALL
USER_CHARGES

@<TRIPOS>ATOM
      1 C1          0.1314    1.5978    0.0935 C.3       1 <0>        -0.1483
      2 C2          0.1666    0.0691    0.0405 C.3       1 <0>         0.1126
      3 H1         -0.8504   -0.3153   -0.0376 H         1 <0>         0.0473
      4 C3          0.9645   -0.3737   -1.1589 C.ar      1 <0>        -0.0658
      5 C4          2.3458   -0.3835   -1.1046 C.ar      1 <0>        -0.0944
      6 C5          3.0779   -0.7900   -2.2042 C.ar      1 <0>        -0.0899
      7 C6          2.4283   -1.1871   -3.3591 C.ar      1 <0>        -0.0939
      8 C7          1.0461   -1.1771   -3.4129 C.ar      1 <0>        -0.0920
      9 C8          0.3147   -0.7754   -2.3110 C.ar      1 <0>        -0.1110
     10 Br1         3.4295   -1.7427   -4.8640 Br        1 <0>        -0.0591
     11 N1          0.7933   -0.4490    1.2639 N.3       1 <0>        -0.6405
     12 C9         -0.1906   -0.5721    2.3478 C.3       1 <0>        -0.4593
     13 H2         -1.1953   -0.4563    1.9414 H         1 <0>         0.0646
     14 C10        -0.0622   -1.9289    2.9911 C.ar      1 <0>        -0.0650
     15 C11         1.1792   -2.5190    3.1145 C.ar      1 <0>        -0.0787
     16 C12         1.3034   -3.7653    3.7045 C.ar      1 <0>        -0.1042
     17 C13         0.1866   -4.4267    4.1736 C.ar      1 <0>        -0.1247
     18 C14        -1.0692   -3.8421    4.0553 C.ar      1 <0>         0.1064
     19 C15        -1.1938   -2.5829    3.4650 C.ar      1 <0>         0.1313
     20 N2         -2.4419   -1.9789    3.3417 N.am      1 <0>        -0.6180
     21 H3         -2.5184   -1.1056    2.9265 H         1 <0>         0.4208
     22 C16        -3.5447   -2.6064    3.7983 C.2       1 <0>         0.5081
     23 O1         -4.6360   -2.0838    3.6922 O.2       1 <0>        -0.4794
     24 C17        -3.4109   -3.9488    4.4344 C.2       1 <0>         0.5115
     25 O2         -4.3922   -4.5305    4.8516 O.2       1 <0>        -0.4833
     26 N3         -2.1910   -4.5154    4.5309 N.am      1 <0>        -0.6285
     27 H4         -2.0936   -5.3885    4.9422 H         1 <0>         0.4190
     28 P1          0.1136    0.7227    3.5945 P.3       1 <0>         2.2675
     29 O3          1.4873    0.4840    4.2603 O.2       1 <0>        -1.0780
     30 O4          0.1063    2.1663    2.8818 O.3       1 <0>        -0.8947
     31 O5         -0.9951    0.6734    4.6694 O.3       1 <0>        -1.0906
     32 H5          1.1484    1.9821    0.1716 H         1 <0>         0.0686
     33 H6         -0.3335    1.9822   -0.8143 H         1 <0>         0.0492
     34 H7         -0.4456    1.9180    0.9610 H         1 <0>         0.0892
     35 H8          2.8529   -0.0732   -0.2030 H         1 <0>         0.1461
     36 H9          4.1571   -0.7973   -2.1618 H         1 <0>         0.1336
     37 H10         0.5385   -1.4870   -4.3144 H         1 <0>         0.1301
     38 H11        -0.7645   -0.7715   -2.3516 H         1 <0>         0.1275
     39 H12         2.0570   -2.0069    2.7491 H         1 <0>         0.1454
     40 H13         2.2777   -4.2217    3.7977 H         1 <0>         0.1356
     41 H14         0.2883   -5.3990    4.6326 H         1 <0>         0.1357
     42 H15         1.2517   -1.3309    1.0898 H         1 <0>         0.3397
     43 H16         0.2623    2.9044    3.4867 H         1 <0>         0.4095
@<TRIPOS>BOND
     1    1    2 1
     2    1   32 1
     3    1   33 1
     4    1   34 1
     5    2    3 1
     6    2    4 1
     7    2   11 1
     8    4    9 ar
     9    4    5 ar
    10    5    6 ar
    11    5   35 1
    12    6    7 ar
    13    6   36 1
    14    7    8 ar
    15    7   10 1
    16    8    9 ar
    17    8   37 1
    18    9   38 1
    19   11   12 1
    20   11   42 1
    21   12   13 1
    22   12   14 1
    23   12   28 1
    24   14   19 ar
    25   14   15 ar
    26   15   16 ar
    27   15   39 1
    28   16   17 ar
    29   16   40 1
    30   17   18 ar
    31   17   41 1
    32   18   26 1
    33   18   19 ar
    34   19   20 1
    35   20   21 1
    36   20   22 am
    37   22   23 2
    38   22   24 1
    39   24   25 2
    40   24   26 am
    41   26   27 1
    42   28   29 2
    43   28   30 1
    44   28   31 1
    45   30   43 1
@<TRIPOS>MOLECULE
ZINC13829433
   43    45     0     0     0
SMALL
USER_CHARGES

@<TRIPOS>ATOM
      1 C1          2.4622    0.9393    1.6978 C.3       1 <0>        -0.1319
      2 C2          1.2487    0.6754    0.8041 C.3       1 <0>         0.1190
      3 H1          0.4670    1.4009    1.0293 H         1 <0>         0.0579
      4 C3          1.6523    0.8045   -0.6421 C.ar      1 <0>        -0.0677
      5 C4          2.2965   -0.2418   -1.2757 C.ar      1 <0>        -0.0948
      6 C5          2.6664   -0.1240   -2.6022 C.ar      1 <0>        -0.0912
      7 C6          2.3921    1.0409   -3.2958 C.ar      1 <0>        -0.0919
      8 C7          1.7475    2.0876   -2.6613 C.ar      1 <0>        -0.0914
      9 C8          1.3732    1.9669   -1.3362 C.ar      1 <0>        -0.1028
     10 Br1         2.8985    1.2029   -5.1105 Br        1 <0>        -0.0593
     11 N1          0.7437   -0.6815    1.0523 N.3       1 <0>        -0.6565
     12 C9         -0.2039   -0.6935    2.1748 C.3       1 <0>        -0.4684
     13 H2         -0.1032    0.2299    2.7451 H         1 <0>         0.0867
     14 C10         0.0907   -1.8706    3.0685 C.ar      1 <0>        -0.0366
     15 C11         0.8585   -2.9172    2.5997 C.ar      1 <0>        -0.0675
     16 C12         1.1322   -4.0015    3.4159 C.ar      1 <0>        -0.1146
     17 C13         0.6393   -4.0437    4.7043 C.ar      1 <0>        -0.1291
     18 C14        -0.1349   -2.9951    5.1878 C.ar      1 <0>         0.1033
     19 C15        -0.4062   -1.8989    4.3666 C.ar      1 <0>         0.1281
     20 N2         -1.1751   -0.8368    4.8340 N.am      1 <0>        -0.6050
     21 C16        -1.6607   -0.8559    6.0919 C.2       1 <0>         0.5088
     22 C17        -1.3655   -2.0238    6.9714 C.2       1 <0>         0.5102
     23 N3         -0.6286   -3.0448    6.4885 N.am      1 <0>        -0.6293
     24 O1         -1.7934   -2.0598    8.1076 O.2       1 <0>        -0.4886
     25 O2         -2.3315    0.0688    6.5046 O.2       1 <0>        -0.4816
     26 P1         -1.9048   -0.8287    1.5328 P.3       1 <0>         2.2031
     27 O3         -2.0817   -2.1911    0.8260 O.2       1 <0>        -1.0616
     28 O4         -2.9072   -0.7219    2.7036 O.3       1 <0>        -1.0662
     29 O5         -2.1780    0.3603    0.4822 O.3       1 <0>        -0.8997
     30 H3          3.2085    0.1614    1.5362 H         1 <0>         0.0655
     31 H4          2.8907    1.9107    1.4512 H         1 <0>         0.0557
     32 H5          2.1520    0.9338    2.7427 H         1 <0>         0.0548
     33 H6          2.5110   -1.1512   -0.7340 H         1 <0>         0.1413
     34 H7          3.1700   -0.9413   -3.0971 H         1 <0>         0.1328
     35 H8          1.5331    2.9973   -3.2024 H         1 <0>         0.1317
     36 H9          0.8663    2.7825   -0.8420 H         1 <0>         0.1313
     37 H10         0.3238   -1.0689    0.2206 H         1 <0>         0.3476
     38 H11         1.2470   -2.8906    1.5924 H         1 <0>         0.1398
     39 H12         1.7333   -4.8175    3.0429 H         1 <0>         0.1296
     40 H13         0.8548   -4.8919    5.3372 H         1 <0>         0.1315
     41 H14        -3.0659    0.3507    0.0994 H         1 <0>         0.4169
     42 H15        -0.4318   -3.8092    7.0523 H         1 <0>         0.4167
     43 H16        -1.3615   -0.0819    4.2543 H         1 <0>         0.4234
@<TRIPOS>BOND
     1    1    2 1
     2    1   30 1
     3    1   31 1
     4    1   32 1
     5    2    3 1
     6    2    4 1
     7    2   11 1
     8    4    9 ar
     9    4    5 ar
    10    5    6 ar
    11    5   33 1
    12    6    7 ar
    13    6   34 1
    14    7    8 ar
    15    7   10 1
    16    8    9 ar
    17    8   35 1
    18    9   36 1
    19   11   12 1
    20   11   37 1
    21   12   13 1
    22   12   14 1
    23   12   26 1
    24   14   19 ar
    25   14   15 ar
    26   15   16 ar
    27   15   38 1
    28   16   17 ar
    29   16   39 1
    30   17   18 ar
    31   17   40 1
    32   18   23 1
    33   18   19 ar
    34   19   20 1
    35   20   21 am
    36   20   43 1
    37   21   22 1
    38   21   25 2
    39   22   23 am
    40   22   24 2
    41   23   42 1
    42   26   27 2
    43   26   28 1
    44   26   29 1
    45   29   41 1
@<TRIPOS>MOLECULE
ZINC19632753
   29    28     0     0     0
SMALL
USER_CHARGES

@<TRIPOS>ATOM
      1 C1         -0.0187    1.5258    0.0104 C.3       1 <0>        -0.1166
      2 C2          0.0021   -0.0041    0.0020 C.3       1 <0>        -0.1322
      3 C3         -1.4333   -0.5336    0.0129 C.3       1 <0>        -0.1273
      4 C4         -1.4126   -2.0635    0.0045 C.3       1 <0>        -0.0483
      5 H1         -0.8102   -2.4233    0.8386 H         1 <0>         0.1330
      6 C5         -2.8198   -2.5857    0.1389 C.2       1 <0>         0.4896
      7 O1         -3.4911   -2.7925   -0.8576 O.co2     1 <0>        -0.6734
      8 O2         -3.2870   -2.8013    1.2443 O.co2     1 <0>        -0.6411
      9 N1         -0.8327   -2.5384   -1.2589 N.4       1 <0>        -0.6145
     10 C6          1.4167    2.0553   -0.0004 C.3       1 <0>        -0.0935
     11 C7          1.3960    3.5852    0.0080 C.3       1 <0>        -0.7309
     12 P1          3.1062    4.2162   -0.0050 P.3       1 <0>         2.2581
     13 O3          3.8899    3.6042    1.1776 O.2       1 <0>        -1.0979
     14 O4          3.7898    3.8240   -1.3338 O.3       1 <0>        -1.0994
     15 O5          3.0877    5.8199    0.1361 O.3       1 <0>        -0.9057
     16 H2         -0.5459    1.8868   -0.8726 H         1 <0>         0.0572
     17 H3         -0.5289    1.8773    0.9072 H         1 <0>         0.0611
     18 H4          0.5123   -0.3556   -0.8948 H         1 <0>         0.0555
     19 H5          0.5293   -0.3651    0.8851 H         1 <0>         0.0766
     20 H6         -1.9435   -0.1821    0.9097 H         1 <0>         0.1036
     21 H7         -1.9605   -0.1726   -0.8702 H         1 <0>         0.0813
     22 H8         -1.3902   -2.2053   -2.0311 H         1 <0>         0.4317
     23 H9          0.1095   -2.1887   -1.3490 H         1 <0>         0.4169
     24 H10         1.9439    1.6943    0.8826 H         1 <0>         0.0733
     25 H11         1.9269    1.7038   -0.8972 H         1 <0>         0.0677
     26 H12         0.8688    3.9463   -0.8751 H         1 <0>         0.0681
     27 H13         0.8858    3.9367    0.9048 H         1 <0>         0.0678
     28 H14         3.9658    6.2249    0.1366 H         1 <0>         0.4121
     29 H15        -0.8190   -3.5473   -1.2645 H         1 <0>         0.4273
@<TRIPOS>BOND
     1    1    2 1
     2    1   10 1
     3    1   16 1
     4    1   17 1
     5    2    3 1
     6    2   18 1
     7    2   19 1
     8    3    4 1
     9    3   20 1
    10    3   21 1
    11    4    5 1
    12    4    6 1
    13    4    9 1
    14    6    7 2
    15    6    8 1
    16    9   22 1
    17    9   23 1
    18    9   29 1
    19   10   11 1
    20   10   24 1
    21   10   25 1
    22   11   12 1
    23   11   26 1
    24   11   27 1
    25   12   13 2
    26   12   14 1
    27   12   15 1
    28   15   28 1
@<TRIPOS>MOLECULE
ZINC19632758
   29    28     0     0     0
SMALL
USER_CHARGES

@<TRIPOS>ATOM
      1 C1         -0.0187    1.5258    0.0104 C.3       1 <0>        -0.1166
      2 C2          0.0021   -0.0041    0.0020 C.3       1 <0>        -0.1324
      3 C3         -1.4333   -0.5336    0.0129 C.3       1 <0>        -0.1263
      4 C4         -1.4126   -2.0635    0.0045 C.3       1 <0>        -0.0493
      5 H1         -0.8263   -2.4142   -0.8449 H         1 <0>         0.1336
      6 C5         -2.8221   -2.5844   -0.1087 C.2       1 <0>         0.4915
      7 O1         -3.4399   -2.4497   -1.1512 O.co2     1 <0>        -0.6389
      8 O2         -3.3448   -3.1404    0.8422 O.co2     1 <0>        -0.6788
      9 N1         -0.8087   -2.5519    1.2514 N.4       1 <0>        -0.6130
     10 C6          1.4167    2.0553   -0.0004 C.3       1 <0>        -0.0935
     11 C7          1.3960    3.5852    0.0080 C.3       1 <0>        -0.7309
     12 P1          3.1062    4.2162   -0.0050 P.3       1 <0>         2.2581
     13 O3          3.8899    3.6042    1.1776 O.2       1 <0>        -1.0989
     14 O4          3.7898    3.8240   -1.3338 O.3       1 <0>        -1.0984
     15 O5          3.0877    5.8199    0.1361 O.3       1 <0>        -0.9057
     16 H2         -0.5459    1.8868   -0.8726 H         1 <0>         0.0615
     17 H3         -0.5289    1.8773    0.9072 H         1 <0>         0.0567
     18 H4          0.5123   -0.3556   -0.8948 H         1 <0>         0.0764
     19 H5          0.5293   -0.3651    0.8851 H         1 <0>         0.0551
     20 H6         -1.9435   -0.1821    0.9097 H         1 <0>         0.0781
     21 H7         -1.9605   -0.1726   -0.8702 H         1 <0>         0.1075
     22 H8         -1.3514   -2.2272    2.0376 H         1 <0>         0.4301
     23 H9         -0.7950   -3.5608    1.2458 H         1 <0>         0.4289
     24 H10         1.9439    1.6943    0.8826 H         1 <0>         0.0705
     25 H11         1.9269    1.7038   -0.8972 H         1 <0>         0.0703
     26 H12         0.8688    3.9463   -0.8751 H         1 <0>         0.0695
     27 H13         0.8858    3.9367    0.9048 H         1 <0>         0.0664
     28 H14         3.9658    6.2249    0.1366 H         1 <0>         0.4121
     29 H15         0.1351   -2.2031    1.3272 H         1 <0>         0.4163
@<TRIPOS>BOND
     1    1    2 1
     2    1   10 1
     3    1   16 1
     4    1   17 1
     5    2    3 1
     6    2   18 1
     7    2   19 1
     8    3    4 1
     9    3   20 1
    10    3   21 1
    11    4    5 1
    12    4    6 1
    13    4    9 1
    14    6    7 2
    15    6    8 1
    16    9   22 1
    17    9   23 1
    18    9   29 1
    19   10   11 1
    20   10   24 1
    21   10   25 1
    22   11   12 1
    23   11   26 1
    24   11   27 1
    25   12   13 2
    26   12   14 1
    27   12   15 1
    28   15   28 1
@<TRIPOS>MOLECULE
ZINC19632959
   23    22     0     0     0
SMALL
USER_CHARGES

@<TRIPOS>ATOM
      1 C1         -0.0187    1.5258    0.0104 C.3       1 <0>        -0.1033
      2 C2          0.0021   -0.0041    0.0020 C.3       1 <0>        -0.1242
      3 C3         -1.4333   -0.5336    0.0129 C.3       1 <0>        -0.0486
      4 H1         -1.9862   -0.1019   -0.8214 H         1 <0>         0.1341
      5 C4         -1.4159   -2.0348   -0.1192 C.2       1 <0>         0.4914
      6 O1         -1.3670   -2.7340    0.8784 O.co2     1 <0>        -0.6757
      7 O2         -1.4508   -2.5500   -1.2236 O.co2     1 <0>        -0.6432
      8 N1         -2.0833   -0.1607    1.2764 N.4       1 <0>        -0.6142
      9 C5          1.4167    2.0553   -0.0004 C.3       1 <0>        -0.7315
     10 P1          1.3920    3.8782    0.0096 P.3       1 <0>         2.2590
     11 O3          0.5382    4.3881   -1.1728 O.2       1 <0>        -1.0962
     12 O4          0.7821    4.3776    1.3383 O.3       1 <0>        -1.0992
     13 O5          2.8954    4.4361   -0.1340 O.3       1 <0>        -0.9050
     14 H2         -0.5459    1.8868   -0.8726 H         1 <0>         0.0844
     15 H3         -0.5289    1.8773    0.9072 H         1 <0>         0.0608
     16 H4          0.5123   -0.3556   -0.8948 H         1 <0>         0.0978
     17 H5          0.5293   -0.3651    0.8851 H         1 <0>         0.0754
     18 H6         -2.0949    0.8443    1.3648 H         1 <0>         0.4208
     19 H7         -3.0299   -0.5100    1.2835 H         1 <0>         0.4258
     20 H8          1.9439    1.6943    0.8826 H         1 <0>         0.0727
     21 H9          1.9269    1.7038   -0.8972 H         1 <0>         0.0753
     22 H10         2.9583    5.4010   -0.1361 H         1 <0>         0.4133
     23 H11        -1.5715   -0.5604    2.0487 H         1 <0>         0.4306
@<TRIPOS>BOND
     1    1    2 1
     2    1    9 1
     3    1   14 1
     4    1   15 1
     5    2    3 1
     6    2   16 1
     7    2   17 1
     8    3    4 1
     9    3    5 1
    10    3    8 1
    11    5    6 2
    12    5    7 1
    13    8   18 1
    14    8   19 1
    15    8   23 1
    16    9   10 1
    17    9   20 1
    18    9   21 1
    19   10   11 2
    20   10   12 1
    21   10   13 1
    22   13   22 1
@<TRIPOS>MOLECULE
ZINC19943047
   23    22     0     0     0
SMALL
USER_CHARGES

@<TRIPOS>ATOM
      1 C1         -0.0187    1.5258    0.0104 C.3       1 <0>        -0.1037
      2 C2          0.0021   -0.0041    0.0020 C.3       1 <0>        -0.1232
      3 C3         -1.4333   -0.5336    0.0129 C.3       1 <0>        -0.0495
      4 H1         -1.9701   -0.1109    0.8621 H         1 <0>         0.1346
      5 C4         -1.4136   -2.0361    0.1285 C.2       1 <0>         0.4933
      6 O1         -1.0650   -2.5627    1.1714 O.co2     1 <0>        -0.6411
      7 O2         -1.7461   -2.7250   -0.8209 O.co2     1 <0>        -0.6809
      8 N1         -2.1072   -0.1473   -1.2339 N.4       1 <0>        -0.6128
      9 C5          1.4167    2.0553   -0.0004 C.3       1 <0>        -0.7314
     10 P1          1.3920    3.8782    0.0096 P.3       1 <0>         2.2590
     11 O3          0.5382    4.3881   -1.1728 O.2       1 <0>        -1.0990
     12 O4          0.7821    4.3776    1.3383 O.3       1 <0>        -1.0965
     13 O5          2.8954    4.4361   -0.1340 O.3       1 <0>        -0.9051
     14 H2         -0.5459    1.8868   -0.8726 H         1 <0>         0.0633
     15 H3         -0.5289    1.8773    0.9072 H         1 <0>         0.0815
     16 H4          0.5123   -0.3556   -0.8948 H         1 <0>         0.0721
     17 H5          0.5293   -0.3651    0.8851 H         1 <0>         0.1018
     18 H6         -3.0538   -0.4965   -1.2267 H         1 <0>         0.4273
     19 H7         -2.1205    0.8587   -1.3113 H         1 <0>         0.4204
     20 H8          1.9439    1.6943    0.8826 H         1 <0>         0.0772
     21 H9          1.9269    1.7038   -0.8972 H         1 <0>         0.0707
     22 H10         2.9583    5.4010   -0.1361 H         1 <0>         0.4133
     23 H11        -1.6103   -0.5386   -2.0201 H         1 <0>         0.4288
@<TRIPOS>BOND
     1    1    2 1
     2    1    9 1
     3    1   14 1
     4    1   15 1
     5    2    3 1
     6    2   16 1
     7    2   17 1
     8    3    4 1
     9    3    5 1
    10    3    8 1
    11    5    6 2
    12    5    7 1
    13    8   18 1
    14    8   19 1
    15    8   23 1
    16    9   10 1
    17    9   20 1
    18    9   21 1
    19   10   11 2
    20   10   12 1
    21   10   13 1
    22   13   22 1
@<TRIPOS>MOLECULE
ZINC13642335
   45    48     0     0     0
SMALL
USER_CHARGES

@<TRIPOS>ATOM
      1 C1          0.0042    1.3974   -0.0653 C.ar      1 <0>        -0.1159
      2 C2          1.1699    2.0869   -0.3785 C.ar      1 <0>        -0.1165
      3 C3          2.3768    1.4479   -0.3932 C.ar      1 <0>        -0.1021
      4 C4          2.4423    0.0862   -0.0898 C.ar      1 <0>        -0.0426
      5 C5          1.2592   -0.6183    0.2297 C.ar      1 <0>        -0.0439
      6 C6          0.0362    0.0673    0.2354 C.ar      1 <0>        -0.1062
      7 C7          1.3213   -1.9973    0.5365 C.ar      1 <0>        -0.1102
      8 C8          2.4920   -2.6660    0.5324 C.ar      1 <0>        -0.0919
      9 C9          3.7108   -2.0181    0.2211 C.ar      1 <0>        -0.0575
     10 C10         3.7155   -0.6394   -0.0939 C.ar      1 <0>        -0.0203
     11 C11         4.9178    0.0036   -0.4023 C.ar      1 <0>        -0.1130
     12 C12         6.0865   -0.6961   -0.3989 C.ar      1 <0>        -0.0812
     13 C13         6.0992   -2.0641   -0.0880 C.ar      1 <0>        -0.1189
     14 C14         4.9187   -2.7255    0.2209 C.ar      1 <0>        -0.0423
     15 C15         7.3775   -2.8059   -0.0906 C.2       1 <0>         0.5600
     16 O1          7.4220   -3.9386   -0.5297 O.2       1 <0>        -0.5289
     17 N1          8.4938   -2.2266    0.3938 N.am      1 <0>        -0.5871
     18 C16         8.4381   -0.9113    1.0496 C.3       1 <0>         0.0523
     19 C17         9.1480   -1.0120    2.4038 C.3       1 <0>         0.0406
     20 N2         10.5004   -1.5503    2.2053 N.3       1 <0>        -0.6539
     21 C18        10.4565   -2.9157    1.6653 C.3       1 <0>         0.0190
     22 H1          9.8757   -3.5523    2.3327 H         1 <0>         0.0950
     23 C19         9.7992   -2.8957    0.2862 C.3       1 <0>         0.1291
     24 H2          9.6589   -3.9177   -0.0660 H         1 <0>         0.1400
     25 C20        10.6774   -2.1401   -0.6776 C.2       1 <0>         0.4825
     26 O2         10.4318   -0.9870   -0.9420 O.2       1 <0>        -0.5305
     27 O3         11.7325   -2.7481   -1.2423 O.3       1 <0>        -0.4716
     28 C21        11.8585   -3.4558    1.5489 C.2       1 <0>         0.5056
     29 O4         12.8069   -2.7671    1.8848 O.co2     1 <0>        -0.6717
     30 O5         12.0445   -4.5814    1.1189 O.co2     1 <0>        -0.6794
     31 H3         -0.9392    1.9231   -0.0555 H         1 <0>         0.1235
     32 H4          1.1205    3.1399   -0.6133 H         1 <0>         0.1248
     33 H5          3.2763    1.9929   -0.6386 H         1 <0>         0.1291
     34 H6         -0.8772   -0.4559    0.4769 H         1 <0>         0.1277
     35 H7          0.4115   -2.5261    0.7795 H         1 <0>         0.1278
     36 H8          2.4997   -3.7189    0.7723 H         1 <0>         0.1302
     37 H9          4.9201    1.0562   -0.6439 H         1 <0>         0.1340
     38 H10         7.0119   -0.1932   -0.6381 H         1 <0>         0.1378
     39 H11         4.9321   -3.7786    0.4597 H         1 <0>         0.1402
     40 H12         8.9399   -0.1703    0.4273 H         1 <0>         0.0896
     41 H13         7.3983   -0.6219    1.2019 H         1 <0>         0.0925
     42 H14         9.2133   -0.0219    2.8549 H         1 <0>         0.0860
     43 H15         8.5855   -1.6752    3.0610 H         1 <0>         0.0737
     44 H16        11.0473   -0.9443    1.6123 H         1 <0>         0.3460
     45 H17        12.2352   -2.1838   -1.8455 H         1 <0>         0.3987
@<TRIPOS>BOND
     1    1    6 ar
     2    1    2 ar
     3    1   31 1
     4    2    3 ar
     5    2   32 1
     6    3    4 ar
     7    3   33 1
     8    4   10 ar
     9    4    5 ar
    10    5    6 ar
    11    5    7 ar
    12    6   34 1
    13    7    8 ar
    14    7   35 1
    15    8    9 ar
    16    8   36 1
    17    9   14 ar
    18    9   10 ar
    19   10   11 ar
    20   11   12 ar
    21   11   37 1
    22   12   13 ar
    23   12   38 1
    24   13   14 ar
    25   13   15 1
    26   14   39 1
    27   15   16 2
    28   15   17 am
    29   17   23 1
    30   17   18 1
    31   18   19 1
    32   18   40 1
    33   18   41 1
    34   19   20 1
    35   19   42 1
    36   19   43 1
    37   20   21 1
    38   20   44 1
    39   21   22 1
    40   21   23 1
    41   21   28 1
    42   23   24 1
    43   23   25 1
    44   25   26 2
    45   25   27 1
    46   27   45 1
    47   28   29 2
    48   28   30 1
@<TRIPOS>MOLECULE
ZINC28768623
   27    27     0     0     0
SMALL
USER_CHARGES
(2S,4R)-4-(phosphonomethyl)piperidine-2-carboxylic acid
@<TRIPOS>ATOM
      1 C1         -1.3745   -2.5417   -1.5677 C.3       1 <0>        -0.1674
      2 C2         -1.4183   -4.0649   -1.7090 C.3       1 <0>         0.0024
      3 N1         -2.7510   -4.5544   -1.3342 N.4       1 <0>        -0.5170
      4 C3         -3.0574   -4.2401    0.0671 C.3       1 <0>        -0.0095
      5 H1         -2.2856   -4.7142    0.6913 H         1 <0>         0.1270
      6 C4         -3.0626   -2.7222    0.2615 C.3       1 <0>        -0.1168
      7 C5         -1.6905   -2.1591   -0.1191 C.3       1 <0>        -0.0753
      8 H2         -0.9216   -2.5732    0.5497 H         1 <0>         0.0782
      9 C6         -1.7082   -0.6351    0.0149 C.3       1 <0>        -0.7309
     10 P1          0.0021   -0.0041    0.0020 P.3       1 <0>         2.2817
     11 O1          0.6948   -0.4814   -1.2156 O.2       1 <0>        -1.0838
     12 O2         -0.0198    1.6058    0.0109 O.3       1 <0>        -1.1192
     13 O3          0.7807   -0.5374    1.3064 O.3       1 <0>        -0.9391
     14 C7         -4.4124   -4.7964    0.4218 C.2       1 <0>         0.4598
     15 O4         -5.2035   -5.0629   -0.4516 O.co2     1 <0>        -0.6242
     16 O5         -4.7403   -4.9958    1.7081 O.co2     1 <0>        -0.7122
     17 H3         -2.1197   -2.0880   -2.2377 H         1 <0>         0.0765
     18 H4         -0.3717   -2.1757   -1.8332 H         1 <0>         0.1550
     19 H5         -1.2061   -4.3426   -2.7520 H         1 <0>         0.1238
     20 H6         -0.6633   -4.5163   -1.0486 H         1 <0>         0.1187
     21 H7         -3.5093   -4.0797   -1.9742 H         1 <0>         0.4435
     22 H8         -3.8358   -2.2731   -0.3792 H         1 <0>         0.0761
     23 H9         -3.2777   -2.4881    1.3146 H         1 <0>         0.0998
     24 H10        -2.2661   -0.1995   -0.8271 H         1 <0>         0.0895
     25 H11        -2.1950   -0.3558    0.9610 H         1 <0>         0.0777
     26 H12         1.8317   -0.2583    1.4720 H         1 <0>         0.4463
     27 H13        -2.7912   -5.6457   -1.4659 H         1 <0>         0.4396
@<TRIPOS>BOND
     1    1    7 1
     2    1    2 1
     3    1   17 1
     4    1   18 1
     5    2    3 1
     6    2   19 1
     7    2   20 1
     8    3    4 1
     9    3   21 1
    10    3   27 1
    11    4    5 1
    12    4    6 1
    13    4   14 1
    14    6    7 1
    15    6   22 1
    16    6   23 1
    17    7    8 1
    18    7    9 1
    19    9   10 1
    20    9   24 1
    21    9   25 1
    22   10   11 2
    23   10   12 1
    24   10   13 1
    25   13   26 1
    26   14   15 2
    27   14   16 1
@<TRIPOS>MOLECULE
ZINC13642369
   45    48     0     0     0
SMALL
USER_CHARGES

@<TRIPOS>ATOM
      1 C1          1.8952    0.2071    6.1843 C.ar      1 <0>        -0.1160
      2 C2          3.0757    0.9177    6.0014 C.ar      1 <0>        -0.1167
      3 C3          4.0749    0.4213    5.2137 C.ar      1 <0>        -0.1021
      4 C4          3.9104   -0.8147    4.5846 C.ar      1 <0>        -0.0428
      5 C5          2.7115   -1.5406    4.7685 C.ar      1 <0>        -0.0438
      6 C6          1.7051   -1.0025    5.5831 C.ar      1 <0>        -0.1061
      7 C7          2.5406   -2.7919    4.1324 C.ar      1 <0>        -0.1103
      8 C8          3.5015   -3.3173    3.3461 C.ar      1 <0>        -0.0916
      9 C9          4.7238   -2.6405    3.1221 C.ar      1 <0>        -0.0568
     10 C10         4.9558   -1.3850    3.7306 C.ar      1 <0>        -0.0215
     11 C11         6.1620   -0.7136    3.5111 C.ar      1 <0>        -0.1119
     12 C12         7.1160   -1.2675    2.7120 C.ar      1 <0>        -0.1114
     13 C13         6.9018   -2.5123    2.1015 C.ar      1 <0>        -0.1167
     14 C14         5.7124   -3.1985    2.3031 C.ar      1 <0>        -0.0372
     15 C15         7.9489   -3.0961    1.2371 C.2       1 <0>         0.5503
     16 O1          8.0360   -4.3028    1.1183 O.2       1 <0>        -0.5128
     17 N1          8.8072   -2.2906    0.5805 N.am      1 <0>        -0.5941
     18 C16         8.7620   -0.8317    0.7617 C.3       1 <0>         0.0703
     19 C17         8.7050   -0.1712   -0.6199 C.3       1 <0>         0.0354
     20 N2          9.8212   -0.6611   -1.4397 N.3       1 <0>        -0.6590
     21 C18         9.7154   -2.1074   -1.6745 C.3       1 <0>         0.0200
     22 H1          8.7573   -2.3305   -2.1438 H         1 <0>         0.0486
     23 C19         9.8178   -2.8477   -0.3314 C.3       1 <0>         0.1793
     24 H2         10.8117   -2.7064    0.0932 H         1 <0>         0.1049
     25 C20         9.5563   -4.3171   -0.5401 C.2       1 <0>         0.5184
     26 O2          8.5088   -4.6823   -1.0189 O.2       1 <0>        -0.5086
     27 O3         10.4871   -5.2202   -0.1940 O.3       1 <0>        -0.5034
     28 C21        10.8347   -2.5532   -2.5796 C.2       1 <0>         0.4983
     29 O4         11.7463   -1.7879   -2.8442 O.co2     1 <0>        -0.6692
     30 O5         10.8289   -3.6791   -3.0473 O.co2     1 <0>        -0.6828
     31 H3          1.1195    0.6163    6.8146 H         1 <0>         0.1234
     32 H4          3.2042    1.8736    6.4874 H         1 <0>         0.1249
     33 H5          4.9879    0.9819    5.0778 H         1 <0>         0.1294
     34 H6          0.7828   -1.5438    5.7340 H         1 <0>         0.1276
     35 H7          1.6209   -3.3385    4.2799 H         1 <0>         0.1279
     36 H8          3.3349   -4.2758    2.8772 H         1 <0>         0.1304
     37 H9          6.3377    0.2456    3.9753 H         1 <0>         0.1353
     38 H10         8.0457   -0.7434    2.5466 H         1 <0>         0.1631
     39 H11         5.5507   -4.1565    1.8315 H         1 <0>         0.1419
     40 H12         7.8746   -0.5611    1.3338 H         1 <0>         0.1259
     41 H13         9.6564   -0.5004    1.2893 H         1 <0>         0.0856
     42 H14         7.7610   -0.4214   -1.1040 H         1 <0>         0.0303
     43 H15         8.7822    0.9104   -0.5094 H         1 <0>         0.0868
     44 H16         9.8781   -0.1565   -2.3116 H         1 <0>         0.3558
     45 H17        10.2292   -6.1363   -0.3653 H         1 <0>         0.4011
@<TRIPOS>BOND
     1    1    6 ar
     2    1    2 ar
     3    1   31 1
     4    2    3 ar
     5    2   32 1
     6    3    4 ar
     7    3   33 1
     8    4   10 ar
     9    4    5 ar
    10    5    6 ar
    11    5    7 ar
    12    6   34 1
    13    7    8 ar
    14    7   35 1
    15    8    9 ar
    16    8   36 1
    17    9   14 ar
    18    9   10 ar
    19   10   11 ar
    20   11   12 ar
    21   11   37 1
    22   12   13 ar
    23   12   38 1
    24   13   14 ar
    25   13   15 1
    26   14   39 1
    27   15   16 2
    28   15   17 am
    29   17   23 1
    30   17   18 1
    31   18   19 1
    32   18   40 1
    33   18   41 1
    34   19   20 1
    35   19   42 1
    36   19   43 1
    37   20   21 1
    38   20   44 1
    39   21   22 1
    40   21   23 1
    41   21   28 1
    42   23   24 1
    43   23   25 1
    44   25   26 2
    45   25   27 1
    46   27   45 1
    47   28   29 2
    48   28   30 1
@<TRIPOS>MOLECULE
ZINC00895124
   18    17     0     0     0
SMALL
USER_CHARGES

@<TRIPOS>ATOM
      1 C1         -0.0187    1.5258    0.0104 C.3       1 <0>        -0.1010
      2 C2          0.0021   -0.0041    0.0020 C.3       1 <0>        -0.1959
      3 C3         -1.4117   -0.5257    0.0127 C.2       1 <0>         0.4893
      4 O1         -2.3491    0.2539    0.0259 O.co2     1 <0>        -0.6871
      5 O2         -1.6182   -1.7273    0.0082 O.co2     1 <0>        -0.7016
      6 C4          1.4167    2.0553   -0.0004 C.3       1 <0>        -0.0510
      7 H1          1.9696    1.6236    0.8338 H         1 <0>         0.1263
      8 C5          1.3993    3.5565    0.1316 C.2       1 <0>         0.4931
      9 O3          1.4342    4.0717    1.2361 O.co2     1 <0>        -0.6465
     10 O4          1.3504    4.2557   -0.8660 O.co2     1 <0>        -0.6784
     11 N1          2.0667    1.6824   -1.2639 N.4       1 <0>        -0.6121
     12 H2         -0.5459    1.8868   -0.8726 H         1 <0>         0.0805
     13 H3         -0.5289    1.8773    0.9072 H         1 <0>         0.1026
     14 H4          0.5123   -0.3556   -0.8948 H         1 <0>         0.0475
     15 H5          0.5293   -0.3651    0.8851 H         1 <0>         0.0673
     16 H6          3.0133    2.0317   -1.2711 H         1 <0>         0.4211
     17 H7          2.0783    0.6774   -1.3524 H         1 <0>         0.4148
     18 H8          1.5549    2.0821   -2.0362 H         1 <0>         0.4310
@<TRIPOS>BOND
     1    1    2 1
     2    1    6 1
     3    1   12 1
     4    1   13 1
     5    2    3 1
     6    2   14 1
     7    2   15 1
     8    3    4 2
     9    3    5 1
    10    6    7 1
    11    6    8 1
    12    6   11 1
    13    8    9 2
    14    8   10 1
    15   11   16 1
    16   11   17 1
    17   11   18 1
