@<TRIPOS>MOLECULE
ZINC04008294
   50    51     0     0     0
SMALL
USER_CHARGES

@<TRIPOS>ATOM
      1 C1         -0.0187    1.5258    0.0104 C.3       1 <0>        -0.1543
      2 C2          0.0021   -0.0041    0.0020 C.3       1 <0>         0.0601
      3 O1          0.6709   -0.4649   -1.1737 O.3       1 <0>        -0.3386
      4 C3          0.7760   -1.7999   -1.3349 C.2       1 <0>         0.5499
      5 O2          0.3119   -2.5517   -0.4993 O.2       1 <0>        -0.4769
      6 C4          1.4498   -2.3449   -2.5179 C.2       1 <0>        -0.0320
      7 C5          1.6111   -3.6662   -2.7901 C.2       1 <0>        -0.0419
      8 C6          2.3085   -3.7511   -4.0206 C.ar      1 <0>        -0.1667
      9 C7          2.5382   -2.4275   -4.4387 C.ar      1 <0>         0.1185
     10 O3          2.0016   -1.6106   -3.5094 O.3       1 <0>        -0.1572
     11 C8          3.2121   -2.1950   -5.6308 C.ar      1 <0>        -0.1407
     12 C9          3.6507   -3.2552   -6.3961 C.ar      1 <0>        -0.0351
     13 C10         3.4278   -4.5621   -5.9910 C.ar      1 <0>        -0.2355
     14 C11         2.7601   -4.8211   -4.8086 C.ar      1 <0>         0.1885
     15 O4          2.5432   -6.1012   -4.4123 O.3       1 <0>        -0.2912
     16 C12         3.0324   -7.1366   -5.2670 C.3       1 <0>         0.0260
     17 C13         2.6967   -8.5003   -4.6598 C.3       1 <0>         0.0861
     18 H1          1.6245   -8.5609   -4.4733 H         1 <0>         0.1356
     19 C14         3.1086   -9.6071   -5.6326 C.3       1 <0>        -0.0455
     20 N1          2.6787  -10.9085   -5.1040 N.4       1 <0>        -0.5026
     21 C15         3.0741  -11.9712   -6.0380 C.3       1 <0>         0.0239
     22 C16         4.6007  -12.0469   -6.1077 C.3       1 <0>        -0.1863
     23 C17         2.5188  -13.3110   -5.5509 C.3       1 <0>        -0.1855
     24 O5          3.4041   -8.6607   -3.4286 O.3       1 <0>        -0.5417
     25 C18         1.1392   -4.8208   -1.9444 C.3       1 <0>        -0.0980
     26 H2          1.0039    1.9031    0.0027 H         1 <0>         0.0690
     27 H3         -0.5459    1.8868   -0.8726 H         1 <0>         0.0689
     28 H4         -0.5289    1.8773    0.9072 H         1 <0>         0.0852
     29 H5          0.5293   -0.3651    0.8851 H         1 <0>         0.0736
     30 H6         -1.0205   -0.3814    0.0098 H         1 <0>         0.0736
     31 H7          3.3926   -1.1821   -5.9592 H         1 <0>         0.1450
     32 H8          4.1736   -3.0652   -7.3218 H         1 <0>         0.1467
     33 H9          3.7773   -5.3814   -6.6017 H         1 <0>         0.1356
     34 H10         2.5639   -7.0502   -6.2474 H         1 <0>         0.0857
     35 H11         4.1132   -7.0415   -5.3712 H         1 <0>         0.0811
     36 H12         2.6374   -9.4343   -6.6002 H         1 <0>         0.1466
     37 H13         4.1922   -9.6027   -5.7502 H         1 <0>         0.1414
     38 H14         3.1148  -11.0685   -4.2083 H         1 <0>         0.4320
     39 H15         2.6757  -11.7512   -7.0284 H         1 <0>         0.1399
     40 H16         4.8941  -12.8354   -6.8007 H         1 <0>         0.1080
     41 H17         4.9963  -11.0923   -6.4547 H         1 <0>         0.0796
     42 H18         4.9991  -12.2668   -5.1172 H         1 <0>         0.0835
     43 H19         1.4312  -13.2571   -5.5012 H         1 <0>         0.0831
     44 H20         2.8122  -14.0995   -6.2439 H         1 <0>         0.1084
     45 H21         2.9172  -13.5310   -4.5604 H         1 <0>         0.0830
     46 H22         4.3659   -8.6176   -3.5191 H         1 <0>         0.3906
     47 H23         0.1311   -5.1044   -2.2468 H         1 <0>         0.0804
     48 H24         1.8111   -5.6685   -2.0794 H         1 <0>         0.0787
     49 H25         1.1342   -4.5247   -0.8955 H         1 <0>         0.0910
     50 H26         1.6756  -10.9126   -4.9951 H         1 <0>         0.4306
@<TRIPOS>BOND
     1    1    2 1
     2    1   26 1
     3    1   27 1
     4    1   28 1
     5    2    3 1
     6    2   29 1
     7    2   30 1
     8    3    4 1
     9    4    5 2
    10    4    6 1
    11    6   10 1
    12    6    7 2
    13    7    8 1
    14    7   25 1
    15    8   14 ar
    16    8    9 ar
    17    9   10 1
    18    9   11 ar
    19   11   12 ar
    20   11   31 1
    21   12   13 ar
    22   12   32 1
    23   13   14 ar
    24   13   33 1
    25   14   15 1
    26   15   16 1
    27   16   17 1
    28   16   34 1
    29   16   35 1
    30   17   18 1
    31   17   19 1
    32   17   24 1
    33   19   20 1
    34   19   36 1
    35   19   37 1
    36   20   21 1
    37   20   38 1
    38   20   50 1
    39   21   22 1
    40   21   23 1
    41   21   39 1
    42   22   40 1
    43   22   41 1
    44   22   42 1
    45   23   43 1
    46   23   44 1
    47   23   45 1
    48   24   46 1
    49   25   47 1
    50   25   48 1
    51   25   49 1
@<TRIPOS>MOLECULE
ZINC04008295
   50    51     0     0     0
SMALL
USER_CHARGES

@<TRIPOS>ATOM
      1 C1         -0.0187    1.5258    0.0104 C.3       1 <0>        -0.1544
      2 C2          0.0021   -0.0041    0.0020 C.3       1 <0>         0.0601
      3 O1          0.6709   -0.4649   -1.1737 O.3       1 <0>        -0.3385
      4 C3          0.7760   -1.7999   -1.3349 C.2       1 <0>         0.5499
      5 O2          0.3119   -2.5517   -0.4993 O.2       1 <0>        -0.4770
      6 C4          1.4498   -2.3449   -2.5179 C.2       1 <0>        -0.0320
      7 C5          1.6111   -3.6662   -2.7901 C.2       1 <0>        -0.0420
      8 C6          2.3085   -3.7511   -4.0206 C.ar      1 <0>        -0.1667
      9 C7          2.5382   -2.4275   -4.4387 C.ar      1 <0>         0.1185
     10 O3          2.0016   -1.6106   -3.5094 O.3       1 <0>        -0.1572
     11 C8          3.2121   -2.1950   -5.6308 C.ar      1 <0>        -0.1407
     12 C9          3.6507   -3.2552   -6.3961 C.ar      1 <0>        -0.0351
     13 C10         3.4278   -4.5621   -5.9910 C.ar      1 <0>        -0.2355
     14 C11         2.7601   -4.8211   -4.8086 C.ar      1 <0>         0.1885
     15 O4          2.5432   -6.1012   -4.4123 O.3       1 <0>        -0.2911
     16 C12         3.0324   -7.1366   -5.2670 C.3       1 <0>         0.0260
     17 C13         2.6967   -8.5003   -4.6598 C.3       1 <0>         0.0860
     18 H1          3.0900   -8.5527   -3.6446 H         1 <0>         0.1362
     19 C14         3.3274   -9.6058   -5.5088 C.3       1 <0>        -0.0456
     20 N1          3.0051  -10.9151   -4.9258 N.4       1 <0>        -0.5020
     21 C15         3.6107  -11.9766   -5.7409 C.3       1 <0>         0.0242
     22 C16         5.1351  -11.8665   -5.6708 C.3       1 <0>        -0.1868
     23 C17         3.1729  -13.3420   -5.2073 C.3       1 <0>        -0.1854
     24 O5          1.2784   -8.6726   -4.6307 O.3       1 <0>        -0.5424
     25 C18         1.1392   -4.8208   -1.9444 C.3       1 <0>        -0.0964
     26 H2          1.0039    1.9031    0.0027 H         1 <0>         0.0690
     27 H3         -0.5459    1.8868   -0.8726 H         1 <0>         0.0690
     28 H4         -0.5289    1.8773    0.9072 H         1 <0>         0.0852
     29 H5          0.5293   -0.3651    0.8851 H         1 <0>         0.0736
     30 H6         -1.0205   -0.3814    0.0098 H         1 <0>         0.0736
     31 H7          3.3926   -1.1821   -5.9592 H         1 <0>         0.1450
     32 H8          4.1736   -3.0652   -7.3218 H         1 <0>         0.1467
     33 H9          3.7773   -5.3814   -6.6017 H         1 <0>         0.1356
     34 H10         2.5639   -7.0502   -6.2474 H         1 <0>         0.0811
     35 H11         4.1132   -7.0415   -5.3712 H         1 <0>         0.0857
     36 H12         2.9342   -9.5534   -6.5240 H         1 <0>         0.1400
     37 H13         4.4093   -9.4744   -5.5310 H         1 <0>         0.1477
     38 H14         3.3692  -10.9636   -3.9860 H         1 <0>         0.4289
     39 H15         3.2860  -11.8699   -6.7760 H         1 <0>         0.1394
     40 H16         5.5845  -12.6541   -6.2756 H         1 <0>         0.1081
     41 H17         5.4471  -10.8937   -6.0510 H         1 <0>         0.0803
     42 H18         5.4599  -11.9732   -4.6358 H         1 <0>         0.0836
     43 H19         2.0869  -13.4204   -5.2572 H         1 <0>         0.0831
     44 H20         3.6222  -14.1296   -5.8121 H         1 <0>         0.1084
     45 H21         3.4976  -13.4487   -4.1723 H         1 <0>         0.0830
     46 H22         0.8600   -8.6373   -5.5018 H         1 <0>         0.3903
     47 H23         0.1311   -5.1044   -2.2468 H         1 <0>         0.0821
     48 H24         1.8111   -5.6685   -2.0794 H         1 <0>         0.0757
     49 H25         1.1342   -4.5247   -0.8955 H         1 <0>         0.0907
     50 H26         2.0037  -11.0368   -4.9053 H         1 <0>         0.4335
@<TRIPOS>BOND
     1    1    2 1
     2    1   26 1
     3    1   27 1
     4    1   28 1
     5    2    3 1
     6    2   29 1
     7    2   30 1
     8    3    4 1
     9    4    5 2
    10    4    6 1
    11    6   10 1
    12    6    7 2
    13    7    8 1
    14    7   25 1
    15    8   14 ar
    16    8    9 ar
    17    9   10 1
    18    9   11 ar
    19   11   12 ar
    20   11   31 1
    21   12   13 ar
    22   12   32 1
    23   13   14 ar
    24   13   33 1
    25   14   15 1
    26   15   16 1
    27   16   17 1
    28   16   34 1
    29   16   35 1
    30   17   18 1
    31   17   19 1
    32   17   24 1
    33   19   20 1
    34   19   36 1
    35   19   37 1
    36   20   21 1
    37   20   38 1
    38   20   50 1
    39   21   22 1
    40   21   23 1
    41   21   39 1
    42   22   40 1
    43   22   41 1
    44   22   42 1
    45   23   43 1
    46   23   44 1
    47   23   45 1
    48   24   46 1
    49   25   47 1
    50   25   48 1
    51   25   49 1
