@<TRIPOS>MOLECULE
ZINC19796181
   29    28     0     0     0
SMALL
USER_CHARGES

@<TRIPOS>ATOM
      1 C1         -0.0225    1.8097    0.0120 C.3       1 <0>        -0.1867
      2 S1          0.0021   -0.0041    0.0020 S.3       1 <0>         0.0842
      3 C2          0.8767   -0.4266    1.4721 C.cat     1 <0>         0.4673
      4 N1          1.3244    0.5135    2.2576 N.pl3     1 <0>        -0.7494
      5 N2          1.0873   -1.7480    1.7914 N.pl3     1 <0>        -0.6502
      6 C3          1.8145   -2.0993    3.0137 C.3       1 <0>         0.0784
      7 C4          1.9093   -3.6219    3.1309 C.3       1 <0>        -0.1472
      8 C5          2.6688   -3.9888    4.4075 C.3       1 <0>        -0.1247
      9 C6          2.7636   -5.5113    4.5247 C.3       1 <0>        -0.0510
     10 H1          3.2136   -5.9182    3.6191 H         1 <0>         0.1376
     11 C7          3.6155   -5.8715    5.7145 C.2       1 <0>         0.4861
     12 O1          3.1042   -6.3737    6.7008 O.co2     1 <0>        -0.6640
     13 O2          4.8162   -5.6606    5.6907 O.co2     1 <0>        -0.6295
     14 N3          1.4177   -6.0738    4.6980 N.4       1 <0>        -0.6149
     15 H2          1.0001    2.1870    0.0043 H         1 <0>         0.1129
     16 H3         -0.5497    2.1708   -0.8711 H         1 <0>         0.1554
     17 H4         -0.5327    2.1613    0.9088 H         1 <0>         0.1125
     18 H5          1.8059    0.2809    3.0669 H         1 <0>         0.4320
     19 H6          0.7544   -2.4472    1.2072 H         1 <0>         0.4425
     20 H7          2.8177   -1.6748    2.9743 H         1 <0>         0.1041
     21 H8          1.2849   -1.7006    3.8789 H         1 <0>         0.1002
     22 H9          0.9062   -4.0464    3.1703 H         1 <0>         0.0749
     23 H10         2.4390   -4.0207    2.2657 H         1 <0>         0.0972
     24 H11         3.6720   -3.5643    4.3681 H         1 <0>         0.1189
     25 H12         2.1392   -3.5900    5.2727 H         1 <0>         0.0903
     26 H13         0.8472   -5.8327    3.9014 H         1 <0>         0.4086
     27 H14         1.4802   -7.0779    4.7753 H         1 <0>         0.4386
     28 H15         1.1759    1.4452    2.0324 H         1 <0>         0.4427
     29 H16         1.0011   -5.6972    5.5363 H         1 <0>         0.4331
@<TRIPOS>BOND
     1    1    2 1
     2    1   15 1
     3    1   16 1
     4    1   17 1
     5    2    3 1
     6    3    4 2
     7    3    5 1
     8    4   18 1
     9    4   28 1
    10    5    6 1
    11    5   19 1
    12    6    7 1
    13    6   20 1
    14    6   21 1
    15    7    8 1
    16    7   22 1
    17    7   23 1
    18    8    9 1
    19    8   24 1
    20    8   25 1
    21    9   10 1
    22    9   11 1
    23    9   14 1
    24   11   12 2
    25   11   13 1
    26   14   26 1
    27   14   27 1
    28   14   29 1
@<TRIPOS>MOLECULE
ZINC19796181
   29    28     0     0     0
SMALL
USER_CHARGES

@<TRIPOS>ATOM
      1 C1         -0.0225    1.8097    0.0120 C.3       1 <0>        -0.1809
      2 S1          0.0021   -0.0041    0.0020 S.3       1 <0>         0.0776
      3 C2          0.8484   -0.4107   -1.4889 C.cat     1 <0>         0.4656
      4 N1          1.0422   -1.6602   -1.8089 N.pl3     1 <0>        -0.6057
      5 C3          1.7459   -1.9983   -3.0485 C.3       1 <0>         0.0674
      6 C4          1.8383   -3.5195   -3.1839 C.3       1 <0>        -0.1494
      7 C5          2.5732   -3.8726   -4.4786 C.3       1 <0>        -0.1257
      8 C6          2.6656   -5.3938   -4.6140 C.3       1 <0>        -0.0501
      9 H1          1.6668   -5.8256   -4.5495 H         1 <0>         0.1373
     10 C7          3.2790   -5.7433   -5.9454 C.2       1 <0>         0.4837
     11 O1          4.4879   -5.8652   -6.0464 O.co2     1 <0>        -0.6606
     12 O2          2.5664   -5.9040   -6.9215 O.co2     1 <0>        -0.6284
     13 N2          3.5023   -5.9317   -3.5330 N.4       1 <0>        -0.6164
     14 N3          1.3049    0.5897   -2.3156 N.pl3     1 <0>        -0.7948
     15 H2          1.0001    2.1870    0.0043 H         1 <0>         0.1126
     16 H3         -0.5497    2.1708   -0.8711 H         1 <0>         0.1130
     17 H4         -0.5327    2.1613    0.9088 H         1 <0>         0.1529
     18 H5          1.1999   -1.5903   -3.8991 H         1 <0>         0.1126
     19 H6          2.7497   -1.5741   -3.0238 H         1 <0>         0.1093
     20 H7          2.3843   -3.9275   -2.3333 H         1 <0>         0.0765
     21 H8          0.8345   -3.9437   -3.2086 H         1 <0>         0.0986
     22 H9          2.0272   -3.4646   -5.3292 H         1 <0>         0.1161
     23 H10         3.5770   -3.4484   -4.4538 H         1 <0>         0.0942
     24 H11         3.0916   -5.6977   -2.6416 H         1 <0>         0.4089
     25 H12         3.5632   -6.9349   -3.6223 H         1 <0>         0.4375
     26 H13         1.1608    1.5190   -2.0776 H         1 <0>         0.4387
     27 H14         1.7708    0.3659   -3.1364 H         1 <0>         0.4289
     28 H15         0.7204   -2.3656   -1.2260 H         1 <0>         0.4460
     29 H16         4.4268   -5.5320   -3.5927 H         1 <0>         0.4349
@<TRIPOS>BOND
     1    1    2 1
     2    1   15 1
     3    1   16 1
     4    1   17 1
     5    2    3 1
     6    3    4 2
     7    3   14 1
     8    4    5 1
     9    4   28 1
    10    5    6 1
    11    5   18 1
    12    5   19 1
    13    6    7 1
    14    6   20 1
    15    6   21 1
    16    7    8 1
    17    7   22 1
    18    7   23 1
    19    8    9 1
    20    8   10 1
    21    8   13 1
    22   10   11 2
    23   10   12 1
    24   13   24 1
    25   13   25 1
    26   13   29 1
    27   14   26 1
    28   14   27 1
@<TRIPOS>MOLECULE
ZINC03951312
   30    30     0     0     0
SMALL
USER_CHARGES

@<TRIPOS>ATOM
      1 C1         -0.0184    1.5028    0.0103 C.3       1 <0>        -0.1669
      2 C2          0.0021   -0.0041    0.0020 C.cat     1 <0>         0.5375
      3 N1          0.0215   -0.6566    1.1184 N.pl3     1 <0>        -0.7278
      4 N2          0.0000   -0.6826   -1.1881 N.pl3     1 <0>        -0.6718
      5 C3          0.0199   -2.1475   -1.1962 C.3       1 <0>         0.1171
      6 C4          0.0132   -2.6421   -2.6197 C.ar      1 <0>        -0.1278
      7 C5         -1.1872   -2.8799   -3.2632 C.ar      1 <0>        -0.0578
      8 C6         -1.1934   -3.3336   -4.5687 C.ar      1 <0>        -0.1079
      9 C7          0.0008   -3.5492   -5.2313 C.ar      1 <0>        -0.0657
     10 C8          1.2007   -3.3106   -4.5883 C.ar      1 <0>        -0.1654
     11 C9          1.2069   -2.8527   -3.2838 C.ar      1 <0>        -0.0698
     12 C10         2.5023   -3.5460   -5.3104 C.3       1 <0>         0.0438
     13 N3          2.9092   -2.3146   -6.0004 N.4       1 <0>        -0.6372
     14 H1          1.0042    1.8801    0.0026 H         1 <0>         0.1366
     15 H2         -0.5455    1.8639   -0.8728 H         1 <0>         0.1239
     16 H3         -0.5286    1.8543    0.9071 H         1 <0>         0.1280
     17 H4          0.0230   -0.1762    1.9610 H         1 <0>         0.4537
     18 H5         -0.0146   -0.1932   -2.0255 H         1 <0>         0.4397
     19 H6          0.9196   -2.5014   -0.6928 H         1 <0>         0.1063
     20 H7         -0.8601   -2.5256   -0.6760 H         1 <0>         0.1086
     21 H8         -2.1200   -2.7115   -2.7456 H         1 <0>         0.1412
     22 H9         -2.1310   -3.5200   -5.0711 H         1 <0>         0.1479
     23 H10        -0.0041   -3.9043   -6.2512 H         1 <0>         0.1436
     24 H11         2.1445   -2.6626   -2.7826 H         1 <0>         0.1371
     25 H12         3.2705   -3.8303   -4.5913 H         1 <0>         0.1435
     26 H13         2.3737   -4.3456   -6.0399 H         1 <0>         0.1468
     27 H14         2.1981   -2.0514   -6.6661 H         1 <0>         0.4368
     28 H15         3.0283   -1.5743   -5.3251 H         1 <0>         0.4322
     29 H16         0.0347   -1.6265    1.1130 H         1 <0>         0.4296
     30 H17         3.7807   -2.4722   -6.4839 H         1 <0>         0.4441
@<TRIPOS>BOND
     1    1    2 1
     2    1   14 1
     3    1   15 1
     4    1   16 1
     5    2    3 2
     6    2    4 1
     7    3   17 1
     8    3   29 1
     9    4    5 1
    10    4   18 1
    11    5    6 1
    12    5   19 1
    13    5   20 1
    14    6   11 ar
    15    6    7 ar
    16    7    8 ar
    17    7   21 1
    18    8    9 ar
    19    8   22 1
    20    9   10 ar
    21    9   23 1
    22   10   11 ar
    23   10   12 1
    24   11   24 1
    25   12   13 1
    26   12   25 1
    27   12   26 1
    28   13   27 1
    29   13   28 1
    30   13   30 1
@<TRIPOS>MOLECULE
ZINC62987125
   34    35     0     0     0
SMALL
USER_CHARGES

@<TRIPOS>ATOM
      1 C1         -0.6370    1.2314   -2.9573 C.3       1 <0>        -0.1645
      2 C2         -0.6645   -0.2389   -2.6280 C.cat     1 <0>         0.5382
      3 N1         -1.3272   -1.0574   -3.3786 N.pl3     1 <0>        -0.7334
      4 N2          0.0125   -0.7085   -1.5334 N.pl3     1 <0>        -0.6591
      5 C3          0.0810   -2.1493   -1.2771 C.3       1 <0>         0.2094
      6 C4          1.3038   -2.4550   -0.4511 C.ar      1 <0>        -0.1145
      7 C5          1.6063   -1.6763    0.6503 C.ar      1 <0>        -0.1099
      8 C6          2.7279   -1.9567    1.4080 C.ar      1 <0>        -0.1090
      9 C7          3.5469   -3.0161    1.0646 C.ar      1 <0>        -0.0975
     10 C8          3.2439   -3.7953   -0.0363 C.ar      1 <0>        -0.1085
     11 C9          2.1199   -3.5176   -0.7915 C.ar      1 <0>        -0.0968
     12 C10        -1.1524   -2.5857   -0.5292 C.ar      1 <0>        -0.1338
     13 C11        -1.6605   -1.7968    0.4858 C.ar      1 <0>        -0.1011
     14 C12        -2.7919   -2.1970    1.1719 C.ar      1 <0>        -0.1107
     15 C13        -3.4154   -3.3860    0.8426 C.ar      1 <0>        -0.0980
     16 C14        -2.9078   -4.1745   -0.1731 C.ar      1 <0>        -0.1082
     17 C15        -1.7789   -3.7721   -0.8620 C.ar      1 <0>        -0.1067
     18 H1         -1.4664    1.7314   -2.4572 H         1 <0>         0.1348
     19 H2          0.3049    1.6622   -2.6177 H         1 <0>         0.1243
     20 H3         -0.7295    1.3641   -4.0352 H         1 <0>         0.1253
     21 H4         -1.8681   -0.7167   -4.1082 H         1 <0>         0.4493
     22 H5          0.4464   -0.0871   -0.9282 H         1 <0>         0.4399
     23 H6          0.1396   -2.6845   -2.2249 H         1 <0>         0.1103
     24 H7          0.9664   -0.8486    0.9186 H         1 <0>         0.1199
     25 H8          2.9646   -1.3479    2.2680 H         1 <0>         0.1327
     26 H9          4.4236   -3.2347    1.6561 H         1 <0>         0.1332
     27 H10         3.8839   -4.6228   -0.3048 H         1 <0>         0.1340
     28 H11         1.8811   -4.1286   -1.6494 H         1 <0>         0.1274
     29 H12        -1.1734   -0.8678    0.7431 H         1 <0>         0.1194
     30 H13        -3.1885   -1.5810    1.9654 H         1 <0>         0.1316
     31 H14        -4.2989   -3.6991    1.3790 H         1 <0>         0.1327
     32 H15        -3.3948   -5.1036   -0.4301 H         1 <0>         0.1338
     33 H16        -1.3845   -4.3863   -1.6580 H         1 <0>         0.1278
     34 H17        -1.2834   -2.0120   -3.2121 H         1 <0>         0.4277
@<TRIPOS>BOND
     1    1    2 1
     2    1   18 1
     3    1   19 1
     4    1   20 1
     5    2    3 2
     6    2    4 1
     7    3   21 1
     8    3   34 1
     9    4    5 1
    10    4   22 1
    11    5    6 1
    12    5   12 1
    13    5   23 1
    14    6   11 ar
    15    6    7 ar
    16    7    8 ar
    17    7   24 1
    18    8    9 ar
    19    8   25 1
    20    9   10 ar
    21    9   26 1
    22   10   11 ar
    23   10   27 1
    24   11   28 1
    25   12   17 ar
    26   12   13 ar
    27   13   14 ar
    28   13   29 1
    29   14   15 ar
    30   14   30 1
    31   15   16 ar
    32   15   31 1
    33   16   17 ar
    34   16   32 1
    35   17   33 1
@<TRIPOS>MOLECULE
ZINC59926595
   28    28     0     0     0
SMALL
USER_CHARGES

@<TRIPOS>ATOM
      1 C1         -0.0184    1.5028    0.0103 C.3       1 <0>        -0.1642
      2 C2          0.0021   -0.0041    0.0020 C.cat     1 <0>         0.5310
      3 N1          0.0215   -0.6566    1.1184 N.pl3     1 <0>        -0.7355
      4 N2          0.0000   -0.6826   -1.1881 N.pl3     1 <0>        -0.6599
      5 C3          0.0199   -2.1475   -1.1962 C.3       1 <0>         0.1232
      6 C4          0.0132   -2.6421   -2.6197 C.ar      1 <0>        -0.0999
      7 C5         -1.1878   -2.8798   -3.2628 C.ar      1 <0>        -0.1333
      8 C6         -1.1974   -3.3336   -4.5686 C.ar      1 <0>        -0.0741
      9 C7         -0.0064   -3.5512   -5.2343 C.ar      1 <0>        -0.1830
     10 C8          1.1996   -3.3136   -4.5914 C.ar      1 <0>         0.1341
     11 C9          1.2064   -2.8523   -3.2828 C.ar      1 <0>        -0.1299
     12 O1          2.3724   -3.5268   -5.2441 O.3       1 <0>        -0.3135
     13 C10         2.2891   -3.9963   -6.5912 C.3       1 <0>         0.0228
     14 H1          1.0042    1.8801    0.0026 H         1 <0>         0.1345
     15 H2         -0.5455    1.8639   -0.8728 H         1 <0>         0.1227
     16 H3         -0.5286    1.8543    0.9071 H         1 <0>         0.1234
     17 H4          0.0230   -0.1762    1.9610 H         1 <0>         0.4492
     18 H5         -0.0146   -0.1932   -2.0255 H         1 <0>         0.4425
     19 H6          0.9196   -2.5014   -0.6928 H         1 <0>         0.1045
     20 H7         -0.8601   -2.5256   -0.6760 H         1 <0>         0.1058
     21 H8         -2.1198   -2.7110   -2.7439 H         1 <0>         0.1293
     22 H9         -2.1366   -3.5185   -5.0686 H         1 <0>         0.1365
     23 H10        -0.0144   -3.9064   -6.2542 H         1 <0>         0.1385
     24 H11         2.1440   -2.6620   -2.7817 H         1 <0>         0.1353
     25 H12         1.7648   -4.9517   -6.6113 H         1 <0>         0.0614
     26 H13         1.7452   -3.2706   -7.1959 H         1 <0>         0.0608
     27 H14         3.2938   -4.1246   -6.9940 H         1 <0>         0.1090
     28 H15         0.0347   -1.6265    1.1130 H         1 <0>         0.4289
@<TRIPOS>BOND
     1    1    2 1
     2    1   14 1
     3    1   15 1
     4    1   16 1
     5    2    3 2
     6    2    4 1
     7    3   17 1
     8    3   28 1
     9    4    5 1
    10    4   18 1
    11    5    6 1
    12    5   19 1
    13    5   20 1
    14    6   11 ar
    15    6    7 ar
    16    7    8 ar
    17    7   21 1
    18    8    9 ar
    19    8   22 1
    20    9   10 ar
    21    9   23 1
    22   10   11 ar
    23   10   12 1
    24   11   24 1
    25   12   13 1
    26   13   25 1
    27   13   26 1
    28   13   27 1
@<TRIPOS>MOLECULE
ZINC00156633
   25    26     0     0     0
SMALL
USER_CHARGES

@<TRIPOS>ATOM
      1 C1         -0.1188   -3.2657    1.5467 C.3       1 <0>        -0.0704
      2 C2         -0.0417   -2.0491    0.6608 C.2       1 <0>         0.2077
      3 N1          0.0582   -2.0608   -0.6404 N.2       1 <0>        -0.4926
      4 C3          0.1018   -0.7986   -1.0921 C.2       1 <0>        -0.0264
      5 C4          0.0260    0.0266   -0.0305 C.2       1 <0>        -0.0587
      6 N2         -0.0704   -0.7661    1.0812 N.pl3     1 <0>        -0.4518
      7 C5         -0.1811   -0.3082    2.4684 C.3       1 <0>         0.1455
      8 C6         -1.6347   -0.2386    2.8600 C.ar      1 <0>        -0.1178
      9 C7         -2.3800    0.8845    2.5534 C.ar      1 <0>        -0.0980
     10 C8         -3.7134    0.9484    2.9126 C.ar      1 <0>        -0.1198
     11 C9         -4.3015   -0.1110    3.5779 C.ar      1 <0>        -0.1088
     12 C10        -3.5563   -1.2345    3.8837 C.ar      1 <0>        -0.1198
     13 C11        -2.2241   -1.3001    3.5207 C.ar      1 <0>        -0.1004
     14 H1         -1.1633   -3.5001    1.7520 H         1 <0>         0.0791
     15 H2          0.3515   -4.1112    1.0446 H         1 <0>         0.0913
     16 H3          0.3997   -3.0657    2.4844 H         1 <0>         0.0719
     17 H4          0.1833   -0.4970   -2.1259 H         1 <0>         0.1696
     18 H5          0.0353    1.1064   -0.0525 H         1 <0>         0.1726
     19 H6          0.3388   -1.0066    3.1242 H         1 <0>         0.1008
     20 H7          0.2681    0.6806    2.5616 H         1 <0>         0.1019
     21 H8         -1.9205    1.7122    2.0336 H         1 <0>         0.1218
     22 H9         -4.2955    1.8261    2.6737 H         1 <0>         0.1258
     23 H10        -5.3430   -0.0608    3.8592 H         1 <0>         0.1255
     24 H11        -4.0157   -2.0621    4.4038 H         1 <0>         0.1267
     25 H12        -1.6429   -2.1794    3.7563 H         1 <0>         0.1244
@<TRIPOS>BOND
     1    1    2 1
     2    1   14 1
     3    1   15 1
     4    1   16 1
     5    2    6 1
     6    2    3 2
     7    3    4 1
     8    4    5 2
     9    4   17 1
    10    5    6 1
    11    5   18 1
    12    6    7 1
    13    7    8 1
    14    7   19 1
    15    7   20 1
    16    8   13 ar
    17    8    9 ar
    18    9   10 ar
    19    9   21 1
    20   10   11 ar
    21   10   22 1
    22   11   12 ar
    23   11   23 1
    24   12   13 ar
    25   12   24 1
    26   13   25 1
@<TRIPOS>MOLECULE
ZINC00156633
   26    27     0     0     0
SMALL
USER_CHARGES

@<TRIPOS>ATOM
      1 C1         -0.1188   -3.2657    1.5467 C.3       1 <0>        -0.1159
      2 C2         -0.0417   -2.0491    0.6608 C.cat     1 <0>         0.3146
      3 N1          0.0582   -2.0608   -0.6404 N.pl3     1 <0>        -0.4787
      4 C3          0.1018   -0.7986   -1.0921 C.2       1 <0>         0.0031
      5 C4          0.0260    0.0266   -0.0305 C.2       1 <0>         0.0246
      6 N2         -0.0704   -0.7661    1.0812 N.pl3     1 <0>        -0.4028
      7 C5         -0.1811   -0.3082    2.4684 C.3       1 <0>         0.1401
      8 C6         -1.6347   -0.2386    2.8600 C.ar      1 <0>        -0.1481
      9 C7         -2.3800    0.8845    2.5534 C.ar      1 <0>        -0.0927
     10 C8         -3.7134    0.9484    2.9126 C.ar      1 <0>        -0.1152
     11 C9         -4.3015   -0.1110    3.5779 C.ar      1 <0>        -0.0905
     12 C10        -3.5563   -1.2345    3.8837 C.ar      1 <0>        -0.1161
     13 C11        -2.2241   -1.3001    3.5207 C.ar      1 <0>        -0.0980
     14 H1         -1.1633   -3.5001    1.7519 H         1 <0>         0.1212
     15 H2          0.3515   -4.1111    1.0447 H         1 <0>         0.1172
     16 H3          0.3997   -3.0657    2.4845 H         1 <0>         0.1155
     17 H4          0.1833   -0.4970   -2.1259 H         1 <0>         0.2238
     18 H5          0.0353    1.1064   -0.0525 H         1 <0>         0.2219
     19 H6          0.3388   -1.0066    3.1242 H         1 <0>         0.1253
     20 H7          0.2681    0.6806    2.5616 H         1 <0>         0.1325
     21 H8         -1.9205    1.7122    2.0336 H         1 <0>         0.1269
     22 H9         -4.2955    1.8261    2.6737 H         1 <0>         0.1337
     23 H10        -5.3430   -0.0608    3.8592 H         1 <0>         0.1338
     24 H11        -4.0157   -2.0621    4.4038 H         1 <0>         0.1341
     25 H12        -1.6429   -2.1794    3.7563 H         1 <0>         0.1276
     26 H13         0.0951   -2.8567   -1.1935 H         1 <0>         0.4622
@<TRIPOS>BOND
     1    1    2 1
     2    1   14 1
     3    1   15 1
     4    1   16 1
     5    2    6 1
     6    2    3 2
     7    3    4 1
     8    3   26 1
     9    4    5 2
    10    4   17 1
    11    5    6 1
    12    5   18 1
    13    6    7 1
    14    7    8 1
    15    7   19 1
    16    7   20 1
    17    8   13 ar
    18    8    9 ar
    19    9   10 ar
    20    9   21 1
    21   10   11 ar
    22   10   22 1
    23   11   12 ar
    24   11   23 1
    25   12   13 ar
    26   12   24 1
    27   13   25 1
@<TRIPOS>MOLECULE
ZINC13281814
   28    29     0     0     0
SMALL
USER_CHARGES
2-methyl-1-[(1R)-1-phenylethyl]imidazole
@<TRIPOS>ATOM
      1 C1         -0.0127    1.0858    0.0080 C.3       1 <0>        -0.0704
      2 C2         -0.7181    1.5718    1.2479 C.2       1 <0>         0.2052
      3 N1         -0.1507    1.8272    2.3950 N.2       1 <0>        -0.4914
      4 C3         -1.0826    2.2385    3.2676 C.2       1 <0>        -0.0265
      5 C4         -2.2727    2.2381    2.6372 C.2       1 <0>        -0.0571
      6 N2         -2.0411    1.8208    1.3543 N.pl3     1 <0>        -0.4474
      7 C5         -3.0421    1.6689    0.2955 C.3       1 <0>         0.1721
      8 H1         -2.5572    1.3173   -0.6153 H         1 <0>         0.1093
      9 C6         -3.7111    3.0188    0.0286 C.3       1 <0>        -0.1589
     10 C7         -4.0834    0.6691    0.7282 C.ar      1 <0>        -0.1074
     11 C8         -4.8294    0.8982    1.8692 C.ar      1 <0>        -0.1031
     12 C9         -5.7876   -0.0168    2.2638 C.ar      1 <0>        -0.1178
     13 C10        -5.9934   -1.1652    1.5224 C.ar      1 <0>        -0.1108
     14 C11        -5.2437   -1.3968    0.3843 C.ar      1 <0>        -0.1180
     15 C12        -4.2885   -0.4798   -0.0126 C.ar      1 <0>        -0.1030
     16 H2          0.0021   -0.0041    0.0020 H         1 <0>         0.0801
     17 H3          1.0099    1.4631    0.0003 H         1 <0>         0.0915
     18 H4         -0.5399    1.4469   -0.8751 H         1 <0>         0.0714
     19 H5         -0.9090    2.5210    4.2954 H         1 <0>         0.1692
     20 H6         -3.2258    2.5179    3.0610 H         1 <0>         0.1707
     21 H7         -2.9579    3.7419   -0.2844 H         1 <0>         0.0691
     22 H8         -4.4559    2.9058   -0.7592 H         1 <0>         0.0805
     23 H9         -4.1959    3.3703    0.9393 H         1 <0>         0.0671
     24 H10        -4.6660    1.7936    2.4505 H         1 <0>         0.1230
     25 H11        -6.3735    0.1643    3.1528 H         1 <0>         0.1261
     26 H12        -6.7401   -1.8814    1.8321 H         1 <0>         0.1255
     27 H13        -5.4044   -2.2941   -0.1949 H         1 <0>         0.1267
     28 H14        -3.7028   -0.6607   -0.9018 H         1 <0>         0.1246
@<TRIPOS>BOND
     1    1    2 1
     2    1   16 1
     3    1   17 1
     4    1   18 1
     5    2    6 1
     6    2    3 2
     7    3    4 1
     8    4    5 2
     9    4   19 1
    10    5    6 1
    11    5   20 1
    12    6    7 1
    13    7    8 1
    14    7    9 1
    15    7   10 1
    16    9   21 1
    17    9   22 1
    18    9   23 1
    19   10   15 ar
    20   10   11 ar
    21   11   12 ar
    22   11   24 1
    23   12   13 ar
    24   12   25 1
    25   13   14 ar
    26   13   26 1
    27   14   15 ar
    28   14   27 1
    29   15   28 1
@<TRIPOS>MOLECULE
ZINC13281814
   29    30     0     0     0
SMALL
USER_CHARGES
2-methyl-1-[(1R)-1-phenylethyl]imidazole
@<TRIPOS>ATOM
      1 C1         -0.0127    1.0858    0.0080 C.3       1 <0>        -0.1143
      2 C2         -0.7181    1.5718    1.2479 C.cat     1 <0>         0.3126
      3 C3         -1.0826    2.2385    3.2676 C.2       1 <0>         0.0061
      4 C4         -2.2727    2.2381    2.6372 C.2       1 <0>         0.0194
      5 N1         -2.0411    1.8208    1.3543 N.pl3     1 <0>        -0.4008
      6 C5         -3.0421    1.6689    0.2955 C.3       1 <0>         0.1707
      7 H1         -2.5572    1.3173   -0.6153 H         1 <0>         0.1309
      8 C6         -3.7111    3.0188    0.0286 C.3       1 <0>        -0.1669
      9 C7         -4.0834    0.6691    0.7282 C.ar      1 <0>        -0.1339
     10 C8         -4.8294    0.8982    1.8692 C.ar      1 <0>        -0.1069
     11 C9         -5.7876   -0.0168    2.2638 C.ar      1 <0>        -0.1121
     12 C10        -5.9934   -1.1652    1.5224 C.ar      1 <0>        -0.0941
     13 C11        -5.2437   -1.3968    0.3843 C.ar      1 <0>        -0.1114
     14 C12        -4.2885   -0.4798   -0.0126 C.ar      1 <0>        -0.0939
     15 H2          0.0021   -0.0041    0.0020 H         1 <0>         0.1211
     16 H3          1.0099    1.4631    0.0003 H         1 <0>         0.1178
     17 H4         -0.5399    1.4469   -0.8751 H         1 <0>         0.1134
     18 H5         -0.9090    2.5210    4.2954 H         1 <0>         0.2231
     19 H6         -3.2258    2.5179    3.0610 H         1 <0>         0.2173
     20 H7         -2.9579    3.7419   -0.2844 H         1 <0>         0.0771
     21 H8         -4.4559    2.9058   -0.7592 H         1 <0>         0.1022
     22 H9         -4.1959    3.3703    0.9393 H         1 <0>         0.0764
     23 H10        -4.6660    1.7936    2.4505 H         1 <0>         0.1218
     24 H11        -6.3735    0.1643    3.1528 H         1 <0>         0.1334
     25 H12        -6.7401   -1.8814    1.8321 H         1 <0>         0.1339
     26 H13        -5.4044   -2.2941   -0.1949 H         1 <0>         0.1348
     27 H14        -3.7028   -0.6607   -0.9018 H         1 <0>         0.1299
     28 N2         -0.1520    1.8273    2.3947 N.pl3     1 <0>        -0.4855
     29 H15         0.8497    1.7290    2.5973 H         1 <0>         0.4781
@<TRIPOS>BOND
     1    1    2 1
     2    1   15 1
     3    1   16 1
     4    1   17 1
     5    2    5 1
     6    2   28 2
     7    3    4 2
     8    3   18 1
     9    3   28 1
    10    4    5 1
    11    4   19 1
    12    5    6 1
    13    6    7 1
    14    6    8 1
    15    6    9 1
    16    8   20 1
    17    8   21 1
    18    8   22 1
    19    9   14 ar
    20    9   10 ar
    21   10   11 ar
    22   10   23 1
    23   11   12 ar
    24   11   24 1
    25   12   13 ar
    26   12   25 1
    27   13   14 ar
    28   13   26 1
    29   14   27 1
    30   28   29 1
@<TRIPOS>MOLECULE
ZINC17022433
   28    29     0     0     0
SMALL
USER_CHARGES
2-methyl-1-[(1S)-1-phenylethyl]imidazole
@<TRIPOS>ATOM
      1 C1         -1.6856    4.2849    0.0389 C.3       1 <0>        -0.0704
      2 C2         -0.7496    3.1039    0.0246 C.2       1 <0>         0.2052
      3 N1         -1.1084    1.8492    0.0167 N.2       1 <0>        -0.4915
      4 C3         -0.0126    1.0758    0.0080 C.2       1 <0>        -0.0265
      5 C4          1.0662    1.8819    0.0020 C.2       1 <0>        -0.0570
      6 N2          0.5992    3.1686    0.0125 N.pl3     1 <0>        -0.4474
      7 C5          1.4110    4.3881    0.0110 C.3       1 <0>         0.1722
      8 H1          0.7569    5.2600    0.0208 H         1 <0>         0.1093
      9 C6          2.3050    4.4072    1.2525 C.3       1 <0>        -0.1591
     10 C7          2.2699    4.4183   -1.2269 C.ar      1 <0>        -0.1072
     11 C8          3.1884    3.4109   -1.4556 C.ar      1 <0>        -0.1029
     12 C9          3.9732    3.4363   -2.5933 C.ar      1 <0>        -0.1178
     13 C10         3.8460    4.4741   -3.4976 C.ar      1 <0>        -0.1109
     14 C11         2.9308    5.4839   -3.2666 C.ar      1 <0>        -0.1180
     15 C12         2.1430    5.4563   -2.1310 C.ar      1 <0>        -0.1030
     16 H2         -1.9206    4.5747   -0.9853 H         1 <0>         0.0800
     17 H3         -2.6040    4.0144    0.5598 H         1 <0>         0.0915
     18 H4         -1.2090    5.1200    0.5524 H         1 <0>         0.0714
     19 H5          0.0021   -0.0041    0.0020 H         1 <0>         0.1692
     20 H6          2.1009    1.5727   -0.0087 H         1 <0>         0.1706
     21 H7          2.9090    5.3145    1.2514 H         1 <0>         0.0804
     22 H8          1.6838    4.3853    2.1479 H         1 <0>         0.0691
     23 H9          2.9590    3.5353    1.2427 H         1 <0>         0.0671
     24 H10         3.2906    2.6022   -0.7470 H         1 <0>         0.1229
     25 H11         4.6880    2.6471   -2.7740 H         1 <0>         0.1261
     26 H12         4.4615    4.4957   -4.3848 H         1 <0>         0.1255
     27 H13         2.8315    6.2947   -3.9731 H         1 <0>         0.1267
     28 H14         1.4282    6.2455   -1.9503 H         1 <0>         0.1246
@<TRIPOS>BOND
     1    1    2 1
     2    1   16 1
     3    1   17 1
     4    1   18 1
     5    2    6 1
     6    2    3 2
     7    3    4 1
     8    4    5 2
     9    4   19 1
    10    5    6 1
    11    5   20 1
    12    6    7 1
    13    7    8 1
    14    7    9 1
    15    7   10 1
    16    9   21 1
    17    9   22 1
    18    9   23 1
    19   10   15 ar
    20   10   11 ar
    21   11   12 ar
    22   11   24 1
    23   12   13 ar
    24   12   25 1
    25   13   14 ar
    26   13   26 1
    27   14   15 ar
    28   14   27 1
    29   15   28 1
@<TRIPOS>MOLECULE
ZINC17022433
   29    30     0     0     0
SMALL
USER_CHARGES
2-methyl-1-[(1S)-1-phenylethyl]imidazole
@<TRIPOS>ATOM
      1 C1         -1.6856    4.2849    0.0389 C.3       1 <0>        -0.1143
      2 C2         -0.7496    3.1039    0.0246 C.cat     1 <0>         0.3125
      3 C3         -0.0126    1.0758    0.0080 C.2       1 <0>         0.0061
      4 C4          1.0662    1.8819    0.0020 C.2       1 <0>         0.0195
      5 N1          0.5992    3.1686    0.0125 N.pl3     1 <0>        -0.4008
      6 C5          1.4110    4.3881    0.0110 C.3       1 <0>         0.1708
      7 H1          0.7569    5.2600    0.0208 H         1 <0>         0.1309
      8 C6          2.3050    4.4072    1.2525 C.3       1 <0>        -0.1671
      9 C7          2.2699    4.4183   -1.2269 C.ar      1 <0>        -0.1341
     10 C8          3.1884    3.4109   -1.4556 C.ar      1 <0>        -0.1065
     11 C9          3.9732    3.4363   -2.5933 C.ar      1 <0>        -0.1123
     12 C10         3.8460    4.4741   -3.4976 C.ar      1 <0>        -0.0940
     13 C11         2.9308    5.4839   -3.2666 C.ar      1 <0>        -0.1115
     14 C12         2.1430    5.4563   -2.1310 C.ar      1 <0>        -0.0938
     15 H2         -1.9206    4.5747   -0.9853 H         1 <0>         0.1210
     16 H3         -2.6040    4.0144    0.5598 H         1 <0>         0.1178
     17 H4         -1.2090    5.1200    0.5524 H         1 <0>         0.1134
     18 H5          0.0021   -0.0041    0.0020 H         1 <0>         0.2231
     19 H6          2.1009    1.5727   -0.0087 H         1 <0>         0.2172
     20 H7          2.9090    5.3145    1.2514 H         1 <0>         0.1021
     21 H8          1.6838    4.3853    2.1479 H         1 <0>         0.0771
     22 H9          2.9590    3.5353    1.2427 H         1 <0>         0.0764
     23 H10         3.2906    2.6022   -0.7470 H         1 <0>         0.1218
     24 H11         4.6880    2.6471   -2.7740 H         1 <0>         0.1334
     25 H12         4.4615    4.4957   -4.3848 H         1 <0>         0.1338
     26 H13         2.8315    6.2947   -3.9731 H         1 <0>         0.1347
     27 H14         1.4282    6.2455   -1.9503 H         1 <0>         0.1299
     28 N2         -1.1071    1.8496    0.0167 N.pl3     1 <0>        -0.4855
     29 H15        -2.0755    1.5083    0.0171 H         1 <0>         0.4781
@<TRIPOS>BOND
     1    1    2 1
     2    1   15 1
     3    1   16 1
     4    1   17 1
     5    2    5 1
     6    2   28 2
     7    3    4 2
     8    3   18 1
     9    3   28 1
    10    4    5 1
    11    4   19 1
    12    5    6 1
    13    6    7 1
    14    6    8 1
    15    6    9 1
    16    8   20 1
    17    8   21 1
    18    8   22 1
    19    9   14 ar
    20    9   10 ar
    21   10   11 ar
    22   10   23 1
    23   11   12 ar
    24   11   24 1
    25   12   13 ar
    26   12   25 1
    27   13   14 ar
    28   13   26 1
    29   14   27 1
    30   28   29 1
@<TRIPOS>MOLECULE
ZINC00008508
   24    25     0     0     0
SMALL
USER_CHARGES
4-[(2-methylimidazol-1-yl)methyl]pyridine
@<TRIPOS>ATOM
      1 C1          1.4565    4.4209    0.0108 C.3       1 <0>        -0.0758
      2 C2          0.6098    3.1743    0.0128 C.2       1 <0>         0.2088
      3 N1         -0.6947    3.1409    0.0248 N.2       1 <0>        -0.4901
      4 C3         -1.1046    1.8638    0.0167 C.2       1 <0>        -0.0242
      5 C4         -0.0126    1.0758    0.0080 C.2       1 <0>        -0.0581
      6 N2          1.0752    1.9066    0.0020 N.pl3     1 <0>        -0.4547
      7 C5          2.4818    1.4971   -0.0131 C.3       1 <0>         0.1449
      8 C6          3.0120    1.4690    1.3972 C.ar      1 <0>        -0.0716
      9 C7          3.5977    2.5938    1.9578 C.ar      1 <0>        -0.1583
     10 C8          4.0689    2.5318    3.2555 C.ar      1 <0>         0.1033
     11 N3          3.9750    1.4177    3.9547 N.ar      1 <0>        -0.4774
     12 C9          3.4285    0.3277    3.4524 C.ar      1 <0>         0.1029
     13 C10         2.9310    0.3161    2.1631 C.ar      1 <0>        -0.1531
     14 H1          1.6507    4.7265   -1.0173 H         1 <0>         0.0823
     15 H2          0.9295    5.2190    0.5337 H         1 <0>         0.0924
     16 H3          2.4018    4.2189    0.5145 H         1 <0>         0.0727
     17 H4         -2.1306    1.5265    0.0194 H         1 <0>         0.1711
     18 H5          0.0021   -0.0041    0.0020 H         1 <0>         0.1744
     19 H6          2.5661    0.5034   -0.4529 H         1 <0>         0.1074
     20 H7          3.0604    2.2066   -0.6048 H         1 <0>         0.1061
     21 H8          3.6816    3.5079    1.3887 H         1 <0>         0.1393
     22 H9          4.5234    3.4046    3.7006 H         1 <0>         0.1610
     23 H10         3.3692   -0.5662    4.0555 H         1 <0>         0.1603
     24 H11         2.4852   -0.5799    1.7570 H         1 <0>         0.1365
@<TRIPOS>BOND
     1    1    2 1
     2    1   14 1
     3    1   15 1
     4    1   16 1
     5    2    6 1
     6    2    3 2
     7    3    4 1
     8    4    5 2
     9    4   17 1
    10    5    6 1
    11    5   18 1
    12    6    7 1
    13    7    8 1
    14    7   19 1
    15    7   20 1
    16    8   13 ar
    17    8    9 ar
    18    9   10 ar
    19    9   21 1
    20   10   11 ar
    21   10   22 1
    22   11   12 ar
    23   12   13 ar
    24   12   23 1
    25   13   24 1
@<TRIPOS>MOLECULE
ZINC26894532
   19    20     0     0     0
SMALL
USER_CHARGES
7-methoxy-1H-indazole
@<TRIPOS>ATOM
      1 C1          1.2500    5.8655    0.0213 C.3       1 <0>         0.0259
      2 O1         -0.0263    5.2228    0.0300 O.3       1 <0>        -0.3239
      3 C2         -0.0329    3.8635    0.0227 C.ar      1 <0>         0.1083
      4 C3          1.1573    3.1635    0.0076 C.ar      1 <0>        -0.1702
      5 C4          1.1589    1.7744    0.0005 C.ar      1 <0>        -0.1206
      6 C5         -0.0126    1.0758    0.0080 C.ar      1 <0>        -0.0778
      7 C6         -1.2355    1.7607    0.0175 C.ar      1 <0>        -0.1505
      8 C7         -1.2435    3.1672    0.0310 C.ar      1 <0>         0.0979
      9 N1         -2.5606    3.5521    0.0466 N.pl3     1 <0>        -0.5044
     10 H1         -2.8213    4.6207    0.0547 H         1 <0>         0.4757
     11 N2         -3.3509    2.3961    0.0490 N.2       1 <0>        -0.2321
     12 C8         -2.5881    1.3418    0.0357 C.2       1 <0>         0.0611
     13 H2          1.1111    6.9567    0.0285 H         1 <0>         0.1032
     14 H3          1.8021    5.5721   -0.8838 H         1 <0>         0.0585
     15 H4          1.8192    5.5624    0.9124 H         1 <0>         0.0585
     16 H5          2.0944    3.7004    0.0015 H         1 <0>         0.1345
     17 H6          2.0983    1.2416   -0.0113 H         1 <0>         0.1293
     18 H7          0.0021   -0.0041    0.0020 H         1 <0>         0.1300
     19 H8         -2.9299    0.3174    0.0338 H         1 <0>         0.1968
@<TRIPOS>BOND
     1    1    2 1
     2    1   13 1
     3    1   14 1
     4    1   15 1
     5    2    3 1
     6    3    8 ar
     7    3    4 ar
     8    4    5 ar
     9    4   16 1
    10    5    6 ar
    11    5   17 1
    12    6    7 ar
    13    6   18 1
    14    7   12 1
    15    7    8 ar
    16    8    9 1
    17    9   10 1
    18    9   11 1
    19   11   12 2
    20   12   19 1
@<TRIPOS>MOLECULE
ZINC04159137
   45    49     0     0     0
SMALL
USER_CHARGES
N-(1-adamantyl)-2-oxo-chromene-3-carboxamide
@<TRIPOS>ATOM
      1 C1         -1.0309   11.4598    1.0386 C.ar      1 <0>        -0.1451
      2 C2         -1.6612   12.1144   -0.0108 C.ar      1 <0>        -0.0479
      3 C3         -2.2510   11.3998   -1.0315 C.ar      1 <0>        -0.1399
      4 C4         -2.2180   10.0095   -1.0163 C.ar      1 <0>         0.1630
      5 C5         -1.5788    9.3484    0.0479 C.ar      1 <0>        -0.1702
      6 C6         -0.9852   10.0962    1.0761 C.ar      1 <0>        -0.0455
      7 C7         -1.5358    7.9316    0.0803 C.2       1 <0>         0.0394
      8 C8         -2.1317    7.2246   -0.9497 C.2       1 <0>        -0.2527
      9 C9         -2.7785    7.9687   -2.0364 C.2       1 <0>         0.5187
     10 O1         -3.3042    7.3677   -2.9545 O.2       1 <0>        -0.4134
     11 O2         -2.7972    9.3118   -2.0167 O.3       1 <0>        -0.2637
     12 C10        -2.1118    5.7520   -0.9578 C.2       1 <0>         0.5700
     13 O3         -2.6388    5.1417   -1.8682 O.2       1 <0>        -0.4950
     14 N1         -1.5095    5.0807    0.0438 N.am      1 <0>        -0.7232
     15 C11        -1.4896    3.6159    0.0357 C.3       1 <0>         0.1868
     16 C12        -0.7734    3.1225   -1.2231 C.3       1 <0>        -0.1237
     17 C13        -0.7527    1.5927   -1.2315 C.3       1 <0>        -0.0822
     18 C14        -0.0127    1.0858    0.0080 C.3       1 <0>        -0.1114
     19 C15        -0.7288    1.5792    1.2668 C.3       1 <0>        -0.0800
     20 C16        -0.7496    3.1091    1.2752 C.3       1 <0>        -0.1144
     21 C17        -2.1642    1.0497    1.2777 C.3       1 <0>        -0.1114
     22 C18        -2.9042    1.5565    0.0381 C.3       1 <0>        -0.0823
     23 C19        -2.1881    1.0631   -1.2207 C.3       1 <0>        -0.1103
     24 C20        -2.9250    3.0863    0.0466 C.3       1 <0>        -0.1237
     25 H1         -0.5734   12.0336    1.8310 H         1 <0>         0.1390
     26 H2         -1.6902   13.1939   -0.0275 H         1 <0>         0.1441
     27 H3         -2.7390   11.9196   -1.8428 H         1 <0>         0.1480
     28 H4         -0.4933    9.5937    1.8958 H         1 <0>         0.1420
     29 H5         -1.0478    7.4141    0.8930 H         1 <0>         0.1528
     30 H6         -1.0891    5.5675    0.7699 H         1 <0>         0.3943
     31 H7          0.2491    3.4998   -1.2308 H         1 <0>         0.0601
     32 H8         -1.3006    3.4836   -2.1062 H         1 <0>         0.0868
     33 H9         -0.2425    1.2411   -2.1283 H         1 <0>         0.0731
     34 H10         0.0021   -0.0041    0.0020 H         1 <0>         0.0655
     35 H11         1.0099    1.4631    0.0003 H         1 <0>         0.0624
     36 H12        -0.2017    1.2182    2.1499 H         1 <0>         0.0755
     37 H13        -1.2598    3.4606    2.1720 H         1 <0>         0.0687
     38 H14         0.2730    3.4864    1.2675 H         1 <0>         0.0687
     39 H15        -2.6744    1.4012    2.1745 H         1 <0>         0.0624
     40 H16        -2.1494   -0.0402    1.2717 H         1 <0>         0.0654
     41 H17        -3.9268    1.1792    0.0459 H         1 <0>         0.0731
     42 H18        -2.7153    1.4241   -2.1037 H         1 <0>         0.0660
     43 H19        -2.1733   -0.0268   -1.2266 H         1 <0>         0.0633
     44 H20        -3.4522    3.4474   -0.8365 H         1 <0>         0.0868
     45 H21        -3.4352    3.4378    0.9434 H         1 <0>         0.0601
@<TRIPOS>BOND
     1    1    6 ar
     2    1    2 ar
     3    1   25 1
     4    2    3 ar
     5    2   26 1
     6    3    4 ar
     7    3   27 1
     8    4   11 1
     9    4    5 ar
    10    5    6 ar
    11    5    7 1
    12    6   28 1
    13    7    8 2
    14    7   29 1
    15    8    9 1
    16    8   12 1
    17    9   10 2
    18    9   11 1
    19   12   13 2
    20   12   14 am
    21   14   15 1
    22   14   30 1
    23   15   20 1
    24   15   24 1
    25   15   16 1
    26   16   17 1
    27   16   31 1
    28   16   32 1
    29   17   23 1
    30   17   18 1
    31   17   33 1
    32   18   19 1
    33   18   34 1
    34   18   35 1
    35   19   20 1
    36   19   21 1
    37   19   36 1
    38   20   37 1
    39   20   38 1
    40   21   22 1
    41   21   39 1
    42   21   40 1
    43   22   23 1
    44   22   24 1
    45   22   41 1
    46   23   42 1
    47   23   43 1
    48   24   44 1
    49   24   45 1
@<TRIPOS>MOLECULE
ZINC13952160
   13    13     0     0     0
SMALL
USER_CHARGES
pyridin-2-amine
@<TRIPOS>ATOM
      1 C1         -1.2206    1.7609    0.0173 C.ar      1 <0>        -0.0333
      2 C2         -0.0126    1.0758    0.0080 C.ar      1 <0>        -0.2360
      3 C3          1.1691    1.7890    0.0005 C.ar      1 <0>         0.1484
      4 N1          1.1632    3.1087    0.0072 N.ar      1 <0>        -0.5484
      5 C4          0.0327    3.7978    0.0212 C.ar      1 <0>         0.4010
      6 C5         -1.1952    3.1436    0.0294 C.ar      1 <0>        -0.2417
      7 N2          0.0730    5.1872    0.0283 N.pl3     1 <0>        -0.8532
      8 H1         -2.1588    1.2259    0.0192 H         1 <0>         0.1330
      9 H2          0.0021   -0.0041    0.0020 H         1 <0>         0.1322
     10 H3          2.1107    1.2603   -0.0113 H         1 <0>         0.1560
     11 H4         -2.1160    3.7079    0.0405 H         1 <0>         0.1298
     12 H5          0.9267    5.6477    0.0230 H         1 <0>         0.4041
     13 H6         -0.7526    5.6963    0.0386 H         1 <0>         0.4081
@<TRIPOS>BOND
     1    1    6 ar
     2    1    2 ar
     3    1    8 1
     4    2    3 ar
     5    2    9 1
     6    3    4 ar
     7    3   10 1
     8    4    5 ar
     9    5    6 ar
    10    5    7 1
    11    6   11 1
    12    7   12 1
    13    7   13 1
@<TRIPOS>MOLECULE
ZINC19796052
   28    27     0     0     0
SMALL
USER_CHARGES

@<TRIPOS>ATOM
      1 C1         -0.0117    1.5287   -0.1466 C.3       1 <0>        -0.1446
      2 C2          0.0130    0.0014   -0.2331 C.3       1 <0>        -0.1246
      3 C3         -1.4208   -0.5325   -0.2382 C.3       1 <0>        -0.0498
      4 H1         -1.9814   -0.0605   -1.0450 H         1 <0>         0.1365
      5 C4         -1.4005   -2.0248   -0.4467 C.2       1 <0>         0.4883
      6 O1         -1.7056   -2.7722    0.4670 O.co2     1 <0>        -0.6698
      7 O2         -1.0790   -2.4848   -1.5291 O.co2     1 <0>        -0.6325
      8 N1         -2.0618   -0.2264    1.0477 N.4       1 <0>        -0.6145
      9 C5          1.4221    2.0625   -0.1416 C.3       1 <0>         0.1026
     10 N2          1.3984    3.5250   -0.0588 N.pl3     1 <0>        -0.6811
     11 C6          2.5553    4.2182   -0.0399 C.2       1 <0>         0.7149
     12 N3          3.7340    3.5650   -0.0974 N.pl3     1 <0>        -0.8398
     13 N4          2.5335    5.5627    0.0362 N.2       1 <0>        -0.5046
     14 N5          3.6342    6.2311   -0.0411 N.pl3     1 <0>         0.1932
     15 O3          4.0483    6.6853   -1.2058 O.2       1 <0>        -0.2350
     16 O4          4.3437    6.4591    1.0447 O.3       1 <0>        -0.2457
     17 H2         -0.5468    1.9327   -1.0060 H         1 <0>         0.0930
     18 H3         -0.5157    1.8325    0.7708 H         1 <0>         0.0705
     19 H4          0.5171   -0.3025   -1.1506 H         1 <0>         0.1174
     20 H5          0.5481   -0.4026    0.6263 H         1 <0>         0.0885
     21 H6         -1.5428   -0.6633    1.7946 H         1 <0>         0.4324
     22 H7         -2.0754    0.7728    1.1873 H         1 <0>         0.4115
     23 H8          1.9572    1.6586    0.7178 H         1 <0>         0.0859
     24 H9          1.9262    1.7587   -1.0591 H         1 <0>         0.0912
     25 H10         0.5508    3.9948   -0.0175 H         1 <0>         0.4331
     26 H11         3.7538    2.5960   -0.0591 H         1 <0>         0.4203
     27 H12         4.5618    4.0643   -0.1769 H         1 <0>         0.4280
     28 H13        -3.0073   -0.5784    1.0444 H         1 <0>         0.4349
@<TRIPOS>BOND
     1    1    2 1
     2    1    9 1
     3    1   17 1
     4    1   18 1
     5    2    3 1
     6    2   19 1
     7    2   20 1
     8    3    4 1
     9    3    5 1
    10    3    8 1
    11    5    6 2
    12    5    7 1
    13    8   21 1
    14    8   22 1
    15    8   28 1
    16    9   10 1
    17    9   23 1
    18    9   24 1
    19   10   11 1
    20   10   25 1
    21   11   12 1
    22   11   13 2
    23   12   26 1
    24   12   27 1
    25   13   14 1
    26   14   15 2
    27   14   16 1
@<TRIPOS>MOLECULE
ZINC19796052
   27    26     0     0     0
SMALL
USER_CHARGES

@<TRIPOS>ATOM
      1 C1         -0.0187    1.5258    0.0104 C.3       1 <0>        -0.1050
      2 C2          0.0021   -0.0041    0.0020 C.3       1 <0>        -0.1256
      3 C3         -1.4333   -0.5336    0.0129 C.3       1 <0>        -0.0468
      4 H1         -1.9862   -0.1019   -0.8214 H         1 <0>         0.1327
      5 C4         -1.4159   -2.0348   -0.1192 C.2       1 <0>         0.4921
      6 O1         -1.7304   -2.7338    0.8289 O.co2     1 <0>        -0.6808
      7 O2         -1.0874   -2.5501   -1.1742 O.co2     1 <0>        -0.6408
      8 N1         -2.0833   -0.1607    1.2764 N.4       1 <0>        -0.6128
      9 C5          1.4167    2.0553   -0.0004 C.3       1 <0>         0.0578
     10 N2          1.3968    3.5202    0.0076 N.2       1 <0>        -0.6142
     11 C6          2.5556    4.2104    0.0003 C.2       1 <0>         0.5440
     12 N3          3.7327    3.5520   -0.0145 N.pl3     1 <0>        -0.8545
     13 N4          2.5374    5.5571    0.0077 N.2       1 <0>        -0.4280
     14 N5          1.4116    6.1868    0.0218 N.pl3     1 <0>         0.2692
     15 O3          0.2801    5.5129    0.0290 O.2       1 <0>        -0.3868
     16 O4          1.3938    7.5037    0.0290 O.3       1 <0>        -0.4347
     17 H2         -0.5459    1.8868   -0.8726 H         1 <0>         0.0743
     18 H3         -0.5289    1.8773    0.9072 H         1 <0>         0.0541
     19 H4          0.5123   -0.3556   -0.8948 H         1 <0>         0.1045
     20 H5          0.5293   -0.3651    0.8851 H         1 <0>         0.0750
     21 H6         -2.0949    0.8443    1.3648 H         1 <0>         0.4188
     22 H7         -3.0299   -0.5100    1.2835 H         1 <0>         0.4273
     23 H8          1.9439    1.6943    0.8826 H         1 <0>         0.0266
     24 H9          1.9269    1.7038   -0.8972 H         1 <0>         0.0313
     25 H10         3.7459    2.5821   -0.0198 H         1 <0>         0.4001
     26 H11         4.5661    4.0484   -0.0198 H         1 <0>         0.3937
     27 H12        -1.5715   -0.5604    2.0487 H         1 <0>         0.4287
@<TRIPOS>BOND
     1    1    2 1
     2    1    9 1
     3    1   17 1
     4    1   18 1
     5    2    3 1
     6    2   19 1
     7    2   20 1
     8    3    4 1
     9    3    5 1
    10    3    8 1
    11    5    6 2
    12    5    7 1
    13    8   21 1
    14    8   22 1
    15    8   27 1
    16    9   10 1
    17    9   23 1
    18    9   24 1
    19   10   11 1
    20   11   12 1
    21   11   13 2
    22   12   25 1
    23   12   26 1
    24   13   14 1
    25   14   15 2
    26   14   16 1
@<TRIPOS>MOLECULE
ZINC24773728
   40    39     0     0     0
SMALL
USER_CHARGES

@<TRIPOS>ATOM
      1 C1         -0.0117    1.5287   -0.1466 C.3       1 <0>        -0.1482
      2 C2          0.0130    0.0014   -0.2331 C.3       1 <0>        -0.1458
      3 C3         -1.4208   -0.5325   -0.2382 C.3       1 <0>         0.0354
      4 H1         -1.9814   -0.0605   -1.0450 H         1 <0>         0.1594
      5 C4         -1.4002   -2.0476   -0.4499 C.3       1 <0>         0.0315
      6 N1         -2.7658   -2.5767   -0.3355 N.3       1 <0>        -0.6879
      7 C5         -2.7848   -4.0321   -0.5335 C.3       1 <0>         0.0273
      8 C6         -4.2207   -4.5453   -0.4073 C.3       1 <0>        -0.0101
      9 N2         -4.2397   -6.0007   -0.6053 N.4       1 <0>        -0.6360
     10 N3         -2.0618   -0.2264    1.0477 N.4       1 <0>        -0.6435
     11 C7          1.4221    2.0625   -0.1416 C.3       1 <0>         0.1054
     12 N4          1.3984    3.5250   -0.0588 N.pl3     1 <0>        -0.6888
     13 C8          2.5553    4.2182   -0.0399 C.2       1 <0>         0.7115
     14 N5          3.7340    3.5650   -0.0974 N.pl3     1 <0>        -0.8398
     15 N6          2.5335    5.5627    0.0362 N.2       1 <0>        -0.4947
     16 N7          3.6342    6.2311   -0.0411 N.pl3     1 <0>         0.1835
     17 O1          4.0483    6.6853   -1.2058 O.2       1 <0>        -0.2223
     18 O2          4.3437    6.4591    1.0447 O.3       1 <0>        -0.2332
     19 H2         -0.5468    1.9327   -1.0060 H         1 <0>         0.1004
     20 H3         -0.5157    1.8325    0.7708 H         1 <0>         0.0759
     21 H4          0.5171   -0.3025   -1.1506 H         1 <0>         0.1254
     22 H5          0.5481   -0.4026    0.6263 H         1 <0>         0.0997
     23 H6         -1.0060   -2.2706   -1.4413 H         1 <0>         0.1313
     24 H7         -0.7663   -2.5115    0.3059 H         1 <0>         0.0719
     25 H8         -3.1772   -2.3270    0.5514 H         1 <0>         0.3368
     26 H9         -2.4003   -4.2689   -1.5255 H         1 <0>         0.1104
     27 H10        -2.1606   -4.5098    0.2217 H         1 <0>         0.0678
     28 H11        -4.6053   -4.3085    0.5847 H         1 <0>         0.1336
     29 H12        -4.8449   -4.0677   -1.1625 H         1 <0>         0.1474
     30 H13        -5.1866   -6.3391   -0.5221 H         1 <0>         0.4488
     31 H14        -3.8837   -6.2199   -1.5237 H         1 <0>         0.4411
     32 H15        -3.0073   -0.5785    1.0444 H         1 <0>         0.4341
     33 H16        -1.5428   -0.6633    1.7946 H         1 <0>         0.4339
     34 H17         1.9572    1.6586    0.7178 H         1 <0>         0.0848
     35 H18         1.9262    1.7587   -1.0591 H         1 <0>         0.0902
     36 H19         0.5508    3.9948   -0.0175 H         1 <0>         0.4340
     37 H20         3.7538    2.5960   -0.0591 H         1 <0>         0.4165
     38 H21         4.5618    4.0643   -0.1769 H         1 <0>         0.4318
     39 H22        -3.6619   -6.4429    0.0937 H         1 <0>         0.4377
     40 H23        -2.0754    0.7728    1.1873 H         1 <0>         0.4431
@<TRIPOS>BOND
     1    1    2 1
     2    1   11 1
     3    1   19 1
     4    1   20 1
     5    2    3 1
     6    2   21 1
     7    2   22 1
     8    3    4 1
     9    3    5 1
    10    3   10 1
    11    5    6 1
    12    5   23 1
    13    5   24 1
    14    6    7 1
    15    6   25 1
    16    7    8 1
    17    7   26 1
    18    7   27 1
    19    8    9 1
    20    8   28 1
    21    8   29 1
    22    9   30 1
    23    9   31 1
    24    9   39 1
    25   10   32 1
    26   10   33 1
    27   10   40 1
    28   11   12 1
    29   11   34 1
    30   11   35 1
    31   12   13 1
    32   12   36 1
    33   13   14 1
    34   13   15 2
    35   14   37 1
    36   14   38 1
    37   15   16 1
    38   16   17 2
    39   16   18 1
@<TRIPOS>MOLECULE
ZINC24773728
   39    38     0     0     0
SMALL
USER_CHARGES

@<TRIPOS>ATOM
      1 C1         -0.0187    1.5258    0.0104 C.3       1 <0>        -0.1086
      2 C2          0.0021   -0.0041    0.0020 C.3       1 <0>        -0.1468
      3 C3         -1.4333   -0.5336    0.0129 C.3       1 <0>         0.0357
      4 H1         -1.9862   -0.1019   -0.8214 H         1 <0>         0.1556
      5 C4         -1.4157   -2.0577   -0.1212 C.3       1 <0>         0.0340
      6 N1         -2.7838   -2.5766    0.0092 N.3       1 <0>        -0.6881
      7 C5         -2.8057   -4.0402   -0.1146 C.3       1 <0>         0.0276
      8 C6         -4.2440   -4.5424    0.0262 C.3       1 <0>        -0.0103
      9 N2         -4.2660   -6.0060   -0.0976 N.4       1 <0>        -0.6355
     10 N3         -2.0833   -0.1607    1.2764 N.4       1 <0>        -0.6408
     11 C7          1.4167    2.0553   -0.0004 C.3       1 <0>         0.0584
     12 N4          1.3968    3.5202    0.0076 N.2       1 <0>        -0.6320
     13 C8          2.5556    4.2104    0.0003 C.2       1 <0>         0.5601
     14 N5          3.7327    3.5520   -0.0145 N.pl3     1 <0>        -0.8521
     15 N6          2.5374    5.5571    0.0077 N.2       1 <0>        -0.4293
     16 N7          1.4116    6.1868    0.0218 N.pl3     1 <0>         0.2675
     17 O1          0.2801    5.5129    0.0290 O.2       1 <0>        -0.3860
     18 O2          1.3938    7.5037    0.0290 O.3       1 <0>        -0.4138
     19 H2         -0.5459    1.8868   -0.8726 H         1 <0>         0.0816
     20 H3         -0.5289    1.8773    0.9072 H         1 <0>         0.0594
     21 H4          0.5123   -0.3556   -0.8948 H         1 <0>         0.1122
     22 H5          0.5293   -0.3651    0.8851 H         1 <0>         0.0863
     23 H6         -1.0145   -2.3319   -1.0969 H         1 <0>         0.1280
     24 H7         -0.7891   -2.4841    0.6622 H         1 <0>         0.0688
     25 H8         -3.2013   -2.2809    0.8789 H         1 <0>         0.3365
     26 H9         -2.4142   -4.3282   -1.0902 H         1 <0>         0.1084
     27 H10        -2.1888   -4.4804    0.6688 H         1 <0>         0.0652
     28 H11        -4.6356   -4.2544    1.0018 H         1 <0>         0.1334
     29 H12        -4.8609   -4.1022   -0.7572 H         1 <0>         0.1473
     30 H13        -3.9035   -6.2726   -1.0007 H         1 <0>         0.4402
     31 H14        -3.6949   -6.4135    0.6277 H         1 <0>         0.4368
     32 H15        -3.0299   -0.5100    1.2835 H         1 <0>         0.4262
     33 H16        -1.5715   -0.5604    2.0487 H         1 <0>         0.4298
     34 H17         1.9439    1.6943    0.8826 H         1 <0>         0.0234
     35 H18         1.9269    1.7038   -0.8972 H         1 <0>         0.0281
     36 H19         3.7459    2.5821   -0.0198 H         1 <0>         0.3977
     37 H20         4.5661    4.0484   -0.0198 H         1 <0>         0.3991
     38 H21        -2.0949    0.8443    1.3648 H         1 <0>         0.4497
     39 H22        -5.2145   -6.3372   -0.0047 H         1 <0>         0.4465
@<TRIPOS>BOND
     1    1    2 1
     2    1   11 1
     3    1   19 1
     4    1   20 1
     5    2    3 1
     6    2   21 1
     7    2   22 1
     8    3    4 1
     9    3    5 1
    10    3   10 1
    11    5    6 1
    12    5   23 1
    13    5   24 1
    14    6    7 1
    15    6   25 1
    16    7    8 1
    17    7   26 1
    18    7   27 1
    19    8    9 1
    20    8   28 1
    21    8   29 1
    22    9   30 1
    23    9   31 1
    24    9   39 1
    25   10   32 1
    26   10   33 1
    27   10   38 1
    28   11   12 1
    29   11   34 1
    30   11   35 1
    31   12   13 1
    32   13   14 1
    33   13   15 2
    34   14   36 1
    35   14   37 1
    36   15   16 1
    37   16   17 2
    38   16   18 1
@<TRIPOS>MOLECULE
ZINC14007939
   15    16     0     0     0
SMALL
USER_CHARGES
4-bromo-1H-indazole
@<TRIPOS>ATOM
      1 C1          1.1605    1.7763    0.0005 C.ar      1 <0>        -0.0650
      2 C2         -0.0126    1.0758    0.0080 C.ar      1 <0>        -0.1252
      3 C3         -1.2271    1.7570    0.0174 C.ar      1 <0>         0.1347
      4 C4         -1.2305    3.1653    0.0298 C.ar      1 <0>        -0.1642
      5 C5         -2.6317    3.5719    0.0449 C.2       1 <0>         0.0814
      6 N1         -3.3595    2.4918    0.0463 N.2       1 <0>        -0.2398
      7 N2         -2.5385    1.3594    0.0330 N.pl3     1 <0>        -0.5082
      8 H1         -2.8574    0.4116    0.0346 H         1 <0>         0.4499
      9 C6         -0.0156    3.8606    0.0220 C.ar      1 <0>        -0.0139
     10 C7          1.1601    3.1654    0.0075 C.ar      1 <0>        -0.1256
     11 Br1        -0.0020    5.7516    0.0320 Br        1 <0>        -0.0392
     12 H2          2.0998    1.2434   -0.0113 H         1 <0>         0.1413
     13 H3          0.0021   -0.0041    0.0020 H         1 <0>         0.1343
     14 H4         -2.9997    4.5873    0.0534 H         1 <0>         0.2004
     15 H5          2.0981    3.7006    0.0018 H         1 <0>         0.1390
@<TRIPOS>BOND
     1    1   10 ar
     2    1    2 ar
     3    1   12 1
     4    2    3 ar
     5    2   13 1
     6    3    7 1
     7    3    4 ar
     8    4    5 1
     9    4    9 ar
    10    5    6 2
    11    5   14 1
    12    6    7 1
    13    7    8 1
    14    9   10 ar
    15    9   11 1
    16   10   15 1
@<TRIPOS>MOLECULE
ZINC08764137
   15    16     0     0     0
SMALL
USER_CHARGES
6-bromo-1H-indazole
@<TRIPOS>ATOM
      1 C1         -2.9775    3.8248    0.0503 C.ar      1 <0>        -0.1363
      2 C2         -1.6454    4.1203    0.0396 C.ar      1 <0>        -0.0290
      3 C3         -0.7040    3.0856    0.0254 C.ar      1 <0>        -0.1717
      4 C4          0.7549    3.0437    0.0112 C.2       1 <0>         0.0775
      5 N1          1.1170    1.7927    0.0010 N.2       1 <0>        -0.2408
      6 N2         -0.0111    0.9658    0.0074 N.pl3     1 <0>        -0.5091
      7 H1          0.0025   -0.0341    0.0057 H         1 <0>         0.4493
      8 C5         -1.1380    1.7457    0.0163 C.ar      1 <0>         0.1319
      9 C6         -2.5024    1.4680    0.0339 C.ar      1 <0>        -0.1126
     10 C7         -3.4100    2.5035    0.0477 C.ar      1 <0>        -0.0404
     11 Br1        -5.2626    2.1247    0.0628 Br        1 <0>        -0.0373
     12 H2         -3.7028    4.6250    0.0612 H         1 <0>         0.1388
     13 H3         -1.3189    5.1498    0.0417 H         1 <0>         0.1401
     14 H4          1.4161    3.8976    0.0095 H         1 <0>         0.2020
     15 H5         -2.8475    0.4446    0.0324 H         1 <0>         0.1375
@<TRIPOS>BOND
     1    1   10 ar
     2    1    2 ar
     3    1   12 1
     4    2    3 ar
     5    2   13 1
     6    3    8 ar
     7    3    4 1
     8    4    5 2
     9    4   14 1
    10    5    6 1
    11    6    7 1
    12    6    8 1
    13    8    9 ar
    14    9   10 ar
    15    9   15 1
    16   10   11 1
@<TRIPOS>MOLECULE
ZINC12336533
   15    16     0     0     0
SMALL
USER_CHARGES
7-chloro-1H-indazole
@<TRIPOS>ATOM
      1 C1          1.1586    1.7762    0.0005 C.ar      1 <0>        -0.1505
      2 C2         -0.0126    1.0758    0.0080 C.ar      1 <0>        -0.0307
      3 C3         -1.2325    1.7610    0.0174 C.ar      1 <0>        -0.1731
      4 C4         -2.6301    1.3407    0.0339 C.2       1 <0>         0.0801
      5 N1         -3.3683    2.4136    0.0467 N.2       1 <0>        -0.2412
      6 N2         -2.5584    3.5540    0.0450 N.pl3     1 <0>        -0.5056
      7 H1         -2.8864    4.4986    0.0531 H         1 <0>         0.4495
      8 C5         -1.2430    3.1689    0.0304 C.ar      1 <0>         0.1365
      9 C6         -0.0344    3.8629    0.0226 C.ar      1 <0>        -0.0642
     10 C7          1.1530    3.1655    0.0076 C.ar      1 <0>        -0.0554
     11 Cl1        -0.0259    5.5988    0.0324 Cl        1 <0>        -0.0663
     12 H2          2.0990    1.2453   -0.0113 H         1 <0>         0.1389
     13 H3          0.0021   -0.0041    0.0020 H         1 <0>         0.1373
     14 H4         -2.9883    0.3219    0.0318 H         1 <0>         0.2030
     15 H5          2.0892    3.7040    0.0015 H         1 <0>         0.1419
@<TRIPOS>BOND
     1    1   10 ar
     2    1    2 ar
     3    1   12 1
     4    2    3 ar
     5    2   13 1
     6    3    8 ar
     7    3    4 1
     8    4    5 2
     9    4   14 1
    10    5    6 1
    11    6    7 1
    12    6    8 1
    13    8    9 ar
    14    9   10 ar
    15    9   11 1
    16   10   15 1
@<TRIPOS>MOLECULE
ZINC13454194
   17    18     0     0     0
SMALL
USER_CHARGES

@<TRIPOS>ATOM
      1 C1         -0.0168    1.3850    0.0097 C.ar      1 <0>        -0.1666
      2 C2         -1.2006    2.0644    0.0189 C.ar      1 <0>         0.0241
      3 C3         -2.4059    1.3541    0.0208 C.ar      1 <0>        -0.1862
      4 C4         -3.8125    1.7428    0.0295 C.2       1 <0>         0.0945
      5 N1         -4.5264    0.6535    0.0270 N.2       1 <0>        -0.2351
      6 H1         -3.9888   -1.3916    0.0128 H         1 <0>         0.4549
      7 N2         -3.6911   -0.4684    0.0170 N.pl3     1 <0>        -0.4844
      8 C5         -2.3847   -0.0542    0.0130 C.ar      1 <0>         0.1746
      9 C6         -1.1617   -0.7198    0.0037 C.ar      1 <0>        -0.0766
     10 C7          0.0021   -0.0041    0.0020 C.ar      1 <0>         0.0103
     11 N3         -1.1225   -2.1994   -0.0048 N.pl3     1 <0>         0.0435
     12 O1         -0.0599   -2.7759   -0.0129 O.2       1 <0>        -0.1481
     13 O2         -2.1532   -2.8314   -0.0035 O.3       1 <0>        -0.1865
     14 H2          0.9141    1.9326    0.0037 H         1 <0>         0.1549
     15 H3         -1.2069    3.1444    0.0252 H         1 <0>         0.1523
     16 H4         -4.1935    2.7534    0.0373 H         1 <0>         0.2117
     17 H5          0.9483   -0.5246   -0.0098 H         1 <0>         0.1626
@<TRIPOS>BOND
     1    1   10 ar
     2    1   14 1
     3    1    2 ar
     4    2   15 1
     5    2    3 ar
     6    3    8 ar
     7    3    4 1
     8    4    5 2
     9    4   16 1
    10    5    7 1
    11    6    7 1
    12    7    8 1
    13    8    9 ar
    14    9   11 1
    15    9   10 ar
    16   10   17 1
    17   11   12 2
    18   11   13 1
@<TRIPOS>MOLECULE
ZINC01529776
   30    29     0     0     0
SMALL
USER_CHARGES

@<TRIPOS>ATOM
      1 C1         -0.0178    1.4608    0.0101 C.3       1 <0>         0.0551
      2 N1          0.0021   -0.0041    0.0020 N.pl3     1 <0>        -0.6967
      3 C2          0.5968   -0.6778   -1.0385 C.cat     1 <0>         0.7320
      4 N2          1.1429   -0.0132   -2.0177 N.pl3     1 <0>        -0.7705
      5 N3          0.6154   -2.0524   -1.0460 N.pl3     1 <0>        -0.7005
      6 C3          1.2492   -2.7703   -2.1547 C.3       1 <0>         0.0939
      7 C4          1.1321   -4.2776   -1.9196 C.3       1 <0>        -0.1464
      8 C5          1.7939   -5.0273   -3.0775 C.3       1 <0>        -0.1250
      9 C6          1.6769   -6.5346   -2.8423 C.3       1 <0>        -0.0511
     10 H1          0.6297   -6.7992   -2.6953 H         1 <0>         0.1370
     11 C7          2.2183   -7.2733   -4.0391 C.2       1 <0>         0.4860
     12 O1          3.2648   -7.8927   -3.9510 O.co2     1 <0>        -0.6645
     13 O2          1.6099   -7.2515   -5.0955 O.co2     1 <0>        -0.6296
     14 N4          2.4479   -6.9052   -1.6482 N.4       1 <0>        -0.6147
     15 H2          1.0048    1.8381    0.0023 H         1 <0>         0.0856
     16 H3         -0.5450    1.8219   -0.8730 H         1 <0>         0.0860
     17 H4         -0.5280    1.8123    0.9069 H         1 <0>         0.1178
     18 H5         -0.4044   -0.4986    0.7308 H         1 <0>         0.4371
     19 H6          1.5625   -0.4885   -2.7518 H         1 <0>         0.4413
     20 H7          0.2090   -2.5470   -0.3173 H         1 <0>         0.4341
     21 H8          0.7517   -2.5086   -3.0886 H         1 <0>         0.0993
     22 H9          2.3015   -2.4924   -2.2133 H         1 <0>         0.0954
     23 H10         1.6295   -4.5394   -0.9857 H         1 <0>         0.0726
     24 H11         0.0798   -4.5556   -1.8610 H         1 <0>         0.0947
     25 H12         1.2965   -4.7656   -4.0114 H         1 <0>         0.1189
     26 H13         2.8463   -4.7494   -3.1361 H         1 <0>         0.0903
     27 H14         2.0854   -6.4107   -0.8469 H         1 <0>         0.4084
     28 H15         2.3707   -7.8993   -1.4931 H         1 <0>         0.4382
     29 H16         1.1298    0.9567   -2.0124 H         1 <0>         0.4423
     30 H17         3.4172   -6.6604   -1.7843 H         1 <0>         0.4331
@<TRIPOS>BOND
     1    1    2 1
     2    1   15 1
     3    1   16 1
     4    1   17 1
     5    2    3 1
     6    2   18 1
     7    3    4 2
     8    3    5 1
     9    4   19 1
    10    4   29 1
    11    5    6 1
    12    5   20 1
    13    6    7 1
    14    6   21 1
    15    6   22 1
    16    7    8 1
    17    7   23 1
    18    7   24 1
    19    8    9 1
    20    8   25 1
    21    8   26 1
    22    9   10 1
    23    9   11 1
    24    9   14 1
    25   11   12 2
    26   11   13 1
    27   14   27 1
    28   14   28 1
    29   14   30 1
@<TRIPOS>MOLECULE
ZINC03874402
   30    29     0     0     0
SMALL
USER_CHARGES

@<TRIPOS>ATOM
      1 C1         -0.0178    1.4608    0.0101 C.3       1 <0>         0.0454
      2 N1          0.0021   -0.0041    0.0020 N.pl3     1 <0>        -0.6589
      3 C2          0.5659   -0.6428   -0.9844 C.cat     1 <0>         0.7310
      4 N2          1.1420    0.0582   -2.0173 N.pl3     1 <0>        -0.8093
      5 N3          0.5845   -2.0175   -0.9920 N.pl3     1 <0>        -0.7009
      6 C3          1.2183   -2.7353   -2.1007 C.3       1 <0>         0.0965
      7 C4          1.1012   -4.2426   -1.8656 C.3       1 <0>        -0.1470
      8 C5          1.7630   -4.9924   -3.0235 C.3       1 <0>        -0.1248
      9 C6          1.6460   -6.4996   -2.7883 C.3       1 <0>        -0.0511
     10 H1          0.5989   -6.7642   -2.6413 H         1 <0>         0.1368
     11 C7          2.1874   -7.2383   -3.9851 C.2       1 <0>         0.4860
     12 O1          3.2339   -7.8577   -3.8970 O.co2     1 <0>        -0.6647
     13 O2          1.5790   -7.2165   -5.0414 O.co2     1 <0>        -0.6296
     14 N4          2.4170   -6.8703   -1.5941 N.4       1 <0>        -0.6147
     15 H2          1.0048    1.8381    0.0023 H         1 <0>         0.0938
     16 H3         -0.5450    1.8219   -0.8730 H         1 <0>         0.0941
     17 H4         -0.5280    1.8123    0.9069 H         1 <0>         0.1205
     18 H5          1.1288    1.0281   -2.0120 H         1 <0>         0.4381
     19 H6          1.5616   -0.4171   -2.7514 H         1 <0>         0.4371
     20 H7          0.1781   -2.5120   -0.2632 H         1 <0>         0.4333
     21 H8          0.7208   -2.4736   -3.0346 H         1 <0>         0.0989
     22 H9          2.2706   -2.4574   -2.1593 H         1 <0>         0.0949
     23 H10         1.5986   -4.5044   -0.9317 H         1 <0>         0.0719
     24 H11         0.0489   -4.5206   -1.8070 H         1 <0>         0.0940
     25 H12         1.2656   -4.7306   -3.9574 H         1 <0>         0.1188
     26 H13         2.8154   -4.7144   -3.0820 H         1 <0>         0.0902
     27 H14         2.0545   -6.3757   -0.7928 H         1 <0>         0.4083
     28 H15         2.3398   -7.8643   -1.4390 H         1 <0>         0.4381
     29 H16        -0.4044   -0.4986    0.7308 H         1 <0>         0.4402
     30 H17         3.3864   -6.6254   -1.7302 H         1 <0>         0.4332
@<TRIPOS>BOND
     1    1    2 1
     2    1   15 1
     3    1   16 1
     4    1   17 1
     5    2    3 2
     6    2   29 1
     7    3    4 1
     8    3    5 1
     9    4   18 1
    10    4   19 1
    11    5    6 1
    12    5   20 1
    13    6    7 1
    14    6   21 1
    15    6   22 1
    16    7    8 1
    17    7   23 1
    18    7   24 1
    19    8    9 1
    20    8   25 1
    21    8   26 1
    22    9   10 1
    23    9   11 1
    24    9   14 1
    25   11   12 2
    26   11   13 1
    27   14   27 1
    28   14   28 1
    29   14   30 1
@<TRIPOS>MOLECULE
ZINC03874404
   30    29     0     0     0
SMALL
USER_CHARGES
2-amino-5-(amino-methylimino-methyl)amino-pentanoic acid
@<TRIPOS>ATOM
      1 C1         -0.7711    1.5979   -7.4623 C.3       1 <0>         0.0585
      2 C2         -0.1175    1.1516   -5.1302 C.cat     1 <0>         0.7312
      3 N1          0.9602    0.4110   -5.5548 N.pl3     1 <0>        -0.8003
      4 N2         -0.3526    1.3147   -3.7855 N.pl3     1 <0>        -0.7002
      5 C3          0.5452    0.6992   -2.8050 C.3       1 <0>         0.0939
      6 C4          0.0625    1.0325   -1.3918 C.3       1 <0>        -0.1459
      7 C5          1.0001    0.3897   -0.3679 C.3       1 <0>        -0.1246
      8 C6          0.5175    0.7229    1.0452 C.3       1 <0>        -0.0175
      9 H1          0.4306    1.8040    1.1541 H         1 <0>         0.1417
     10 C7          1.5070    0.1946    2.0517 C.2       1 <0>         0.4490
     11 O1          1.2878   -0.8458    2.6257 O.co2     1 <0>        -0.6091
     12 H2         -0.8182    0.5501   -7.7591 H         1 <0>         0.0940
     13 H3         -1.5754    2.1498   -7.9487 H         1 <0>         0.1126
     14 H4          0.1896    2.0173   -7.7608 H         1 <0>         0.0944
     15 H5          1.5545    0.0034   -4.9056 H         1 <0>         0.4390
     16 H6          1.1260    0.2959   -6.5035 H         1 <0>         0.4382
     17 H7         -1.1129    1.8374   -3.4860 H         1 <0>         0.4330
     18 H8          1.5550    1.0852   -2.9445 H         1 <0>         0.0991
     19 H9          0.5472   -0.3820   -2.9427 H         1 <0>         0.0950
     20 H10        -0.9473    0.6466   -1.2524 H         1 <0>         0.0727
     21 H11         0.0605    2.1137   -1.2541 H         1 <0>         0.0948
     22 H12         1.0022   -0.6916   -0.5056 H         1 <0>         0.0919
     23 H13         2.0100    0.7756   -0.5073 H         1 <0>         0.1205
     24 H14        -1.4898    0.4859    0.6540 H         1 <0>         0.4147
     25 H15        -0.7393   -0.9022    1.1792 H         1 <0>         0.4360
     26 N3         -0.9713    1.7371   -5.9787 N.pl3     1 <0>        -0.6871
     27 H16        -1.7630    2.2814   -5.6163 H         1 <0>         0.4541
     28 O2          2.6318    0.8799    2.3104 O.co2     1 <0>        -0.6945
     29 N4         -0.7974    0.1078    1.2984 N.4       1 <0>        -0.6281
     30 H17        -1.0874    0.3153    2.2613 H         1 <0>         0.4430
@<TRIPOS>BOND
     1    1   12 1
     2    1   13 1
     3    1   14 1
     4    1   26 1
     5    2    3 1
     6    2    4 1
     7    2   26 2
     8    3   15 1
     9    3   16 1
    10    4    5 1
    11    4   17 1
    12    5    6 1
    13    5   18 1
    14    5   19 1
    15    6    7 1
    16    6   20 1
    17    6   21 1
    18    7    8 1
    19    7   22 1
    20    7   23 1
    21    8    9 1
    22    8   10 1
    23    8   29 1
    24   10   11 2
    25   10   28 1
    26   24   29 1
    27   25   29 1
    28   26   27 1
    29   29   30 1
@<TRIPOS>MOLECULE
ZINC00149580
   17    17     0     0     0
SMALL
USER_CHARGES

@<TRIPOS>ATOM
      1 C1         -0.0184    1.5028    0.0103 C.3       1 <0>        -0.1438
      2 C2          0.0021   -0.0041    0.0020 C.ar      1 <0>         0.0759
      3 C3          0.0062   -0.7075   -1.1955 C.ar      1 <0>        -0.1717
      4 C4          0.0255   -2.0874   -1.1689 C.ar      1 <0>         0.1509
      5 N1          0.0401   -2.7422   -0.0232 N.ar      1 <0>        -0.5075
      6 C5          0.0364   -2.1079    1.1389 C.ar      1 <0>         0.4536
      7 C6          0.0230   -0.7174    1.1866 C.ar      1 <0>        -0.2055
      8 N2          0.0518   -2.8376    2.3220 N.pl3     1 <0>        -0.8226
      9 H1          1.0042    1.8801    0.0026 H         1 <0>         0.1073
     10 H2         -0.5455    1.8639   -0.8728 H         1 <0>         0.0962
     11 H3         -0.5286    1.8543    0.9071 H         1 <0>         0.0936
     12 H4         -0.0061   -0.1802   -2.1379 H         1 <0>         0.1812
     13 H5          0.0284   -2.6383   -2.0978 H         1 <0>         0.2084
     14 H6          0.0246   -0.2022    2.1358 H         1 <0>         0.1787
     15 H7          0.0651   -3.8071    2.2937 H         1 <0>         0.4218
     16 H8          0.0491   -2.3773    3.1758 H         1 <0>         0.4405
     17 H9          0.0536   -3.7120   -0.0328 H         1 <0>         0.4428
@<TRIPOS>BOND
     1    1    2 1
     2    1    9 1
     3    1   10 1
     4    1   11 1
     5    2    7 ar
     6    2    3 ar
     7    3    4 ar
     8    3   12 1
     9    4    5 ar
    10    4   13 1
    11    5    6 ar
    12    5   17 1
    13    6    7 ar
    14    6    8 1
    15    7   14 1
    16    8   15 1
    17    8   16 1
@<TRIPOS>MOLECULE
ZINC40448363
   16    17     0     0     0
SMALL
USER_CHARGES

@<TRIPOS>ATOM
      1 C1         -0.0163    1.3540    0.0095 C.ar      1 <0>        -0.1539
      2 C2          1.1440    2.1183    0.0025 C.ar      1 <0>         0.0024
      3 C3          2.3973    1.5266   -0.0131 C.ar      1 <0>        -0.0178
      4 C4          2.4810    0.0621   -0.0218 C.ar      1 <0>         0.1343
      5 C5          1.2243   -0.7036   -0.0134 C.ar      1 <0>        -0.1714
      6 C6          0.0021   -0.0041    0.0020 C.ar      1 <0>        -0.0075
      7 C7          1.5853   -2.0411   -0.0242 C.2       1 <0>         0.1034
      8 N1          2.9235   -2.1043   -0.0378 N.pl3     1 <0>        -0.3999
      9 H1          3.4421   -2.9240   -0.0473 H         1 <0>         0.4520
     10 N2          3.4628   -0.8126   -0.0362 N.2       1 <0>        -0.2672
     11 Br1         0.4004   -3.5148   -0.0197 Br        1 <0>         0.0524
     12 C8          3.5845    2.3274   -0.0211 C.1       1 <0>         0.2568
     13 N3          4.5262    2.9627   -0.0274 N.1       1 <0>        -0.4088
     14 H2         -0.9705    1.8597    0.0259 H         1 <0>         0.1416
     15 H3          1.0678    3.1956    0.0090 H         1 <0>         0.1461
     16 H4         -0.9285   -0.5522    0.0080 H         1 <0>         0.1374
@<TRIPOS>BOND
     1    1    6 ar
     2    1    2 ar
     3    1   14 1
     4    2    3 ar
     5    2   15 1
     6    3    4 ar
     7    3   12 1
     8    4   10 2
     9    4    5 ar
    10    5    6 ar
    11    5    7 2
    12    6   16 1
    13    7    8 1
    14    7   11 1
    15    8    9 1
    16    8   10 1
    17   12   13 3
@<TRIPOS>MOLECULE
ZINC40448363
   16    17     0     0     0
SMALL
USER_CHARGES

@<TRIPOS>ATOM
      1 C1         -0.0166    1.3722    0.0096 C.ar      1 <0>        -0.1551
      2 C2          1.1650    2.0955    0.0022 C.ar      1 <0>        -0.0034
      3 C3          2.3933    1.4412   -0.0135 C.ar      1 <0>        -0.0529
      4 C4          2.4301    0.0350   -0.0215 C.ar      1 <0>         0.1730
      5 C5          1.2231   -0.6874   -0.0133 C.ar      1 <0>        -0.1591
      6 C6          0.0021   -0.0041    0.0020 C.ar      1 <0>         0.0001
      7 C7          1.5921   -2.1007   -0.0246 C.2       1 <0>         0.0965
      8 N1          2.8931   -2.1699   -0.0379 N.2       1 <0>        -0.2017
      9 N2          3.4412   -0.8832   -0.0364 N.pl3     1 <0>        -0.4896
     10 H1          4.3888   -0.6758   -0.0447 H         1 <0>         0.4487
     11 Br1         0.3967   -3.5660   -0.0206 Br        1 <0>         0.0645
     12 C8          3.6113    2.1943   -0.0221 C.1       1 <0>         0.2460
     13 N3          4.5775    2.7917   -0.0288 N.1       1 <0>        -0.4050
     14 H2         -0.9622    1.8937    0.0260 H         1 <0>         0.1472
     15 H3          1.1328    3.1750    0.0083 H         1 <0>         0.1469
     16 H4         -0.9258   -0.5567    0.0079 H         1 <0>         0.1440
@<TRIPOS>BOND
     1    1    6 ar
     2    1    2 ar
     3    1   14 1
     4    2    3 ar
     5    2   15 1
     6    3    4 ar
     7    3   12 1
     8    4    9 1
     9    4    5 ar
    10    5    6 ar
    11    5    7 1
    12    6   16 1
    13    7    8 2
    14    7   11 1
    15    8    9 1
    16    9   10 1
    17   12   13 3
@<TRIPOS>MOLECULE
ZINC03870920
   17    18     0     0     0
SMALL
USER_CHARGES

@<TRIPOS>ATOM
      1 C1         -0.0168    1.3850    0.0097 C.ar      1 <0>        -0.1565
      2 C2         -1.2007    2.0644    0.0189 C.ar      1 <0>         0.0238
      3 C3         -2.4058    1.3542    0.0208 C.ar      1 <0>        -0.1610
      4 C4         -2.3847   -0.0541    0.0130 C.ar      1 <0>         0.1805
      5 C5         -1.1617   -0.7198    0.0040 C.ar      1 <0>        -0.0724
      6 C6          0.0021   -0.0041    0.0020 C.ar      1 <0>         0.0145
      7 N1         -1.1226   -2.1995   -0.0038 N.pl3     1 <0>         0.0428
      8 O1         -0.0600   -2.7760   -0.0116 O.2       1 <0>        -0.1418
      9 O2         -2.1532   -2.8315   -0.0024 O.3       1 <0>        -0.1839
     10 N2         -3.6911   -0.4684    0.0169 N.pl3     1 <0>        -0.4696
     11 N3         -4.5268    0.6531    0.0270 N.2       1 <0>        -0.1930
     12 H1         -3.9885   -1.3917    0.0128 H         1 <0>         0.4605
     13 C7         -3.8130    1.7431    0.0295 C.2       1 <0>         0.0991
     14 Br1        -4.4803    3.5124    0.0417 Br        1 <0>         0.0749
     15 H2          0.9141    1.9326    0.0037 H         1 <0>         0.1601
     16 H3         -1.2069    3.1444    0.0252 H         1 <0>         0.1553
     17 H4          0.9483   -0.5246   -0.0095 H         1 <0>         0.1670
@<TRIPOS>BOND
     1    1    6 ar
     2    1   15 1
     3    1    2 ar
     4    2   16 1
     5    2    3 ar
     6    3    4 ar
     7    3   13 1
     8    4   10 1
     9    4    5 ar
    10    5    7 1
    11    5    6 ar
    12    6   17 1
    13    7    8 2
    14    7    9 1
    15   10   11 1
    16   10   12 1
    17   11   13 2
    18   13   14 1
@<TRIPOS>MOLECULE
ZINC04217344
   15    15     0     0     0
SMALL
USER_CHARGES

@<TRIPOS>ATOM
      1 C1         -0.0162    1.3469    0.0094 C.2       1 <0>        -0.1875
      2 C2          1.3106    1.7976   -0.0008 C.2       1 <0>         0.1291
      3 N1          2.1001    0.7562   -0.0139 N.2       1 <0>        -0.2737
      4 N2          1.3054   -0.3975   -0.0125 N.pl3     1 <0>        -0.3868
      5 C3          0.0021   -0.0041    0.0020 C.2       1 <0>         0.0448
      6 C4          1.7633   -1.7037   -0.0243 C.cat     1 <0>         0.7853
      7 N3          3.0692   -1.9500   -0.0381 N.pl3     1 <0>        -0.7521
      8 N4          0.8970   -2.7116   -0.0219 N.pl3     1 <0>        -0.7701
      9 H1         -0.8983    1.9699    0.0253 H         1 <0>         0.1871
     10 H2          1.6271    2.8302    0.0017 H         1 <0>         0.2222
     11 H3         -0.8605   -0.6539    0.0073 H         1 <0>         0.2029
     12 H4          3.7015   -1.2144   -0.0398 H         1 <0>         0.4547
     13 H5         -0.0561   -2.5319   -0.0119 H         1 <0>         0.4452
     14 H6          1.2179   -3.6270   -0.0302 H         1 <0>         0.4513
     15 H7          3.3901   -2.8653   -0.0463 H         1 <0>         0.4475
@<TRIPOS>BOND
     1    1    5 2
     2    1    2 1
     3    1    9 1
     4    2    3 2
     5    2   10 1
     6    3    4 1
     7    4    5 1
     8    4    6 1
     9    5   11 1
    10    6    7 2
    11    6    8 1
    12    7   12 1
    13    7   15 1
    14    8   13 1
    15    8   14 1
@<TRIPOS>MOLECULE
ZINC24687750
   46    48     0     0     0
SMALL
USER_CHARGES

@<TRIPOS>ATOM
      1 C1         -0.2646    1.5888    0.6542 C.ar      1 <0>        -0.1050
      2 C2          0.8961    2.3393    0.6234 C.ar      1 <0>        -0.1103
      3 C3          2.0953    1.7448    0.2785 C.ar      1 <0>        -0.0789
      4 C4          2.1346    0.3993   -0.0364 C.ar      1 <0>        -0.0885
      5 C5          0.9736   -0.3521   -0.0057 C.ar      1 <0>        -0.0349
      6 C6         -0.2265    0.2436    0.3401 C.ar      1 <0>        -0.1064
      7 Cl1         1.0221   -2.0417   -0.4015 Cl        1 <0>        -0.0645
      8 C7          3.3600    2.5635    0.2451 C.3       1 <0>         0.1014
      9 N1          4.0030    2.5254    1.5654 N.3       1 <0>        -0.6856
     10 C8          5.2420    3.3146    1.5705 C.3       1 <0>         0.0649
     11 C9          5.8814    3.2510    2.9590 C.3       1 <0>        -0.0911
     12 C10         7.1524    4.0606    2.9643 C.ar      1 <0>        -0.0534
     13 C11         8.3534    3.4615    2.6312 C.ar      1 <0>        -0.0809
     14 C12         9.5201    4.2006    2.6351 C.ar      1 <0>        -0.1509
     15 C13         9.4861    5.5472    2.9740 C.ar      1 <0>         0.0715
     16 C14         8.2781    6.1459    3.3081 C.ar      1 <0>        -0.1021
     17 C15         7.1143    5.4024    3.2968 C.ar      1 <0>        -0.0838
     18 N2         10.6653    6.2982    2.9794 N.pl3     1 <0>        -0.6058
     19 C16        11.6115    6.1053    1.9917 C.cat     1 <0>         0.6430
     20 N3         11.3554    5.3084    0.9883 N.pl3     1 <0>        -0.7345
     21 C17        12.9074    6.7968    2.0695 C.2       1 <0>        -0.3329
     22 C18        14.1410    6.3937    1.5903 C.2       1 <0>        -0.0240
     23 C19        15.1842    7.2635    1.8162 C.2       1 <0>        -0.1939
     24 C20        14.9433    8.4228    2.4729 C.2       1 <0>        -0.1723
     25 S1         13.2960    8.3763    2.7989 S.3       1 <0>         0.3085
     26 H1         -1.2006    2.0529    0.9282 H         1 <0>         0.1344
     27 H2          0.8658    3.3907    0.8686 H         1 <0>         0.1256
     28 H3          3.0715   -0.0650   -0.3066 H         1 <0>         0.1335
     29 H4         -1.1333   -0.3426    0.3642 H         1 <0>         0.1355
     30 H5          4.0392    2.1527   -0.5018 H         1 <0>         0.0843
     31 H6          3.1184    3.5950   -0.0117 H         1 <0>         0.0448
     32 H7          3.3702    2.8411    2.2850 H         1 <0>         0.3466
     33 H8          5.9342    2.9090    0.8328 H         1 <0>         0.0758
     34 H9          5.0135    4.3512    1.3229 H         1 <0>         0.0341
     35 H10         5.1891    3.6566    3.6968 H         1 <0>         0.0828
     36 H11         6.1099    2.2144    3.2066 H         1 <0>         0.0932
     37 H12         8.3792    2.4144    2.3681 H         1 <0>         0.1453
     38 H13        10.4578    3.7320    2.3752 H         1 <0>         0.1342
     39 H14         8.2483    7.1927    3.5721 H         1 <0>         0.1421
     40 H15         6.1740    5.8684    3.5518 H         1 <0>         0.1438
     41 H16        10.8190    6.9548    3.6767 H         1 <0>         0.4446
     42 H17        12.0500    5.1018    0.3435 H         1 <0>         0.4462
     43 H18        14.2772    5.4559    1.0722 H         1 <0>         0.1582
     44 H19        16.1805    7.0243    1.4746 H         1 <0>         0.1589
     45 H20        15.6480    9.2014    2.7251 H         1 <0>         0.2090
     46 H21        10.4707    4.9234    0.8882 H         1 <0>         0.4371
@<TRIPOS>BOND
     1    1    6 ar
     2    1    2 ar
     3    1   26 1
     4    2    3 ar
     5    2   27 1
     6    3    4 ar
     7    3    8 1
     8    4    5 ar
     9    4   28 1
    10    5    6 ar
    11    5    7 1
    12    6   29 1
    13    8    9 1
    14    8   30 1
    15    8   31 1
    16    9   10 1
    17    9   32 1
    18   10   11 1
    19   10   33 1
    20   10   34 1
    21   11   12 1
    22   11   35 1
    23   11   36 1
    24   12   17 ar
    25   12   13 ar
    26   13   14 ar
    27   13   37 1
    28   14   15 ar
    29   14   38 1
    30   15   16 ar
    31   15   18 1
    32   16   17 ar
    33   16   39 1
    34   17   40 1
    35   18   19 1
    36   18   41 1
    37   19   20 2
    38   19   21 1
    39   20   42 1
    40   20   46 1
    41   21   25 1
    42   21   22 2
    43   22   23 1
    44   22   43 1
    45   23   24 2
    46   23   44 1
    47   24   25 1
    48   24   45 1
@<TRIPOS>MOLECULE
ZINC24687750
   45    47     0     0     0
SMALL
USER_CHARGES

@<TRIPOS>ATOM
      1 C1          0.3220    0.6145    0.2037 C.ar      1 <0>        -0.1063
      2 C2          1.4885    1.3555    0.1591 C.ar      1 <0>        -0.1104
      3 C3          2.7119    0.7288    0.3031 C.ar      1 <0>        -0.0725
      4 C4          2.7701   -0.6394    0.4915 C.ar      1 <0>        -0.0885
      5 C5          1.6034   -1.3813    0.5362 C.ar      1 <0>        -0.0349
      6 C6          0.3788   -0.7533    0.3923 C.ar      1 <0>        -0.1100
      7 Cl1         1.6756   -3.0997    0.7721 Cl        1 <0>        -0.0686
      8 C7          3.9828    1.5372    0.2544 C.3       1 <0>         0.0986
      9 N1          4.3298    1.9862    1.6094 N.3       1 <0>        -0.6859
     10 C8          5.5664    2.7793    1.6007 C.3       1 <0>         0.0649
     11 C9          5.8945    3.2279    3.0261 C.3       1 <0>        -0.0755
     12 C10         7.1630    4.0415    3.0172 C.ar      1 <0>        -0.1040
     13 C11         8.3855    3.4124    3.1743 C.ar      1 <0>        -0.0926
     14 C12         9.5506    4.1505    3.1676 C.ar      1 <0>        -0.1667
     15 C13         9.4944    5.5367    3.0012 C.ar      1 <0>         0.1205
     16 C14         8.2565    6.1649    2.8426 C.ar      1 <0>        -0.1242
     17 C15         7.1001    5.4132    2.8462 C.ar      1 <0>        -0.0956
     18 N2         10.6451    6.2748    2.9940 N.2       1 <0>        -0.5669
     19 C16        11.6190    5.9672    2.1639 C.2       1 <0>         0.5102
     20 N3         11.4353    4.9766    1.2219 N.pl3     1 <0>        -0.8674
     21 C17        12.9004    6.6781    2.2405 C.2       1 <0>        -0.1898
     22 C18        14.0379    6.5139    1.4666 C.2       1 <0>        -0.1064
     23 C19        15.0962    7.3366    1.7780 C.2       1 <0>        -0.1810
     24 C20        14.9622    8.2269    2.7902 C.2       1 <0>        -0.2473
     25 S1         13.3966    7.9835    3.3485 S.3       1 <0>         0.2819
     26 H1         -0.6339    1.1053    0.0956 H         1 <0>         0.1329
     27 H2          1.4436    2.4244    0.0113 H         1 <0>         0.1261
     28 H3          3.7262   -1.1291    0.6033 H         1 <0>         0.1342
     29 H4         -0.5324   -1.3320    0.4271 H         1 <0>         0.1334
     30 H5          4.7901    0.9215   -0.1422 H         1 <0>         0.0838
     31 H6          3.8373    2.4045   -0.3896 H         1 <0>         0.0436
     32 H7          6.3846    2.1722    1.2134 H         1 <0>         0.0745
     33 H8          5.4318    3.6551    0.9660 H         1 <0>         0.0326
     34 H9          5.0763    3.8351    3.4134 H         1 <0>         0.0704
     35 H10         6.0291    2.3521    3.6608 H         1 <0>         0.0810
     36 H11         8.4274    2.3409    3.3028 H         1 <0>         0.1219
     37 H12        10.5040    3.6583    3.2911 H         1 <0>         0.1195
     38 H13         8.2055    7.2360    2.7139 H         1 <0>         0.1243
     39 H14         6.1428    5.8969    2.7197 H         1 <0>         0.1217
     40 H15        10.5590    4.5784    1.1014 H         1 <0>         0.4087
     41 H16        14.0908    5.7865    0.6701 H         1 <0>         0.1414
     42 H17        16.0208    7.2731    1.2235 H         1 <0>         0.1358
     43 H18        15.6933    8.9344    3.1525 H         1 <0>         0.1888
     44 H19        12.1823    4.6781    0.6799 H         1 <0>         0.4003
     45 H20         3.5703    2.5053    2.0239 H         1 <0>         0.3434
@<TRIPOS>BOND
     1    1    6 ar
     2    1    2 ar
     3    1   26 1
     4    2    3 ar
     5    2   27 1
     6    3    4 ar
     7    3    8 1
     8    4    5 ar
     9    4   28 1
    10    5    6 ar
    11    5    7 1
    12    6   29 1
    13    8    9 1
    14    8   30 1
    15    8   31 1
    16    9   10 1
    17    9   45 1
    18   10   11 1
    19   10   32 1
    20   10   33 1
    21   11   12 1
    22   11   34 1
    23   11   35 1
    24   12   17 ar
    25   12   13 ar
    26   13   14 ar
    27   13   36 1
    28   14   15 ar
    29   14   37 1
    30   15   16 ar
    31   15   18 1
    32   16   17 ar
    33   16   38 1
    34   17   39 1
    35   18   19 2
    36   19   20 1
    37   19   21 1
    38   20   40 1
    39   20   44 1
    40   21   25 1
    41   21   22 2
    42   22   23 1
    43   22   41 1
    44   23   24 2
    45   23   42 1
    46   24   25 1
    47   24   43 1
@<TRIPOS>MOLECULE
ZINC24687750
   46    48     0     0     0
SMALL
USER_CHARGES
N'-[4-[2-[(3-chlorophenyl)methylamino]ethyl]phenyl]thiophene-2-carboxamidine
@<TRIPOS>ATOM
      1 C1         -1.6827  -10.5968   -0.5964 C.ar      1 <0>        -0.0996
      2 C2         -1.6809   -9.2372   -0.8479 C.ar      1 <0>        -0.0905
      3 C3         -2.4298   -8.3865   -0.0568 C.ar      1 <0>        -0.1500
      4 C4         -3.1894   -8.8958    0.9799 C.ar      1 <0>        -0.0886
      5 C5         -3.1957  -10.2565    1.2287 C.ar      1 <0>        -0.0357
      6 C6         -2.4416  -11.1071    0.4397 C.ar      1 <0>        -0.0774
      7 Cl1        -4.1497  -10.8969    2.5300 Cl        1 <0>        -0.0412
      8 C7         -2.4232   -6.9042   -0.3283 C.3       1 <0>         0.0525
      9 N1         -1.3477   -6.2695    0.4451 N.4       1 <0>        -0.5393
     10 C8         -1.3108   -4.8207    0.2049 C.3       1 <0>        -0.0038
     11 C9         -0.1806   -4.1963    1.0256 C.3       1 <0>        -0.0975
     12 C10        -0.1429   -2.7100    0.7792 C.ar      1 <0>        -0.1207
     13 C11        -0.8841   -1.8601    1.5811 C.ar      1 <0>        -0.0932
     14 C12        -0.8544   -0.4988    1.3615 C.ar      1 <0>        -0.0962
     15 C13        -0.0735    0.0215    0.3263 C.ar      1 <0>         0.1832
     16 C14         0.6682   -0.8432   -0.4827 C.ar      1 <0>        -0.1354
     17 C15         0.6332   -2.2018   -0.2476 C.ar      1 <0>        -0.0927
     18 N2         -0.0396    1.3697    0.1025 N.pl3     1 <0>        -0.6423
     19 C16         0.2720    2.1918    1.0820 C.2       1 <0>         0.4744
     20 C17         0.1876    3.6424    0.8772 C.2       1 <0>        -0.2095
     21 C18         0.4670    4.6672    1.7661 C.2       1 <0>        -0.0951
     22 C19         0.3020    5.9533    1.3099 C.2       1 <0>        -0.1703
     23 C20        -0.1187    6.1554    0.0352 C.2       1 <0>        -0.1768
     24 S1         -0.2943    4.5456   -0.5839 S.3       1 <0>         0.1269
     25 N3          0.6779    1.6898    2.3008 N.2       1 <0>        -0.7502
     26 H1         -1.0941  -11.2606   -1.2123 H         1 <0>         0.1459
     27 H2         -1.0912   -8.8394   -1.6605 H         1 <0>         0.1385
     28 H3         -3.7775   -8.2314    1.5956 H         1 <0>         0.1419
     29 H4         -2.4464  -12.1696    0.6332 H         1 <0>         0.1463
     30 H5         -2.2560   -6.7287   -1.4013 H         1 <0>         0.1382
     31 H6         -3.3910   -6.4730   -0.0327 H         1 <0>         0.1368
     32 H7         -1.5150   -6.4450    1.5181 H         1 <0>         0.4496
     33 H8         -1.1357   -4.6307   -0.8643 H         1 <0>         0.1303
     34 H9         -2.2708   -4.3748    0.5042 H         1 <0>         0.1302
     35 H10        -0.3556   -4.3864    2.0948 H         1 <0>         0.0945
     36 H11         0.7794   -4.6421    0.7263 H         1 <0>         0.0944
     37 H12        -1.4870   -2.2637    2.3811 H         1 <0>         0.1246
     38 H13        -1.4331    0.1634    1.9884 H         1 <0>         0.1278
     39 H14         1.2708   -0.4484   -1.2873 H         1 <0>         0.1297
     40 H15         1.2094   -2.8711   -0.8693 H         1 <0>         0.1256
     41 H16         0.7995    4.4647    2.7734 H         1 <0>         0.1426
     42 H17         0.5050    6.7931    1.9579 H         1 <0>         0.1434
     43 H18        -0.2962    7.0922   -0.4720 H         1 <0>         0.1931
     44 H19         0.9383    2.3768    3.1194 H         1 <0>         0.3450
     45 H20        -0.2727    1.7675   -0.8962 H         1 <0>         0.4413
     46 H21        -0.3799   -6.7007    0.1496 H         1 <0>         0.4492
@<TRIPOS>BOND
     1    1    6 ar
     2    1    2 ar
     3    1   26 1
     4    2    3 ar
     5    2   27 1
     6    3    4 ar
     7    3    8 1
     8    4    5 ar
     9    4   28 1
    10    5    6 ar
    11    5    7 1
    12    6   29 1
    13    8    9 1
    14    8   30 1
    15    8   31 1
    16    9   10 1
    17    9   32 1
    18    9   46 1
    19   10   11 1
    20   10   33 1
    21   10   34 1
    22   11   12 1
    23   11   35 1
    24   11   36 1
    25   12   17 ar
    26   12   13 ar
    27   13   14 ar
    28   13   37 1
    29   14   15 ar
    30   14   38 1
    31   15   16 ar
    32   15   18 1
    33   16   17 ar
    34   16   39 1
    35   17   40 1
    36   18   19 1
    37   18   45 1
    38   19   20 1
    39   19   25 2
    40   20   24 1
    41   20   21 2
    42   21   22 1
    43   21   41 1
    44   22   23 2
    45   22   42 1
    46   23   24 1
    47   23   43 1
    48   25   44 1
@<TRIPOS>MOLECULE
ZINC19118456
   19    19     0     0     0
SMALL
USER_CHARGES
4,6-dimethylpyridin-2-amine
@<TRIPOS>ATOM
      1 C1          2.5052    1.0828   -0.0150 C.3       1 <0>        -0.1181
      2 C2          1.1764    1.7935    0.0005 C.ar      1 <0>         0.0021
      3 C3         -0.0126    1.0758    0.0080 C.ar      1 <0>        -0.2359
      4 C4         -1.2132    1.7566    0.0173 C.ar      1 <0>         0.1793
      5 N1         -1.2430    3.0760    0.0299 N.ar      1 <0>        -0.5516
      6 C5         -0.1317    3.7956    0.0227 C.ar      1 <0>         0.4101
      7 C6          1.1135    3.1750    0.0080 C.ar      1 <0>        -0.2502
      8 N2         -0.2097    5.1834    0.0304 N.pl3     1 <0>        -0.8531
      9 C7         -2.5066    0.9834    0.0197 C.3       1 <0>        -0.1059
     10 H1          2.8162    0.9163   -1.0464 H         1 <0>         0.0777
     11 H2          3.2500    1.6938    0.4949 H         1 <0>         0.0705
     12 H3          2.4106    0.1243    0.4952 H         1 <0>         0.0725
     13 H4          0.0021   -0.0041    0.0020 H         1 <0>         0.1307
     14 H5          2.0187    3.7642    0.0021 H         1 <0>         0.1286
     15 H6          0.6018    5.7148    0.0255 H         1 <0>         0.4079
     16 H7         -1.0756    5.6205    0.0407 H         1 <0>         0.4037
     17 H8         -2.8135    0.7917    1.0479 H         1 <0>         0.0792
     18 H9         -3.2777    1.5634   -0.4874 H         1 <0>         0.0763
     19 H10        -2.3644    0.0357   -0.4997 H         1 <0>         0.0763
@<TRIPOS>BOND
     1    1    2 1
     2    1   10 1
     3    1   11 1
     4    1   12 1
     5    2    7 ar
     6    2    3 ar
     7    3    4 ar
     8    3   13 1
     9    4    5 ar
    10    4    9 1
    11    5    6 ar
    12    6    7 ar
    13    6    8 1
    14    7   14 1
    15    8   15 1
    16    8   16 1
    17    9   17 1
    18    9   18 1
    19    9   19 1
@<TRIPOS>MOLECULE
ZINC13780218
   34    34     0     0     0
SMALL
USER_CHARGES
N-(5-methyl-2-nitro-phenyl)butane-1,4-diamine
@<TRIPOS>ATOM
      1 C1          0.1049   -5.1076    0.3348 C.3       1 <0>        -0.1285
      2 C2          0.5576   -4.1150   -0.7048 C.ar      1 <0>         0.0204
      3 C3          1.1381   -4.5603   -1.8785 C.ar      1 <0>        -0.1725
      4 C4          1.5553   -3.6529   -2.8347 C.ar      1 <0>        -0.0037
      5 C5          1.3935   -2.2980   -2.6205 C.ar      1 <0>        -0.1295
      6 C6          0.8110   -1.8474   -1.4429 C.ar      1 <0>         0.2844
      7 C7          0.3981   -2.7617   -0.4817 C.ar      1 <0>        -0.2092
      8 N1          0.6458   -0.4780   -1.2231 N.pl3     1 <0>        -0.7297
      9 C8         -0.0739   -0.0082   -0.0367 C.3       1 <0>         0.1150
     10 C9         -0.1123    1.5213   -0.0359 C.3       1 <0>        -0.1326
     11 C10        -0.8639    2.0120    1.2031 C.3       1 <0>        -0.1487
     12 C11        -0.9023    3.5415    1.2039 C.3       1 <0>        -0.0047
     13 N2          1.8409   -1.3274   -3.6444 N.pl3     1 <0>         0.0517
     14 O1          2.2487   -1.7232   -4.7217 O.2       1 <0>        -0.1467
     15 O2          1.8012   -0.1329   -3.4097 O.3       1 <0>        -0.2112
     16 H1          0.9223   -5.3060    1.0281 H         1 <0>         0.0870
     17 H2         -0.7446   -4.6988    0.8819 H         1 <0>         0.0750
     18 H3         -0.1905   -6.0362   -0.1538 H         1 <0>         0.0814
     19 H4          1.2661   -5.6191   -2.0484 H         1 <0>         0.1473
     20 H5          2.0085   -4.0039   -3.7500 H         1 <0>         0.1560
     21 H6         -0.0512   -2.4144    0.4370 H         1 <0>         0.1412
     22 H7          1.0077    0.1619   -1.8559 H         1 <0>         0.4209
     23 H8          0.4361   -0.3593    0.8604 H         1 <0>         0.0695
     24 H9         -1.0920   -0.3972   -0.0516 H         1 <0>         0.0692
     25 H10         0.9058    1.9103   -0.0210 H         1 <0>         0.0858
     26 H11        -0.6222    1.8724   -0.9330 H         1 <0>         0.0856
     27 H12        -1.8821    1.6230    1.1882 H         1 <0>         0.0920
     28 H13        -0.3540    1.6609    2.1002 H         1 <0>         0.0917
     29 H14         0.1158    3.9305    1.2188 H         1 <0>         0.1341
     30 H15        -1.4123    3.8926    0.3068 H         1 <0>         0.1368
     31 H16        -1.6631    5.0206    2.4171 H         1 <0>         0.4421
     32 H17        -2.5498    3.6138    2.4363 H         1 <0>         0.4376
     33 N3         -1.6090    4.0034    2.4116 N.4       1 <0>        -0.6472
     34 H18        -1.0950    3.6908    3.2437 H         1 <0>         0.4399
@<TRIPOS>BOND
     1    1    2 1
     2    1   16 1
     3    1   17 1
     4    1   18 1
     5    2    7 ar
     6    2    3 ar
     7    3    4 ar
     8    3   19 1
     9    4    5 ar
    10    4   20 1
    11    5    6 ar
    12    5   13 1
    13    6    7 ar
    14    6    8 1
    15    7   21 1
    16    8    9 1
    17    8   22 1
    18    9   10 1
    19    9   23 1
    20    9   24 1
    21   10   11 1
    22   10   25 1
    23   10   26 1
    24   11   12 1
    25   11   27 1
    26   11   28 1
    27   12   29 1
    28   12   30 1
    29   12   33 1
    30   13   14 2
    31   13   15 1
    32   31   33 1
    33   32   33 1
    34   33   34 1
@<TRIPOS>MOLECULE
ZINC13551344
   25    24     0     0     0
SMALL
USER_CHARGES

@<TRIPOS>ATOM
      1 C1         -0.0187    1.5258    0.0104 C.3       1 <0>        -0.1458
      2 C2          0.0021   -0.0041    0.0020 C.3       1 <0>        -0.1242
      3 C3         -1.4333   -0.5336    0.0129 C.3       1 <0>        -0.0485
      4 H1         -1.9862   -0.1019   -0.8214 H         1 <0>         0.1336
      5 C4         -1.4159   -2.0348   -0.1192 C.2       1 <0>         0.4870
      6 O1         -1.3670   -2.7340    0.8784 O.co2     1 <0>        -0.6666
      7 O2         -1.4508   -2.5500   -1.2236 O.co2     1 <0>        -0.6344
      8 N1         -2.0833   -0.1607    1.2764 N.4       1 <0>        -0.6153
      9 C5          1.4167    2.0553   -0.0004 C.3       1 <0>         0.1215
     10 N2          1.3968    3.5202    0.0076 N.pl3     1 <0>        -0.6878
     11 C6          2.5547    4.2099    0.0003 C.2       1 <0>         0.5677
     12 N3          2.5365    5.5575    0.0077 N.pl3     1 <0>        -0.8045
     13 S1          4.0488    3.3742   -0.0185 S.2       1 <0>        -0.6283
     14 H2         -0.5459    1.8868   -0.8726 H         1 <0>         0.0831
     15 H3         -0.5289    1.8773    0.9072 H         1 <0>         0.0614
     16 H4          0.5123   -0.3556   -0.8948 H         1 <0>         0.1143
     17 H5          0.5293   -0.3651    0.8851 H         1 <0>         0.0922
     18 H6         -1.5715   -0.5604    2.0487 H         1 <0>         0.4342
     19 H7         -2.0949    0.8443    1.3648 H         1 <0>         0.4108
     20 H8          1.9439    1.6943    0.8826 H         1 <0>         0.0940
     21 H9          1.9269    1.7038   -0.8972 H         1 <0>         0.0971
     22 H10         0.5503    3.9937    0.0183 H         1 <0>         0.3964
     23 H11         1.6900    6.0310    0.0183 H         1 <0>         0.3958
     24 H12        -3.0299   -0.5100    1.2835 H         1 <0>         0.4315
     25 H13         3.3698    6.0539    0.0024 H         1 <0>         0.4346
@<TRIPOS>BOND
     1    1    2 1
     2    1    9 1
     3    1   14 1
     4    1   15 1
     5    2    3 1
     6    2   16 1
     7    2   17 1
     8    3    4 1
     9    3    5 1
    10    3    8 1
    11    5    6 2
    12    5    7 1
    13    8   18 1
    14    8   19 1
    15    8   24 1
    16    9   10 1
    17    9   20 1
    18    9   21 1
    19   10   11 1
    20   10   22 1
    21   11   12 1
    22   11   13 2
    23   12   23 1
    24   12   25 1
