@<TRIPOS>MOLECULE
ZINC01906908
   45    48     0     0     0
SMALL
USER_CHARGES

@<TRIPOS>ATOM
      1 C1          0.0383    1.6300   -0.1856 C.3       1 <0>        -0.1730
      2 C2         -0.1218    0.1320    0.0813 C.3       1 <0>         0.1103
      3 N1         -1.5432   -0.2210    0.0469 N.pl3     1 <0>        -0.5048
      4 C3         -2.3902   -0.1992    1.1403 C.ar      1 <0>         0.1475
      5 C4         -2.1860    0.1296    2.4773 C.ar      1 <0>        -0.1452
      6 C5         -3.2320    0.0619    3.3719 C.ar      1 <0>        -0.0821
      7 C6         -4.4937   -0.3327    2.9535 C.ar      1 <0>        -0.1544
      8 C7         -4.7156   -0.6622    1.6339 C.ar      1 <0>        -0.0595
      9 C8         -3.6673   -0.5978    0.7189 C.ar      1 <0>        -0.1077
     10 C9         -3.5648   -0.8740   -0.7260 C.ar      1 <0>        -0.0827
     11 C10        -2.2334   -0.6189   -1.0867 C.ar      1 <0>         0.1275
     12 C11        -1.8389   -0.7912   -2.4098 C.ar      1 <0>        -0.1212
     13 C12        -2.7515   -1.2051   -3.3555 C.ar      1 <0>        -0.1028
     14 C13        -4.0736   -1.4544   -2.9999 C.ar      1 <0>         0.1340
     15 C14        -4.4803   -1.2968   -1.6862 C.ar      1 <0>        -0.0985
     16 N2         -4.9925   -1.8747   -3.9716 N.am      1 <0>        -0.6784
     17 C15        -4.7667   -1.6070   -5.2731 C.2       1 <0>         0.7125
     18 O1         -3.6953   -1.1507   -5.6230 O.2       1 <0>        -0.5671
     19 N3         -5.7285   -1.8450   -6.1868 N.am      1 <0>        -0.6298
     20 C16        -7.0889   -2.2243   -5.7733 C.3       1 <0>         0.0721
     21 C17        -8.0861   -1.3123   -6.4970 C.3       1 <0>         0.0482
     22 O2         -7.8178   -1.3418   -7.9009 O.3       1 <0>        -0.3768
     23 C18        -6.5266   -0.8447   -8.2606 C.3       1 <0>         0.0463
     24 C19        -5.4510   -1.7273   -7.6271 C.3       1 <0>         0.0931
     25 H1          1.0958    1.8927   -0.1600 H         1 <0>         0.0743
     26 H2         -0.3721    1.8702   -1.1664 H         1 <0>         0.0624
     27 H3         -0.4949    2.1944    0.5795 H         1 <0>         0.0615
     28 H4          0.4114   -0.4323   -0.6838 H         1 <0>         0.0876
     29 H5          0.2886   -0.1082    1.0621 H         1 <0>         0.0868
     30 H6         -1.2071    0.4375    2.8138 H         1 <0>         0.1215
     31 H7         -3.0675    0.3182    4.4080 H         1 <0>         0.1279
     32 H8         -5.3052   -0.3824    3.6643 H         1 <0>         0.1260
     33 H9         -5.6991   -0.9697    1.3103 H         1 <0>         0.1235
     34 H10        -0.8153   -0.5997   -2.6962 H         1 <0>         0.1257
     35 H11        -2.4384   -1.3368   -4.3807 H         1 <0>         0.1708
     36 H12        -5.5064   -1.4892   -1.4095 H         1 <0>         0.1264
     37 H13        -5.7908   -2.3582   -3.7073 H         1 <0>         0.4066
     38 H14        -7.2785   -3.2631   -6.0435 H         1 <0>         0.0832
     39 H15        -7.1930   -2.0999   -4.6954 H         1 <0>         0.0875
     40 H16        -9.1012   -1.6642   -6.3128 H         1 <0>         0.1098
     41 H17        -7.9810   -0.2922   -6.1276 H         1 <0>         0.0579
     42 H18        -6.4197   -0.8602   -9.3452 H         1 <0>         0.1109
     43 H19        -6.4158    0.1771   -7.8976 H         1 <0>         0.0579
     44 H20        -4.4710   -1.2739   -7.7762 H         1 <0>         0.1065
     45 H21        -5.4728   -2.7152   -8.0871 H         1 <0>         0.0777
@<TRIPOS>BOND
     1    1    2 1
     2    1   25 1
     3    1   26 1
     4    1   27 1
     5    2    3 1
     6    2   28 1
     7    2   29 1
     8    3   11 1
     9    3    4 1
    10    4    9 ar
    11    4    5 ar
    12    5    6 ar
    13    5   30 1
    14    6    7 ar
    15    6   31 1
    16    7    8 ar
    17    7   32 1
    18    8    9 ar
    19    8   33 1
    20    9   10 1
    21   10   15 ar
    22   10   11 ar
    23   11   12 ar
    24   12   13 ar
    25   12   34 1
    26   13   14 ar
    27   13   35 1
    28   14   15 ar
    29   14   16 1
    30   15   36 1
    31   16   17 am
    32   16   37 1
    33   17   18 2
    34   17   19 am
    35   19   24 1
    36   19   20 1
    37   20   21 1
    38   20   38 1
    39   20   39 1
    40   21   22 1
    41   21   40 1
    42   21   41 1
    43   22   23 1
    44   23   24 1
    45   23   42 1
    46   23   43 1
    47   24   44 1
    48   24   45 1
@<TRIPOS>MOLECULE
ZINC00010037
   43    46     0     0     0
SMALL
USER_CHARGES

@<TRIPOS>ATOM
      1 C1         -0.0184    1.5028    0.0103 C.3       1 <0>        -0.1179
      2 C2          0.0021   -0.0041    0.0020 C.ar      1 <0>        -0.0761
      3 C3          0.0057   -0.6865   -1.2011 C.ar      1 <0>        -0.1245
      4 C4          0.0239   -2.0666   -1.2145 C.ar      1 <0>        -0.0860
      5 C5          0.0392   -2.7722   -0.0132 C.ar      1 <0>        -0.0266
      6 C6          0.0359   -2.0797    1.1957 C.ar      1 <0>        -0.0857
      7 C7          0.0229   -0.6995    1.1975 C.ar      1 <0>        -0.1227
      8 C8          0.0583   -4.2563   -0.0214 C.2       1 <0>         0.1318
      9 C9          0.0692   -5.0881    1.1137 C.2       1 <0>        -0.2608
     10 C10         0.0858   -6.3771    0.6837 C.2       1 <0>         0.3063
     11 N1          0.0854   -6.3596   -0.6750 N.pl3     1 <0>        -0.4888
     12 H1          0.0953   -7.1371   -1.2550 H         1 <0>         0.4382
     13 N2          0.0623   -5.0225   -1.0914 N.2       1 <0>        -0.2729
     14 N3          0.1013   -7.5138    1.4919 N.am      1 <0>        -0.6495
     15 C11         0.1006   -7.3868    2.8337 C.2       1 <0>         0.5323
     16 O1          0.0866   -6.2840    3.3384 O.2       1 <0>        -0.4945
     17 C12         0.1174   -8.6149    3.7068 C.3       1 <0>        -0.1047
     18 C13         1.4556   -9.3709    3.5649 C.3       1 <0>        -0.0713
     19 C14         1.7457   -9.9250    4.9433 C.ar      1 <0>        -0.1021
     20 C15         2.6159  -10.9253    5.3435 C.ar      1 <0>        -0.1031
     21 C16         2.7153  -11.2672    6.6778 C.ar      1 <0>        -0.1195
     22 C17         1.9439  -10.6094    7.6179 C.ar      1 <0>        -0.1153
     23 C18         1.0755   -9.6117    7.2207 C.ar      1 <0>        -0.1049
     24 C19         0.9745   -9.2674    5.8831 C.ar      1 <0>        -0.0933
     25 C20         0.1134   -8.2262    5.2006 C.3       1 <0>        -0.0681
     26 H2          1.0042    1.8801    0.0026 H         1 <0>         0.0722
     27 H3         -0.5455    1.8639   -0.8728 H         1 <0>         0.0673
     28 H4         -0.5286    1.8543    0.9071 H         1 <0>         0.0677
     29 H5         -0.0062   -0.1386   -2.1317 H         1 <0>         0.1253
     30 H6          0.0260   -2.5985   -2.1544 H         1 <0>         0.1289
     31 H7          0.0473   -2.6218    2.1297 H         1 <0>         0.1297
     32 H8          0.0244   -0.1616    2.1340 H         1 <0>         0.1267
     33 H9          0.0657   -4.7605    2.1428 H         1 <0>         0.1763
     34 H10         0.1126   -8.3958    1.0883 H         1 <0>         0.4141
     35 H11        -0.7254   -9.2657    3.4736 H         1 <0>         0.1163
     36 H12         1.3568  -10.1825    2.8440 H         1 <0>         0.0859
     37 H13         2.2462   -8.6859    3.2585 H         1 <0>         0.0865
     38 H14         3.2186  -11.4398    4.6097 H         1 <0>         0.1212
     39 H15         3.3947  -12.0479    6.9866 H         1 <0>         0.1256
     40 H16         2.0201  -10.8758    8.6618 H         1 <0>         0.1259
     41 H17         0.4733   -9.0983    7.9557 H         1 <0>         0.1228
     42 H18         0.5430   -7.2334    5.3342 H         1 <0>         0.1024
     43 H19        -0.9017   -8.2564    5.5965 H         1 <0>         0.0848
@<TRIPOS>BOND
     1    1    2 1
     2    1   26 1
     3    1   27 1
     4    1   28 1
     5    2    7 ar
     6    2    3 ar
     7    3    4 ar
     8    3   29 1
     9    4    5 ar
    10    4   30 1
    11    5    6 ar
    12    5    8 1
    13    6    7 ar
    14    6   31 1
    15    7   32 1
    16    8   13 2
    17    8    9 1
    18    9   10 2
    19    9   33 1
    20   10   11 1
    21   10   14 1
    22   11   12 1
    23   11   13 1
    24   14   15 am
    25   14   34 1
    26   15   16 2
    27   15   17 1
    28   17   25 1
    29   17   18 1
    30   17   35 1
    31   18   19 1
    32   18   36 1
    33   18   37 1
    34   19   24 ar
    35   19   20 ar
    36   20   21 ar
    37   20   38 1
    38   21   22 ar
    39   21   39 1
    40   22   23 ar
    41   22   40 1
    42   23   24 ar
    43   23   41 1
    44   24   25 1
    45   25   42 1
    46   25   43 1
@<TRIPOS>MOLECULE
ZINC03828640
   64    68     0     0     0
SMALL
USER_CHARGES

@<TRIPOS>ATOM
      1 C1          2.4030   -3.5768   -2.0092 C.ar      1 <0>        -0.1203
      2 C2          3.6670   -3.0308   -2.2260 C.ar      1 <0>        -0.0806
      3 C3          4.1055   -1.9679   -1.4981 C.ar      1 <0>        -0.1408
      4 C4          3.2737   -1.4096   -0.5123 C.ar      1 <0>         0.0301
      5 C5          1.9881   -1.9645   -0.2921 C.ar      1 <0>        -0.0755
      6 C6          1.5704   -3.0626   -1.0635 C.ar      1 <0>        -0.0905
      7 C7          1.1563   -1.4060    0.6930 C.ar      1 <0>        -0.0358
      8 C8          1.5947   -0.3425    1.4208 C.ar      1 <0>        -0.1522
      9 C9          2.8583    0.2032    1.2041 C.ar      1 <0>         0.0093
     10 C10         3.6914   -0.3118    0.2587 C.ar      1 <0>        -0.6758
     11 S1          5.2853    0.3945    0.0034 S.o2      1 <0>         2.6957
     12 O1          5.3860    1.5007    0.8896 O.2       1 <0>        -0.9606
     13 O2          6.2136   -0.6813    0.0193 O.2       1 <0>        -0.9492
     14 N1          5.3058    1.0147   -1.5320 N.pl3     1 <0>        -1.1160
     15 C11         4.4105    2.1181   -1.8883 C.3       1 <0>         0.1171
     16 C12         4.8902    2.7643   -3.1895 C.3       1 <0>        -0.0952
     17 C13         6.2587    3.4102   -2.9638 C.3       1 <0>        -0.1158
     18 C14         6.1448    4.4793   -1.8752 C.3       1 <0>        -0.1217
     19 C15         5.1422    5.5487   -2.3134 C.3       1 <0>        -0.0956
     20 C16         3.7737    4.9028   -2.5391 C.3       1 <0>        -0.1255
     21 C17         3.8876    3.8337   -3.6277 C.3       1 <0>        -0.1134
     22 C18         5.0283    6.6177   -1.2248 C.3       1 <0>         0.0885
     23 N2          4.1608    7.7013   -1.6934 N.pl3     1 <0>        -0.6662
     24 C19         3.9075    8.7873   -0.8752 C.ar      1 <0>         0.6845
     25 N3          4.4656    8.8219    0.3199 N.ar      1 <0>        -0.5846
     26 C20         4.2448    9.8579    1.1425 C.ar      1 <0>         0.2022
     27 C21         4.8216    9.9274    2.4180 C.ar      1 <0>        -0.1475
     28 C22         4.5652   11.0033    3.2152 C.ar      1 <0>        -0.0186
     29 C23         3.7380   12.0356    2.7823 C.ar      1 <0>        -0.1209
     30 C24         3.1607   11.9993    1.5468 C.ar      1 <0>        -0.0370
     31 C25         3.4039   10.9096    0.7040 C.ar      1 <0>        -0.1948
     32 C26         2.8323   10.8181   -0.5896 C.ar      1 <0>         0.5606
     33 N4          3.1160    9.7554   -1.3282 N.ar      1 <0>        -0.5977
     34 N5          2.0062   11.8119   -1.0692 N.pl3     1 <0>        -0.7694
     35 H1          2.0778   -4.4178   -2.6036 H         1 <0>         0.1319
     36 H2          4.3081   -3.4580   -2.9829 H         1 <0>         0.1328
     37 H3          5.0877   -1.5558   -1.6767 H         1 <0>         0.1313
     38 H4          0.5936   -3.4958   -0.9069 H         1 <0>         0.1342
     39 H5          0.1742   -1.8182    0.8715 H         1 <0>         0.1385
     40 H6          0.9534    0.0849    2.1774 H         1 <0>         0.1364
     41 H7          3.1817    1.0473    1.7952 H         1 <0>         0.1434
     42 H8          5.9106    0.6473   -2.1954 H         1 <0>         0.4207
     43 H9          3.3988    1.7358   -2.0240 H         1 <0>         0.0668
     44 H10         4.4142    2.8611   -1.0907 H         1 <0>         0.0824
     45 H11         4.9714    2.0027   -3.9650 H         1 <0>         0.0867
     46 H12         6.9730    2.6484   -2.6516 H         1 <0>         0.0741
     47 H13         6.6005    3.8706   -3.8908 H         1 <0>         0.0711
     48 H14         5.8030    4.0189   -0.9482 H         1 <0>         0.0792
     49 H15         7.1198    4.9394   -1.7144 H         1 <0>         0.0726
     50 H16         5.4840    6.0090   -3.2404 H         1 <0>         0.0914
     51 H17         3.4319    4.4424   -1.6121 H         1 <0>         0.0729
     52 H18         3.0594    5.6646   -2.8514 H         1 <0>         0.0650
     53 H19         4.2294    4.2941   -4.5547 H         1 <0>         0.0738
     54 H20         2.9127    3.3736   -3.7885 H         1 <0>         0.0731
     55 H21         4.6027    6.1752   -0.3242 H         1 <0>         0.0902
     56 H22         6.0182    7.0156   -1.0013 H         1 <0>         0.0896
     57 H23         3.7641    7.6571   -2.5774 H         1 <0>         0.4405
     58 H24         5.4649    9.1334    2.7674 H         1 <0>         0.1568
     59 H25         5.0104   11.0552    4.1977 H         1 <0>         0.1559
     60 H26         3.5503   12.8765    3.4335 H         1 <0>         0.1526
     61 H27         2.5203   12.8060    1.2219 H         1 <0>         0.1487
     62 H28         1.8096   12.5865   -0.5193 H         1 <0>         0.4311
     63 H29         1.6216   11.7367   -1.9564 H         1 <0>         0.4316
     64 H30         5.0388    8.0933    0.6055 H         1 <0>         0.4384
@<TRIPOS>BOND
     1    1    6 ar
     2    1    2 ar
     3    1   35 1
     4    2    3 ar
     5    2   36 1
     6    3    4 ar
     7    3   37 1
     8    4   10 ar
     9    4    5 ar
    10    5    6 ar
    11    5    7 ar
    12    6   38 1
    13    7    8 ar
    14    7   39 1
    15    8    9 ar
    16    8   40 1
    17    9   10 ar
    18    9   41 1
    19   10   11 1
    20   11   12 2
    21   11   13 2
    22   11   14 1
    23   14   15 1
    24   14   42 1
    25   15   16 1
    26   15   43 1
    27   15   44 1
    28   16   21 1
    29   16   17 1
    30   16   45 1
    31   17   18 1
    32   17   46 1
    33   17   47 1
    34   18   19 1
    35   18   48 1
    36   18   49 1
    37   19   20 1
    38   19   22 1
    39   19   50 1
    40   20   21 1
    41   20   51 1
    42   20   52 1
    43   21   53 1
    44   21   54 1
    45   22   23 1
    46   22   55 1
    47   22   56 1
    48   23   24 1
    49   23   57 1
    50   24   33 ar
    51   24   25 ar
    52   25   26 ar
    53   25   64 1
    54   26   31 ar
    55   26   27 ar
    56   27   28 ar
    57   27   58 1
    58   28   29 ar
    59   28   59 1
    60   29   30 ar
    61   29   60 1
    62   30   31 ar
    63   30   61 1
    64   31   32 ar
    65   32   33 ar
    66   32   34 1
    67   34   62 1
    68   34   63 1
@<TRIPOS>MOLECULE
ZINC03961870
   57    60     0     0     0
SMALL
USER_CHARGES

@<TRIPOS>ATOM
      1 C1         -1.2666    0.4432    0.5823 C.3       1 <0>         0.1083
      2 N1          0.0021   -0.0041    0.0020 N.pl3     1 <0>        -0.6766
      3 C2          1.2692    0.3682    0.6361 C.3       1 <0>         0.1068
      4 C3          0.0035   -0.7752   -1.1405 C.ar      1 <0>         0.6033
      5 C4          0.0431   -0.1734   -2.4234 C.ar      1 <0>        -0.1837
      6 C5          0.0828    1.2149   -2.5907 C.ar      1 <0>        -0.0158
      7 C6          0.1203    1.7396   -3.8494 C.ar      1 <0>        -0.1225
      8 C7          0.1192    0.9124   -4.9687 C.ar      1 <0>        -0.0114
      9 C8          0.0806   -0.4443   -4.8394 C.ar      1 <0>        -0.1535
     10 C9          0.0425   -1.0168   -3.5607 C.ar      1 <0>         0.1913
     11 N2          0.0047   -2.3454   -3.3797 N.ar      1 <0>        -0.5649
     12 C10        -0.0317   -2.8528   -2.1625 C.ar      1 <0>         0.6628
     13 N3         -0.0266   -2.0975   -1.0674 N.ar      1 <0>        -0.5488
     14 N4         -0.0709   -4.2279   -2.0188 N.pl3     1 <0>        -0.6587
     15 C11        -0.0714   -5.0885   -3.2044 C.3       1 <0>         0.1192
     16 C12         1.3687   -5.3246   -3.6639 C.3       1 <0>        -0.1369
     17 C13         1.3681   -6.2234   -4.9021 C.3       1 <0>        -0.1270
     18 C14         0.7161   -7.5642   -4.5586 C.3       1 <0>         0.1419
     19 C15        -0.7241   -7.3282   -4.0990 C.3       1 <0>        -0.1296
     20 C16        -0.7234   -6.4293   -2.8609 C.3       1 <0>        -0.1228
     21 N5          0.7155   -8.4249   -5.7441 N.am      1 <0>        -0.7247
     22 C17         0.6773   -9.7648   -5.6041 C.2       1 <0>         0.5675
     23 O1          0.6433  -10.2593   -4.4940 O.2       1 <0>        -0.5209
     24 C18         0.6767  -10.6327   -6.7996 C.ar      1 <0>        -0.1256
     25 C19         0.7214  -10.0673   -8.0757 C.ar      1 <0>        -0.0674
     26 C20         0.7206  -10.8807   -9.1887 C.ar      1 <0>        -0.1311
     27 C21         0.6756  -12.2585   -9.0439 C.ar      1 <0>         0.1011
     28 C22         0.6305  -12.8270   -7.7781 C.ar      1 <0>         0.0668
     29 C23         0.6371  -12.0212   -6.6571 C.ar      1 <0>        -0.0647
     30 F1          0.5858  -14.1705   -7.6431 F         1 <0>        -0.1178
     31 F2          0.6750  -13.0508  -10.1382 F         1 <0>        -0.1167
     32 H1         -1.4995    1.4441    0.2188 H         1 <0>         0.0620
     33 H2         -2.0615   -0.2433    0.2908 H         1 <0>         0.0650
     34 H3         -1.1827    0.4616    1.6689 H         1 <0>         0.0832
     35 H4          1.5461   -0.3907    1.3678 H         1 <0>         0.0586
     36 H5          2.0476    0.4419   -0.1234 H         1 <0>         0.0644
     37 H6          1.1566    1.3305    1.1355 H         1 <0>         0.0887
     38 H7          0.0833    1.8666   -1.7295 H         1 <0>         0.1585
     39 H8          0.1509    2.8113   -3.9790 H         1 <0>         0.1545
     40 H9          0.1489    1.3520   -5.9548 H         1 <0>         0.1575
     41 H10         0.0799   -1.0739   -5.7168 H         1 <0>         0.1562
     42 H11        -0.0980   -4.6224   -1.1331 H         1 <0>         0.4436
     43 H12        -0.6334   -4.6055   -4.0038 H         1 <0>         0.0923
     44 H13         1.8332   -4.3693   -3.9087 H         1 <0>         0.0712
     45 H14         1.9306   -5.8076   -2.8646 H         1 <0>         0.0923
     46 H15         0.8061   -5.7404   -5.7015 H         1 <0>         0.0763
     47 H16         2.3940   -6.3916   -5.2295 H         1 <0>         0.0894
     48 H17         1.2780   -8.0473   -3.7592 H         1 <0>         0.0988
     49 H18        -1.2860   -6.8451   -4.8984 H         1 <0>         0.0736
     50 H19        -1.1886   -8.2834   -3.8543 H         1 <0>         0.0893
     51 H20        -0.1615   -6.9124   -2.0615 H         1 <0>         0.0888
     52 H21        -1.7494   -6.2612   -2.5335 H         1 <0>         0.0871
     53 H22         0.7426   -8.0304   -6.6298 H         1 <0>         0.4025
     54 H23         0.7562   -8.9940   -8.1906 H         1 <0>         0.1425
     55 H24         0.7549  -10.4435  -10.1756 H         1 <0>         0.1568
     56 H25         0.6073  -12.4635   -5.6724 H         1 <0>         0.1616
     57 H26         0.0037   -2.9368   -4.1486 H         1 <0>         0.4377
@<TRIPOS>BOND
     1    1    2 1
     2    1   32 1
     3    1   33 1
     4    1   34 1
     5    2    3 1
     6    2    4 1
     7    3   35 1
     8    3   36 1
     9    3   37 1
    10    4   13 ar
    11    4    5 ar
    12    5   10 ar
    13    5    6 ar
    14    6    7 ar
    15    6   38 1
    16    7    8 ar
    17    7   39 1
    18    8    9 ar
    19    8   40 1
    20    9   10 ar
    21    9   41 1
    22   10   11 ar
    23   11   12 ar
    24   11   57 1
    25   12   13 ar
    26   12   14 1
    27   14   15 1
    28   14   42 1
    29   15   20 1
    30   15   16 1
    31   15   43 1
    32   16   17 1
    33   16   44 1
    34   16   45 1
    35   17   18 1
    36   17   46 1
    37   17   47 1
    38   18   19 1
    39   18   21 1
    40   18   48 1
    41   19   20 1
    42   19   49 1
    43   19   50 1
    44   20   51 1
    45   20   52 1
    46   21   22 am
    47   21   53 1
    48   22   23 2
    49   22   24 1
    50   24   29 ar
    51   24   25 ar
    52   25   26 ar
    53   25   54 1
    54   26   27 ar
    55   26   55 1
    56   27   28 ar
    57   27   31 1
    58   28   29 ar
    59   28   30 1
    60   29   56 1
@<TRIPOS>MOLECULE
ZINC03952356
   67    70     0     0     0
SMALL
USER_CHARGES

@<TRIPOS>ATOM
      1 C1          1.3345    2.7623   -0.6738 C.ar      1 <0>        -0.1089
      2 C2          2.6121    3.2783   -0.6020 C.ar      1 <0>        -0.1173
      3 C3          3.7116    2.4331   -0.5309 C.ar      1 <0>        -0.0776
      4 C4          3.5241    1.0688   -0.5286 C.ar      1 <0>        -0.0931
      5 C5          2.2377    0.5514   -0.6045 C.ar      1 <0>        -0.1176
      6 C6          1.1466    1.3929   -0.6767 C.ar      1 <0>        -0.1163
      7 C7          4.6684    0.0935   -0.4376 C.3       1 <0>        -0.0848
      8 C8          5.9870    0.7776   -0.7926 C.3       1 <0>        -0.1152
      9 H1          5.9957    1.0299   -1.8529 H         1 <0>         0.0988
     10 C9          6.1090    2.0569    0.0435 C.3       1 <0>        -0.1095
     11 C10         5.0779    3.0636   -0.4626 C.3       1 <0>        -0.0836
     12 C11         7.1548   -0.1589   -0.4762 C.3       1 <0>        -0.0054
     13 N1          7.0854   -1.3396   -1.3475 N.4       1 <0>        -0.5122
     14 C12         8.2067   -2.2388   -1.0437 C.3       1 <0>        -0.0077
     15 C13         8.1345   -3.4686   -1.9511 C.3       1 <0>        -0.1157
     16 H2          7.1578   -3.9409   -1.8459 H         1 <0>         0.0961
     17 C14         8.3405   -3.0418   -3.4059 C.3       1 <0>        -0.1278
     18 C15         8.2683   -4.2715   -4.3133 C.3       1 <0>        -0.1154
     19 C16         9.3610   -5.2651   -3.9136 C.3       1 <0>        -0.0940
     20 H3         10.3377   -4.7928   -4.0189 H         1 <0>         0.0858
     21 C17         9.1549   -5.6919   -2.4589 C.3       1 <0>        -0.1205
     22 C18         9.2272   -4.4621   -1.5515 C.3       1 <0>        -0.1117
     23 C19         9.2888   -6.4948   -4.8211 C.3       1 <0>         0.1157
     24 N2         10.4070   -7.3916   -4.5182 N.pl3     1 <0>        -1.1006
     25 S1         10.3616   -8.9697   -5.0179 S.o2      1 <0>         2.7008
     26 O1         11.5973   -9.5542   -4.6301 O.2       1 <0>        -0.9268
     27 O2          9.1076   -9.4919   -4.6006 O.2       1 <0>        -0.9493
     28 C20        10.3410   -8.9579   -6.7797 C.ar      1 <0>        -0.6373
     29 C21        11.4126   -8.4358   -7.4801 C.ar      1 <0>         0.0361
     30 C22        11.3965   -8.4266   -8.8621 C.ar      1 <0>        -0.0663
     31 C23        10.3089   -8.9398   -9.5442 C.ar      1 <0>        -0.0625
     32 C24         9.2380   -9.4625   -8.8440 C.ar      1 <0>        -0.0867
     33 C25         9.2560   -9.4757   -7.4616 C.ar      1 <0>        -0.0181
     34 N3         12.5770   -7.8864   -6.7498 N.pl3     1 <0>         0.0223
     35 O3         13.5664   -7.5480   -7.3567 O.2       1 <0>        -0.1230
     36 O4         12.5387   -7.7760   -5.5465 O.3       1 <0>        -0.1505
     37 H4          0.4840    3.4261   -0.7231 H         1 <0>         0.1280
     38 H5          2.7583    4.3484   -0.6013 H         1 <0>         0.1257
     39 H6          2.0901   -0.5184   -0.6080 H         1 <0>         0.1210
     40 H7          0.1491    0.9830   -0.7346 H         1 <0>         0.1271
     41 H8          4.7281   -0.2968    0.5784 H         1 <0>         0.0878
     42 H9          4.4937   -0.7309   -1.1289 H         1 <0>         0.0696
     43 H10         5.9164    1.8300    1.0921 H         1 <0>         0.0796
     44 H11         7.1111    2.4720   -0.0647 H         1 <0>         0.0813
     45 H12         5.3665    3.4047   -1.4568 H         1 <0>         0.0815
     46 H13         5.0464    3.9172    0.2145 H         1 <0>         0.0868
     47 H14         8.0960    0.3637   -0.6467 H         1 <0>         0.1359
     48 H15         7.0969   -0.4726    0.5661 H         1 <0>         0.1348
     49 H16         6.2141   -1.8234   -1.1897 H         1 <0>         0.4259
     50 H17         9.1479   -1.7162   -1.2142 H         1 <0>         0.1337
     51 H18         8.1488   -2.5525   -0.0014 H         1 <0>         0.1344
     52 H19         7.5621   -2.3339   -3.6906 H         1 <0>         0.0590
     53 H20         9.3172   -2.5694   -3.5111 H         1 <0>         0.0810
     54 H21         7.2916   -4.7438   -4.2081 H         1 <0>         0.0734
     55 H22         8.4151   -3.9674   -5.3497 H         1 <0>         0.0757
     56 H23         8.1783   -6.1642   -2.3537 H         1 <0>         0.0729
     57 H24         9.9334   -6.3997   -2.1742 H         1 <0>         0.0809
     58 H25        10.2039   -3.9898   -1.6567 H         1 <0>         0.0767
     59 H26         9.0804   -4.7662   -0.5151 H         1 <0>         0.0774
     60 H27         8.3475   -7.0174   -4.6506 H         1 <0>         0.0842
     61 H28         9.3466   -6.1812   -5.8633 H         1 <0>         0.0605
     62 H29        11.1740   -7.0609   -4.0249 H         1 <0>         0.4295
     63 H30        12.2333   -8.0181   -9.4091 H         1 <0>         0.1648
     64 H31        10.2960   -8.9319  -10.6241 H         1 <0>         0.1600
     65 H32         8.3882   -9.8631   -9.3769 H         1 <0>         0.1574
     66 H33         8.4208   -9.8875   -6.9146 H         1 <0>         0.1673
     67 H34         7.1390   -1.0493   -2.3123 H         1 <0>         0.4259
@<TRIPOS>BOND
     1    1    6 ar
     2    1    2 ar
     3    1   37 1
     4    2    3 ar
     5    2   38 1
     6    3   11 1
     7    3    4 ar
     8    4    5 ar
     9    4    7 1
    10    5    6 ar
    11    5   39 1
    12    6   40 1
    13    7    8 1
    14    7   41 1
    15    7   42 1
    16    8    9 1
    17    8   10 1
    18    8   12 1
    19   10   11 1
    20   10   43 1
    21   10   44 1
    22   11   45 1
    23   11   46 1
    24   12   13 1
    25   12   47 1
    26   12   48 1
    27   13   14 1
    28   13   49 1
    29   13   67 1
    30   14   15 1
    31   14   50 1
    32   14   51 1
    33   15   16 1
    34   15   22 1
    35   15   17 1
    36   17   18 1
    37   17   52 1
    38   17   53 1
    39   18   19 1
    40   18   54 1
    41   18   55 1
    42   19   20 1
    43   19   21 1
    44   19   23 1
    45   21   22 1
    46   21   56 1
    47   21   57 1
    48   22   58 1
    49   22   59 1
    50   23   24 1
    51   23   60 1
    52   23   61 1
    53   24   25 1
    54   24   62 1
    55   25   26 2
    56   25   27 2
    57   25   28 1
    58   28   33 ar
    59   28   29 ar
    60   29   30 ar
    61   29   34 1
    62   30   31 ar
    63   30   63 1
    64   31   32 ar
    65   31   64 1
    66   32   33 ar
    67   32   65 1
    68   33   66 1
    69   34   35 2
    70   34   36 1
@<TRIPOS>MOLECULE
ZINC08022499
   67    70     0     0     0
SMALL
USER_CHARGES

@<TRIPOS>ATOM
      1 C1          0.6519    2.2866   -1.7271 C.ar      1 <0>        -0.1090
      2 C2          1.8909    2.8858   -1.5947 C.ar      1 <0>        -0.1161
      3 C3          3.0139    2.1049   -1.4172 C.ar      1 <0>        -0.1176
      4 C4          2.9111    0.7203   -1.3728 C.ar      1 <0>        -0.0929
      5 C5          1.6782    0.1234   -1.5097 C.ar      1 <0>        -0.0778
      6 C6          0.5479    0.9118   -1.6838 C.ar      1 <0>        -0.1174
      7 C7          1.4942   -1.3715   -1.4876 C.3       1 <0>        -0.0833
      8 C8          2.7139   -2.0539   -0.8717 C.3       1 <0>        -0.1096
      9 C9          3.9700   -1.5284   -1.5765 C.3       1 <0>        -0.1148
     10 H1          3.8389   -1.5928   -2.6567 H         1 <0>         0.0986
     11 C10         4.1767   -0.0709   -1.1695 C.3       1 <0>        -0.0845
     12 C11         5.1834   -2.3592   -1.1543 C.3       1 <0>        -0.0060
     13 N1          6.3610   -1.9306   -1.9208 N.4       1 <0>        -0.5115
     14 C12         7.5261   -2.7283   -1.5154 C.3       1 <0>        -0.0168
     15 C13         8.7525   -2.2819   -2.3138 C.3       1 <0>        -0.1110
     16 C14         8.5400   -2.5998   -3.7953 C.3       1 <0>        -0.1305
     17 C15         8.3385   -4.1064   -3.9698 C.3       1 <0>        -0.1231
     18 C16         9.5759   -4.8488   -3.4613 C.3       1 <0>        -0.0955
     19 C17         9.7884   -4.5309   -1.9798 C.3       1 <0>        -0.1270
     20 C18         9.9899   -3.0243   -1.8053 C.3       1 <0>        -0.1136
     21 C19         9.3744   -6.3553   -3.6359 C.3       1 <0>         0.1164
     22 N2         10.6033   -7.0591   -3.2609 N.pl3     1 <0>        -1.1005
     23 S1         10.5621   -8.6829   -2.9383 S.o2      1 <0>         2.7012
     24 O1         11.9021   -9.0801   -2.6817 O.2       1 <0>        -0.9254
     25 O2          9.5148   -8.8839   -1.9991 O.2       1 <0>        -0.9512
     26 C20        10.0710   -9.4965   -4.4220 C.ar      1 <0>        -0.6376
     27 C21         8.8888  -10.2124   -4.4591 C.ar      1 <0>        -0.0194
     28 C22         8.5036  -10.8506   -5.6230 C.ar      1 <0>        -0.0872
     29 C23         9.3002  -10.7727   -6.7503 C.ar      1 <0>        -0.0618
     30 C24        10.4816  -10.0563   -6.7135 C.ar      1 <0>        -0.0660
     31 C25        10.8648   -9.4143   -5.5505 C.ar      1 <0>         0.0368
     32 N3         12.1274   -8.6428   -5.5126 N.pl3     1 <0>         0.0215
     33 O3         12.8842   -8.6752   -6.4549 O.2       1 <0>        -0.1208
     34 O4         12.4020   -7.9802   -4.5393 O.3       1 <0>        -0.1507
     35 H2         -0.2319    2.8930   -1.8595 H         1 <0>         0.1279
     36 H3          1.9791    3.9616   -1.6304 H         1 <0>         0.1271
     37 H4          3.9812    2.5737   -1.3124 H         1 <0>         0.1212
     38 H5         -0.4204    0.4446   -1.7864 H         1 <0>         0.1255
     39 H6          0.6101   -1.6161   -0.8990 H         1 <0>         0.0867
     40 H7          1.3575   -1.7318   -2.5072 H         1 <0>         0.0813
     41 H8          2.7659   -1.8222    0.1922 H         1 <0>         0.0798
     42 H9          2.6397   -3.1325   -1.0097 H         1 <0>         0.0811
     43 H10         4.9726    0.3621   -1.7755 H         1 <0>         0.0699
     44 H11         4.4624   -0.0282   -0.1185 H         1 <0>         0.0879
     45 H12         5.3703   -2.2146   -0.0902 H         1 <0>         0.1352
     46 H13         4.9873   -3.4136   -1.3488 H         1 <0>         0.1355
     47 H14         6.1881   -2.0644   -2.9058 H         1 <0>         0.4252
     48 H15         7.7129   -2.5837   -0.4513 H         1 <0>         0.1352
     49 H16         7.3299   -3.7827   -1.7099 H         1 <0>         0.1380
     50 H17         8.8961   -1.2086   -2.1894 H         1 <0>         0.0962
     51 H18         7.6585   -2.0709   -4.1575 H         1 <0>         0.0608
     52 H19         9.4138   -2.2818   -4.3640 H         1 <0>         0.0931
     53 H20         7.4647   -4.4244   -3.4010 H         1 <0>         0.0626
     54 H21         8.1871   -4.3328   -5.0252 H         1 <0>         0.0797
     55 H22        10.4497   -4.5308   -4.0301 H         1 <0>         0.0910
     56 H23         8.9146   -4.8489   -1.4111 H         1 <0>         0.0670
     57 H24        10.6700   -5.0598   -1.6176 H         1 <0>         0.0830
     58 H25        10.8637   -2.7063   -2.3741 H         1 <0>         0.0869
     59 H26        10.1413   -2.7979   -0.7499 H         1 <0>         0.0785
     60 H27         8.5557   -6.6887   -2.9981 H         1 <0>         0.0811
     61 H28         9.1351   -6.5717   -4.6770 H         1 <0>         0.0608
     62 H29        11.4412   -6.5740   -3.2015 H         1 <0>         0.4308
     63 H30         8.2665  -10.2732   -3.5785 H         1 <0>         0.1666
     64 H31         7.5804  -11.4104   -5.6517 H         1 <0>         0.1572
     65 H32         8.9995  -11.2720   -7.6595 H         1 <0>         0.1602
     66 H33        11.1040   -9.9957   -7.5940 H         1 <0>         0.1653
     67 H34         6.5426   -0.9546   -1.7408 H         1 <0>         0.4257
@<TRIPOS>BOND
     1    1    6 ar
     2    1    2 ar
     3    1   35 1
     4    2    3 ar
     5    2   36 1
     6    3    4 ar
     7    3   37 1
     8    4   11 1
     9    4    5 ar
    10    5    6 ar
    11    5    7 1
    12    6   38 1
    13    7    8 1
    14    7   39 1
    15    7   40 1
    16    8    9 1
    17    8   41 1
    18    8   42 1
    19    9   10 1
    20    9   11 1
    21    9   12 1
    22   11   43 1
    23   11   44 1
    24   12   13 1
    25   12   45 1
    26   12   46 1
    27   13   14 1
    28   13   47 1
    29   13   67 1
    30   14   15 1
    31   14   48 1
    32   14   49 1
    33   15   20 1
    34   15   16 1
    35   15   50 1
    36   16   17 1
    37   16   51 1
    38   16   52 1
    39   17   18 1
    40   17   53 1
    41   17   54 1
    42   18   19 1
    43   18   21 1
    44   18   55 1
    45   19   20 1
    46   19   56 1
    47   19   57 1
    48   20   58 1
    49   20   59 1
    50   21   22 1
    51   21   60 1
    52   21   61 1
    53   22   23 1
    54   22   62 1
    55   23   24 2
    56   23   25 2
    57   23   26 1
    58   26   31 ar
    59   26   27 ar
    60   27   28 ar
    61   27   63 1
    62   28   29 ar
    63   28   64 1
    64   29   30 ar
    65   29   65 1
    66   30   31 ar
    67   30   66 1
    68   31   32 1
    69   32   33 2
    70   32   34 1
@<TRIPOS>MOLECULE
ZINC01104834
   30    32     0     0     0
SMALL
USER_CHARGES
4-(4-fluorophenyl)-N-phenyl-thiazol-2-amine
@<TRIPOS>ATOM
      1 C1         -1.2175    1.7468   -0.0582 C.ar      1 <0>        -0.1352
      2 C2         -1.0990    2.9113   -0.7948 C.ar      1 <0>        -0.0828
      3 C3          0.0831    3.6249   -0.7758 C.ar      1 <0>        -0.1575
      4 C4          1.1559    3.1688   -0.0202 C.ar      1 <0>         0.1562
      5 C5          1.0354    1.9956    0.7140 C.ar      1 <0>        -0.1426
      6 C6         -0.1496    1.2869    0.6905 C.ar      1 <0>        -0.0871
      7 N1          2.3538    3.8883    0.0009 N.pl3     1 <0>        -0.6115
      8 C7          2.3337    5.2711   -0.0961 C.2       1 <0>         0.3664
      9 N2          3.3430    6.1162   -0.2029 N.2       1 <0>        -0.5566
     10 C8          3.1390    7.4228   -0.2908 C.2       1 <0>         0.1349
     11 C9          1.8613    7.9058   -0.2583 C.2       1 <0>        -0.2358
     12 S1          0.9352    6.3842   -0.1020 S.3       1 <0>         0.0257
     13 C10         4.2876    8.3528   -0.4168 C.ar      1 <0>        -0.0367
     14 C11         4.0682    9.7262   -0.5087 C.ar      1 <0>        -0.0739
     15 C12         5.1400   10.5879   -0.6214 C.ar      1 <0>        -0.1536
     16 C13         6.4321   10.0891   -0.6536 C.ar      1 <0>         0.1044
     17 C14         6.6547    8.7244   -0.5674 C.ar      1 <0>        -0.1565
     18 C15         5.5893    7.8555   -0.4496 C.ar      1 <0>        -0.0562
     19 F1          7.4782   10.9361   -0.7697 F         1 <0>        -0.1378
     20 H1         -2.1446    1.1930   -0.0713 H         1 <0>         0.1286
     21 H2         -1.9335    3.2653   -1.3820 H         1 <0>         0.1311
     22 H3          0.1733    4.5368   -1.3474 H         1 <0>         0.1306
     23 H4          1.8674    1.6385    1.3027 H         1 <0>         0.1306
     24 H5         -0.2441    0.3750    1.2613 H         1 <0>         0.1317
     25 H6          3.1994    3.4202    0.0835 H         1 <0>         0.4272
     26 H7          1.5083    8.9250   -0.3122 H         1 <0>         0.1989
     27 H8          3.0610   10.1156   -0.4878 H         1 <0>         0.1364
     28 H9          4.9711   11.6525   -0.6885 H         1 <0>         0.1402
     29 H10         7.6636    8.3400   -0.5928 H         1 <0>         0.1385
     30 H11         5.7637    6.7918   -0.3832 H         1 <0>         0.1422
@<TRIPOS>BOND
     1    1    6 ar
     2    1    2 ar
     3    1   20 1
     4    2    3 ar
     5    2   21 1
     6    3    4 ar
     7    3   22 1
     8    4    5 ar
     9    4    7 1
    10    5    6 ar
    11    5   23 1
    12    6   24 1
    13    7    8 1
    14    7   25 1
    15    8   12 1
    16    8    9 2
    17    9   10 1
    18   10   11 2
    19   10   13 1
    20   11   12 1
    21   11   26 1
    22   13   18 ar
    23   13   14 ar
    24   14   15 ar
    25   14   27 1
    26   15   16 ar
    27   15   28 1
    28   16   17 ar
    29   16   19 1
    30   17   18 ar
    31   17   29 1
    32   18   30 1
@<TRIPOS>MOLECULE
ZINC27101553
   51    54     0     0     0
SMALL
USER_CHARGES
N-(9-isopropyl-4-methyl-carbazol-3-yl)morpholine-4-carboxamide
@<TRIPOS>ATOM
      1 C1         -2.5763    5.9782   -0.7495 C.3       1 <0>        -0.1104
      2 C2         -3.3370    4.7650   -0.2799 C.ar      1 <0>        -0.0662
      3 C3         -4.6620    4.8808    0.1034 C.ar      1 <0>         0.1390
      4 C4         -5.3636    3.7598    0.5364 C.ar      1 <0>        -0.0954
      5 C5         -4.7495    2.5274    0.5887 C.ar      1 <0>        -0.1280
      6 C6         -3.4181    2.3936    0.2075 C.ar      1 <0>         0.1302
      7 C7         -2.7062    3.5250   -0.2179 C.ar      1 <0>        -0.0843
      8 C8         -1.3462    3.0628   -0.5516 C.ar      1 <0>        -0.1047
      9 C9         -0.2075    3.7056   -1.0318 C.ar      1 <0>        -0.0616
     10 C10         0.9455    2.9831   -1.2503 C.ar      1 <0>        -0.1556
     11 C11         0.9750    1.6208   -0.9939 C.ar      1 <0>        -0.0844
     12 C12        -0.1444    0.9724   -0.5190 C.ar      1 <0>        -0.1469
     13 C13        -1.3202    1.6837   -0.2974 C.ar      1 <0>         0.1510
     14 N1         -2.5682    1.3004    0.1596 N.pl3     1 <0>        -0.5011
     15 C14        -2.9384   -0.0655    0.5384 C.3       1 <0>         0.1378
     16 C15        -2.7605   -0.9942   -0.6645 C.3       1 <0>        -0.1700
     17 C16        -2.0414   -0.5379    1.6844 C.3       1 <0>        -0.1695
     18 N2         -5.2982    6.1291    0.0548 N.am      1 <0>        -0.6901
     19 C17        -6.6412    6.1980   -0.0357 C.2       1 <0>         0.7117
     20 O1         -7.3037    5.1784   -0.0338 O.2       1 <0>        -0.5712
     21 N3         -7.2497    7.3969   -0.1284 N.am      1 <0>        -0.6306
     22 C18        -8.7174    7.5034   -0.1298 C.3       1 <0>         0.0920
     23 C19        -9.1229    8.5500    0.9204 C.3       1 <0>         0.0450
     24 O2         -8.3989    9.7593    0.6810 O.3       1 <0>        -0.3757
     25 C20        -6.9814    9.6287    0.8126 C.3       1 <0>         0.0456
     26 C21        -6.4662    8.6377   -0.2374 C.3       1 <0>         0.0751
     27 H1         -3.2383    6.8565   -0.7295 H         1 <0>         0.0560
     28 H2         -2.2186    5.8119   -1.7763 H         1 <0>         0.0762
     29 H3         -1.7167    6.1517   -0.0854 H         1 <0>         0.0750
     30 H4         -6.3974    3.8564    0.8335 H         1 <0>         0.1634
     31 H5         -5.3029    1.6635    0.9260 H         1 <0>         0.1239
     32 H6         -0.2283    4.7665   -1.2326 H         1 <0>         0.1232
     33 H7          1.8292    3.4798   -1.6230 H         1 <0>         0.1248
     34 H8          1.8831    1.0629   -1.1682 H         1 <0>         0.1266
     35 H9         -0.1108   -0.0891   -0.3229 H         1 <0>         0.1228
     36 H10        -3.9913   -0.0399    0.8558 H         1 <0>         0.0966
     37 H11        -3.0385   -2.0198   -0.3801 H         1 <0>         0.0762
     38 H12        -1.7098   -0.9758   -0.9897 H         1 <0>         0.0673
     39 H13        -3.4053   -0.6546   -1.4884 H         1 <0>         0.0636
     40 H14        -2.3194   -1.5635    1.9688 H         1 <0>         0.0762
     41 H15        -2.1692    0.1298    2.5492 H         1 <0>         0.0634
     42 H16        -0.9908   -0.5196    1.3591 H         1 <0>         0.0674
     43 H17        -4.7013    7.0524    0.0905 H         1 <0>         0.4229
     44 H18        -9.0614    7.8150   -1.1271 H         1 <0>         0.0780
     45 H19        -9.1562    6.5263    0.1207 H         1 <0>         0.1065
     46 H20       -10.2029    8.7449    0.8458 H         1 <0>         0.1116
     47 H21        -8.8873    8.1710    1.9258 H         1 <0>         0.0584
     48 H22        -6.5070   10.6091    0.6586 H         1 <0>         0.1110
     49 H23        -6.7392    9.2583    1.8196 H         1 <0>         0.0587
     50 H24        -5.4036    8.4173   -0.0576 H         1 <0>         0.0840
     51 H25        -6.5875    9.0606   -1.2456 H         1 <0>         0.0848
@<TRIPOS>BOND
     1    1    2 1
     2    1   27 1
     3    1   28 1
     4    1   29 1
     5    2    7 ar
     6    2    3 ar
     7    3    4 ar
     8    3   18 1
     9    4    5 ar
    10    4   30 1
    11    5    6 ar
    12    5   31 1
    13    6   14 1
    14    6    7 ar
    15    7    8 1
    16    8   13 ar
    17    8    9 ar
    18    9   10 ar
    19    9   32 1
    20   10   11 ar
    21   10   33 1
    22   11   12 ar
    23   11   34 1
    24   12   13 ar
    25   12   35 1
    26   13   14 1
    27   14   15 1
    28   15   16 1
    29   15   17 1
    30   15   36 1
    31   16   37 1
    32   16   38 1
    33   16   39 1
    34   17   40 1
    35   17   41 1
    36   17   42 1
    37   18   19 am
    38   18   43 1
    39   19   20 2
    40   19   21 am
    41   21   26 1
    42   21   22 1
    43   22   23 1
    44   22   44 1
    45   22   45 1
    46   23   24 1
    47   23   46 1
    48   23   47 1
    49   24   25 1
    50   25   26 1
    51   25   48 1
    52   25   49 1
    53   26   50 1
    54   26   51 1
@<TRIPOS>MOLECULE
ZINC13281694
   29    31     0     0     0
SMALL
USER_CHARGES

@<TRIPOS>ATOM
      1 C1         -0.0167    1.3794    0.0096 C.ar      1 <0>        -0.1186
      2 C2          1.1684    2.0936    0.0021 C.ar      1 <0>        -0.1099
      3 C3          2.3774    1.4295   -0.0130 C.ar      1 <0>        -0.1008
      4 C4          2.4035    0.0338   -0.0208 C.ar      1 <0>        -0.0128
      5 C5          1.2042   -0.6806   -0.0131 C.ar      1 <0>        -0.1216
      6 C6          0.0021   -0.0041    0.0020 C.ar      1 <0>        -0.1111
      7 C7          3.6953   -0.6844   -0.0375 C.2       1 <0>         0.0219
      8 C8          4.9377   -0.1242   -0.0408 C.2       1 <0>         0.0073
      9 N1          5.8394   -1.1071   -0.0574 N.2       1 <0>        -0.4696
     10 C9          5.2237   -2.2697   -0.0647 C.2       1 <0>         0.2563
     11 N2          3.8769   -2.0492   -0.0466 N.pl3     1 <0>        -0.5592
     12 H1          3.1808   -2.7247   -0.0430 H         1 <0>         0.4199
     13 C10         5.8809   -3.5937   -0.0834 C.ar      1 <0>        -0.0182
     14 C11         5.1112   -4.7581   -0.0959 C.ar      1 <0>        -0.1116
     15 C12         5.7308   -5.9906   -0.1137 C.ar      1 <0>        -0.1159
     16 C13         7.1119   -6.0740   -0.1193 C.ar      1 <0>        -0.1089
     17 C14         7.8807   -4.9236   -0.1069 C.ar      1 <0>        -0.1166
     18 C15         7.2737   -3.6848   -0.0944 C.ar      1 <0>        -0.0762
     19 H2         -0.9605    1.9042    0.0260 H         1 <0>         0.1259
     20 H3          1.1468    3.1733    0.0078 H         1 <0>         0.1295
     21 H4          3.3017    1.9881   -0.0192 H         1 <0>         0.1304
     22 H5          1.2175   -1.7605   -0.0194 H         1 <0>         0.1144
     23 H6         -0.9265   -0.5556    0.0079 H         1 <0>         0.1260
     24 H7          5.1548    0.9337   -0.0320 H         1 <0>         0.1780
     25 H8          4.0331   -4.6944   -0.0912 H         1 <0>         0.1167
     26 H9          5.1366   -6.8923   -0.1231 H         1 <0>         0.1283
     27 H10         7.5920   -7.0413   -0.1329 H         1 <0>         0.1272
     28 H11         8.9583   -4.9956   -0.1113 H         1 <0>         0.1308
     29 H12         7.8749   -2.7876   -0.0889 H         1 <0>         0.1384
@<TRIPOS>BOND
     1    1    6 ar
     2    1    2 ar
     3    1   19 1
     4    2    3 ar
     5    2   20 1
     6    3    4 ar
     7    3   21 1
     8    4    5 ar
     9    4    7 1
    10    5    6 ar
    11    5   22 1
    12    6   23 1
    13    7   11 1
    14    7    8 2
    15    8    9 1
    16    8   24 1
    17    9   10 2
    18   10   11 1
    19   10   13 1
    20   11   12 1
    21   13   18 ar
    22   13   14 ar
    23   14   15 ar
    24   14   25 1
    25   15   16 ar
    26   15   26 1
    27   16   17 ar
    28   16   27 1
    29   17   18 ar
    30   17   28 1
    31   18   29 1
@<TRIPOS>MOLECULE
ZINC13281694
   29    31     0     0     0
SMALL
USER_CHARGES

@<TRIPOS>ATOM
      1 C1         -0.0167    1.3790    0.0096 C.ar      1 <0>        -0.1207
      2 C2          1.1687    2.0920    0.0021 C.ar      1 <0>        -0.1195
      3 C3          2.3774    1.4261   -0.0135 C.ar      1 <0>        -0.0947
      4 C4          2.4023    0.0328   -0.0212 C.ar      1 <0>        -0.0043
      5 C5          1.2051   -0.6804   -0.0131 C.ar      1 <0>        -0.1122
      6 C6          0.0021   -0.0041    0.0020 C.ar      1 <0>        -0.1186
      7 C7          3.6986   -0.6887   -0.0385 C.2       1 <0>         0.0421
      8 C8          3.8614   -2.0392   -0.0528 C.2       1 <0>        -0.0238
      9 N1          5.2069   -2.2775   -0.0658 N.pl3     1 <0>        -0.5612
     10 H1          5.6372   -3.1467   -0.0781 H         1 <0>         0.4229
     11 C9          5.8325   -1.0645   -0.0590 C.2       1 <0>         0.2519
     12 N2          4.9186   -0.1216   -0.0485 N.2       1 <0>        -0.4606
     13 C10         7.2957   -0.8481   -0.0684 C.ar      1 <0>        -0.0170
     14 C11         8.1652   -1.9391   -0.0916 C.ar      1 <0>        -0.1116
     15 C12         9.5290   -1.7305   -0.1003 C.ar      1 <0>        -0.1160
     16 C13        10.0349   -0.4429   -0.0856 C.ar      1 <0>        -0.1094
     17 C14         9.1782    0.6431   -0.0621 C.ar      1 <0>        -0.1165
     18 C15         7.8123    0.4481   -0.0599 C.ar      1 <0>        -0.0773
     19 H2         -0.9603    1.9042    0.0260 H         1 <0>         0.1221
     20 H3          1.1482    3.1718    0.0081 H         1 <0>         0.1240
     21 H4          3.3023    1.9837   -0.0200 H         1 <0>         0.1297
     22 H5          1.2185   -1.7603   -0.0194 H         1 <0>         0.1214
     23 H6         -0.9264   -0.5557    0.0083 H         1 <0>         0.1242
     24 H7          3.0769   -2.7815   -0.0535 H         1 <0>         0.1845
     25 H8          7.7714   -2.9448   -0.1024 H         1 <0>         0.1177
     26 H9         10.2030   -2.5742   -0.1182 H         1 <0>         0.1282
     27 H10        11.1033   -0.2849   -0.0921 H         1 <0>         0.1270
     28 H11         9.5793    1.6458   -0.0500 H         1 <0>         0.1304
     29 H12         7.1445    1.2968   -0.0465 H         1 <0>         0.1373
@<TRIPOS>BOND
     1    1    6 ar
     2    1    2 ar
     3    1   19 1
     4    2    3 ar
     5    2   20 1
     6    3    4 ar
     7    3   21 1
     8    4    5 ar
     9    4    7 1
    10    5    6 ar
    11    5   22 1
    12    6   23 1
    13    7   12 1
    14    7    8 2
    15    8    9 1
    16    8   24 1
    17    9   10 1
    18    9   11 1
    19   11   12 2
    20   11   13 1
    21   13   18 ar
    22   13   14 ar
    23   14   15 ar
    24   14   25 1
    25   15   16 ar
    26   15   26 1
    27   16   17 ar
    28   16   27 1
    29   17   18 ar
    30   17   28 1
    31   18   29 1
@<TRIPOS>MOLECULE
ZINC13281694
   30    32     0     0     0
SMALL
USER_CHARGES
2,4-diphenyl-1H-imidazole
@<TRIPOS>ATOM
      1 C1         -3.4050   -2.5484    0.0195 C.ar      1 <0>        -0.0871
      2 C2         -3.5705   -1.1751    0.0299 C.ar      1 <0>        -0.1071
      3 C3         -2.4682   -0.3445    0.0243 C.ar      1 <0>        -0.1031
      4 C4         -1.1867   -0.8919    0.0086 C.ar      1 <0>        -0.0618
      5 C5         -1.0260   -2.2760   -0.0067 C.ar      1 <0>        -0.0838
      6 C6         -2.1353   -3.0971    0.0039 C.ar      1 <0>        -0.1072
      7 C7          0.0021   -0.0041    0.0020 C.2       1 <0>         0.0943
      8 C8          1.3010   -0.4081   -0.0126 C.2       1 <0>         0.0403
      9 N1          2.0689    0.7222   -0.0138 N.pl3     1 <0>        -0.5124
     10 H1          3.0681    0.7604   -0.0231 H         1 <0>         0.4723
     11 C9          1.2180    1.7893    0.0000 C.cat     1 <0>         0.3855
     12 C10         1.6193    3.2130    0.0039 C.ar      1 <0>        -0.0932
     13 C11         2.9708    3.5601   -0.0019 C.ar      1 <0>        -0.0730
     14 C12         3.3384    4.8899   -0.0036 C.ar      1 <0>        -0.1066
     15 C13         2.3704    5.8783    0.0120 C.ar      1 <0>        -0.0654
     16 C14         1.0288    5.5407    0.0230 C.ar      1 <0>        -0.1060
     17 C15         0.6479    4.2146    0.0190 C.ar      1 <0>        -0.0766
     18 H2         -4.2703   -3.1946    0.0239 H         1 <0>         0.1377
     19 H3         -4.5641   -0.7520    0.0420 H         1 <0>         0.1379
     20 H4         -2.5986    0.7275    0.0324 H         1 <0>         0.1201
     21 H5         -0.0352   -2.7054   -0.0234 H         1 <0>         0.1341
     22 H6         -2.0118   -4.1700   -0.0042 H         1 <0>         0.1403
     23 H7          1.6573   -1.4276   -0.0220 H         1 <0>         0.2294
     24 H8          3.7274    2.7894   -0.0095 H         1 <0>         0.1325
     25 H9          4.3841    5.1599   -0.0125 H         1 <0>         0.1468
     26 H10         2.6634    6.9178    0.0151 H         1 <0>         0.1450
     27 H11         0.2779    6.3170    0.0351 H         1 <0>         0.1468
     28 H12        -0.3997    3.9524    0.0273 H         1 <0>         0.1306
     29 N2         -0.0147    1.3401    0.0094 N.pl3     1 <0>        -0.4845
     30 H13        -0.8594    1.9236    0.0206 H         1 <0>         0.4741
@<TRIPOS>BOND
     1    1    6 ar
     2    1    2 ar
     3    1   18 1
     4    2    3 ar
     5    2   19 1
     6    3    4 ar
     7    3   20 1
     8    4    5 ar
     9    4    7 1
    10    5    6 ar
    11    5   21 1
    12    6   22 1
    13    7    8 2
    14    7   29 1
    15    8    9 1
    16    8   23 1
    17    9   10 1
    18    9   11 1
    19   11   12 1
    20   11   29 2
    21   12   17 ar
    22   12   13 ar
    23   13   14 ar
    24   13   24 1
    25   14   15 ar
    26   14   25 1
    27   15   16 ar
    28   15   26 1
    29   16   17 ar
    30   16   27 1
    31   17   28 1
    32   29   30 1
@<TRIPOS>MOLECULE
ZINC13281694
   30    32     0     0     0
SMALL
USER_CHARGES

@<TRIPOS>ATOM
      1 C1         -0.0167    1.3794    0.0096 C.ar      1 <0>        -0.0833
      2 C2          1.1684    2.0936    0.0021 C.ar      1 <0>        -0.1092
      3 C3          2.3774    1.4295   -0.0129 C.ar      1 <0>        -0.0795
      4 C4          2.4035    0.0338   -0.0206 C.ar      1 <0>        -0.0670
      5 C5          1.2042   -0.6806   -0.0130 C.ar      1 <0>        -0.0974
      6 C6          0.0021   -0.0041    0.0020 C.ar      1 <0>        -0.1092
      7 C7          3.6953   -0.6844   -0.0372 C.2       1 <0>         0.1262
      8 N1          3.8769   -2.0492   -0.0463 N.pl3     1 <0>        -0.5148
      9 C8          5.2237   -2.2697   -0.0613 C.cat     1 <0>         0.3836
     10 N2          5.8394   -1.1070   -0.0615 N.pl3     1 <0>        -0.4679
     11 C9          4.9376   -0.1242   -0.0526 C.2       1 <0>         0.0083
     12 C10         5.8809   -3.5937   -0.0747 C.ar      1 <0>        -0.0949
     13 C11         5.1114   -4.7583   -0.0782 C.ar      1 <0>        -0.0730
     14 C12         5.7310   -5.9908   -0.0906 C.ar      1 <0>        -0.1068
     15 C13         7.1121   -6.0741   -0.0990 C.ar      1 <0>        -0.0643
     16 C14         7.8808   -4.9237   -0.0951 C.ar      1 <0>        -0.1063
     17 C15         7.2737   -3.6849   -0.0895 C.ar      1 <0>        -0.0749
     18 H1         -0.9605    1.9042    0.0260 H         1 <0>         0.1383
     19 H2          1.1468    3.1733    0.0078 H         1 <0>         0.1410
     20 H3          3.3017    1.9881   -0.0191 H         1 <0>         0.1352
     21 H4          1.2175   -1.7605   -0.0192 H         1 <0>         0.1215
     22 H5         -0.9265   -0.5556    0.0079 H         1 <0>         0.1384
     23 H6          5.1546    0.9338   -0.0544 H         1 <0>         0.2284
     24 H7          3.1808   -2.7247   -0.0427 H         1 <0>         0.4607
     25 H8          4.0333   -4.6946   -0.0709 H         1 <0>         0.1311
     26 H9          5.1368   -6.8926   -0.0933 H         1 <0>         0.1468
     27 H10         7.5922   -7.0415   -0.1084 H         1 <0>         0.1453
     28 H11         8.9583   -4.9957   -0.1014 H         1 <0>         0.1473
     29 H12         7.8748   -2.7876   -0.0917 H         1 <0>         0.1328
     30 H13         6.8014   -0.9835   -0.0703 H         1 <0>         0.4638
@<TRIPOS>BOND
     1    1    6 ar
     2    1    2 ar
     3    1   18 1
     4    2    3 ar
     5    2   19 1
     6    3    4 ar
     7    3   20 1
     8    4    5 ar
     9    4    7 1
    10    5    6 ar
    11    5   21 1
    12    6   22 1
    13    7    8 1
    14    7   11 2
    15    8    9 1
    16    8   24 1
    17    9   12 1
    18    9   10 2
    19   10   11 1
    20   10   30 1
    21   11   23 1
    22   12   17 ar
    23   12   13 ar
    24   13   14 ar
    25   13   25 1
    26   14   15 ar
    27   14   26 1
    28   15   16 ar
    29   15   27 1
    30   16   17 ar
    31   16   28 1
    32   17   29 1
@<TRIPOS>MOLECULE
ZINC00828108
   53    56     0     0     0
SMALL
USER_CHARGES
5-chloro-9-(2-hydroxy-4,4-dimethyl-6-oxo-1-cyclohexenyl)-3,3-dimethyl-4,9-dihydro-2H-xanthen-1-one
@<TRIPOS>ATOM
      1 C1         -5.4134    5.7346    3.0845 C.3       1 <0>        -0.1519
      2 C2         -4.0752    5.8731    3.8131 C.3       1 <0>        -0.0532
      3 C3         -3.1827    6.8655    3.0624 C.3       1 <0>        -0.0808
      4 C4         -2.8880    6.3365    1.6843 C.2       1 <0>         0.2169
      5 C5         -2.8444    5.0146    1.4392 C.2       1 <0>        -0.3444
      6 C6         -3.0654    4.0696    2.4517 C.2       1 <0>         0.4099
      7 O1         -3.0085    2.8842    2.1922 O.2       1 <0>        -0.4684
      8 C7         -3.3725    4.5125    3.8591 C.3       1 <0>        -0.1596
      9 C8         -2.5441    4.5366    0.0419 C.3       1 <0>         0.0880
     10 H1         -2.4779    5.3961   -0.6251 H         1 <0>         0.0844
     11 C9         -1.2328    3.8005    0.0381 C.ar      1 <0>        -0.1209
     12 C10        -0.0446    4.5072    0.0347 C.ar      1 <0>        -0.0821
     13 C11         1.1627    3.8343    0.0265 C.ar      1 <0>        -0.1236
     14 C12         1.1851    2.4516    0.0203 C.ar      1 <0>        -0.0825
     15 C13         0.0006    1.7408    0.0246 C.ar      1 <0>        -0.0498
     16 C14        -1.2158    2.4151    0.0295 C.ar      1 <0>         0.1386
     17 O2         -2.3722    1.7150    0.0461 O.3       1 <0>        -0.2061
     18 C15        -3.5065    2.2882   -0.3927 C.2       1 <0>         0.2183
     19 C16        -3.6537    3.6259   -0.4244 C.2       1 <0>        -0.3134
     20 C17        -4.8401    4.2198   -0.8944 C.2       1 <0>         0.4107
     21 O3         -4.9434    5.4303   -0.8886 O.2       1 <0>        -0.4738
     22 C18        -5.9829    3.3843   -1.4031 C.3       1 <0>        -0.1507
     23 C19        -5.4256    2.0690   -1.9580 C.3       1 <0>        -0.0546
     24 C20        -4.6232    1.3797   -0.8529 C.3       1 <0>        -0.0792
     25 C21        -4.5140    2.3589   -3.1522 C.3       1 <0>        -0.1540
     26 C22        -6.5788    1.1648   -2.3979 C.3       1 <0>        -0.1414
     27 Cl1         0.0304    0.0050    0.0165 Cl        1 <0>        -0.0488
     28 O4         -2.6682    7.2028    0.6772 O.3       1 <0>        -0.4517
     29 C23        -4.3169    6.3737    5.2385 C.3       1 <0>        -0.1416
     30 H2         -6.0430    5.0193    3.6139 H         1 <0>         0.0610
     31 H3         -5.9118    6.7034    3.0528 H         1 <0>         0.0622
     32 H4         -5.2389    5.3823    2.0679 H         1 <0>         0.0608
     33 H5         -3.6930    7.8254    2.9836 H         1 <0>         0.0993
     34 H6         -2.2467    6.9952    3.6057 H         1 <0>         0.1035
     35 H7         -4.0245    3.7814    4.3373 H         1 <0>         0.0950
     36 H8         -2.4448    4.5988    4.4248 H         1 <0>         0.0978
     37 H9         -0.0598    5.5871    0.0388 H         1 <0>         0.1317
     38 H10         2.0894    4.3889    0.0254 H         1 <0>         0.1394
     39 H11         2.1292    1.9272    0.0125 H         1 <0>         0.1446
     40 H12        -6.4632    3.8812   -2.1259 H         1 <0>         0.0899
     41 H13        -6.6748    3.1726   -0.5878 H         1 <0>         0.1018
     42 H14        -4.2006    0.4512   -1.2368 H         1 <0>         0.1006
     43 H15        -5.2808    1.1586   -0.0122 H         1 <0>         0.1070
     44 H16        -4.1049    1.4229   -3.5326 H         1 <0>         0.0653
     45 H17        -5.0889    2.8499   -3.9374 H         1 <0>         0.0657
     46 H18        -3.6988    3.0103   -2.8373 H         1 <0>         0.0564
     47 H19        -7.2309    0.9678   -1.5470 H         1 <0>         0.0625
     48 H20        -7.1481    1.6591   -3.1851 H         1 <0>         0.0660
     49 H21        -6.1790    0.2235   -2.7749 H         1 <0>         0.0650
     50 H22        -2.4886    6.6955   -0.1656 H         1 <0>         0.4021
     51 H23        -3.3623    6.4761    5.7544 H         1 <0>         0.0607
     52 H24        -4.8168    7.3417    5.2038 H         1 <0>         0.0631
     53 H25        -4.9439    5.6599    5.7728 H         1 <0>         0.0643
@<TRIPOS>BOND
     1    1    2 1
     2    1   30 1
     3    1   31 1
     4    1   32 1
     5    2    8 1
     6    2    3 1
     7    2   29 1
     8    3    4 1
     9    3   33 1
    10    3   34 1
    11    4    5 2
    12    4   28 1
    13    5    6 1
    14    5    9 1
    15    6    7 2
    16    6    8 1
    17    8   35 1
    18    8   36 1
    19    9   10 1
    20    9   19 1
    21    9   11 1
    22   11   16 ar
    23   11   12 ar
    24   12   13 ar
    25   12   37 1
    26   13   14 ar
    27   13   38 1
    28   14   15 ar
    29   14   39 1
    30   15   16 ar
    31   15   27 1
    32   16   17 1
    33   17   18 1
    34   18   24 1
    35   18   19 2
    36   19   20 1
    37   20   21 2
    38   20   22 1
    39   22   23 1
    40   22   40 1
    41   22   41 1
    42   23   24 1
    43   23   25 1
    44   23   26 1
    45   24   42 1
    46   24   43 1
    47   25   44 1
    48   25   45 1
    49   25   46 1
    50   26   47 1
    51   26   48 1
    52   26   49 1
    53   28   50 1
    54   29   51 1
    55   29   52 1
    56   29   53 1
@<TRIPOS>MOLECULE
ZINC00828109
   52    55     0     0     0
SMALL
USER_CHARGES

@<TRIPOS>ATOM
      1 C1         -0.0187    1.5258    0.0104 C.3       1 <0>        -0.1383
      2 C2          0.0021   -0.0041    0.0020 C.3       1 <0>        -0.0482
      3 C3         -1.4336   -0.5368    0.0282 C.3       1 <0>        -0.1448
      4 C4         -2.1014   -0.1040    1.3070 C.2       1 <0>         0.3826
      5 C5         -1.3665    0.0995    2.4536 C.2       1 <0>        -0.5282
      6 C6         -0.0016   -0.0810    2.4780 C.2       1 <0>         0.3915
      7 O1          0.6144    0.1123    3.5167 O.3       1 <0>        -0.5837
      8 C7          0.7424   -0.5139    1.2420 C.3       1 <0>        -0.1459
      9 C8         -2.0734    0.5308    3.7127 C.3       1 <0>         0.1227
     10 C9         -3.0701   -0.5227    4.1089 C.ar      1 <0>        -0.0810
     11 C10        -2.6419   -1.6747    4.7424 C.ar      1 <0>        -0.0822
     12 C11        -3.5547   -2.6457    5.1083 C.ar      1 <0>        -0.1403
     13 C12        -4.9000   -2.4684    4.8414 C.ar      1 <0>        -0.1058
     14 C13        -5.3337   -1.3191    4.2089 C.ar      1 <0>        -0.0595
     15 C14        -4.4171   -0.3411    3.8395 C.ar      1 <0>         0.1446
     16 O2         -4.8434    0.7833    3.2194 O.3       1 <0>        -0.2125
     17 C15        -4.0937    1.9001    3.2467 C.2       1 <0>         0.1577
     18 C16        -2.7669    1.8485    3.4690 C.2       1 <0>        -0.2616
     19 C17        -1.9830    3.0178    3.4794 C.2       1 <0>         0.3973
     20 O3         -0.7903    2.9334    3.6944 O.2       1 <0>        -0.4497
     21 C18        -2.5934    4.3695    3.2290 C.3       1 <0>        -0.1596
     22 C19        -3.8295    4.1990    2.3395 C.3       1 <0>        -0.0519
     23 C20        -4.7883    3.2233    3.0251 C.3       1 <0>        -0.0656
     24 C21        -4.5193    5.5519    2.1528 C.3       1 <0>        -0.1370
     25 C22        -3.4108    3.6384    0.9789 C.3       1 <0>        -0.1512
     26 Cl1        -7.0226   -1.0968    3.8744 Cl        1 <0>        -0.0770
     27 O4         -3.3119    0.0694    1.3271 O.2       1 <0>        -0.5792
     28 C23         0.7125   -0.5000   -1.2590 C.3       1 <0>        -0.1382
     29 H1          1.0039    1.9031    0.0027 H         1 <0>         0.0434
     30 H2         -0.5459    1.8868   -0.8726 H         1 <0>         0.0420
     31 H3         -0.5289    1.8773    0.9072 H         1 <0>         0.0720
     32 H4         -1.9852   -0.1383   -0.8233 H         1 <0>         0.0610
     33 H5          0.7967   -1.6021    1.2116 H         1 <0>         0.0665
     34 H6          1.7502   -0.0991    1.2603 H         1 <0>         0.0627
     35 H7         -1.3430    0.6506    4.5129 H         1 <0>         0.0833
     36 H8         -1.5918   -1.8161    4.9516 H         1 <0>         0.1286
     37 H9         -3.2170   -3.5444    5.6029 H         1 <0>         0.1251
     38 H10        -5.6119   -3.2283    5.1278 H         1 <0>         0.1298
     39 H11        -2.8856    4.8195    4.1778 H         1 <0>         0.0912
     40 H12        -1.8682    5.0102    2.7273 H         1 <0>         0.0890
     41 H13        -5.6640    3.0721    2.3939 H         1 <0>         0.0888
     42 H14        -5.1004    3.6345    3.9851 H         1 <0>         0.0890
     43 H15        -3.8278    6.2503    1.6813 H         1 <0>         0.0592
     44 H16        -5.3979    5.4275    1.5199 H         1 <0>         0.0586
     45 H17        -4.8235    5.9418    3.1242 H         1 <0>         0.0561
     46 H18        -2.9286    2.6707    1.1175 H         1 <0>         0.0799
     47 H19        -4.2919    3.5183    0.3486 H         1 <0>         0.0553
     48 H20        -2.7135    4.3267    0.5013 H         1 <0>         0.0512
     49 H21        -1.4188   -1.6254   -0.0242 H         1 <0>         0.0647
     50 H22         1.7353   -0.1236   -1.2717 H         1 <0>         0.0494
     51 H23         0.7263   -1.5899   -1.2634 H         1 <0>         0.0492
     52 H24         0.1818   -0.1399   -2.1404 H         1 <0>         0.0488
@<TRIPOS>BOND
     1    1    2 1
     2    1   29 1
     3    1   30 1
     4    1   31 1
     5    2    8 1
     6    2   28 1
     7    2    3 1
     8    3    4 1
     9    3   32 1
    10    3   49 1
    11    4    5 1
    12    4   27 2
    13    5    9 1
    14    5    6 2
    15    6    7 1
    16    6    8 1
    17    8   33 1
    18    8   34 1
    19    9   18 1
    20    9   10 1
    21    9   35 1
    22   10   15 ar
    23   10   11 ar
    24   11   12 ar
    25   11   36 1
    26   12   13 ar
    27   12   37 1
    28   13   14 ar
    29   13   38 1
    30   14   15 ar
    31   14   26 1
    32   15   16 1
    33   16   17 1
    34   17   23 1
    35   17   18 2
    36   18   19 1
    37   19   20 2
    38   19   21 1
    39   21   22 1
    40   21   39 1
    41   21   40 1
    42   22   23 1
    43   22   24 1
    44   22   25 1
    45   23   41 1
    46   23   42 1
    47   24   43 1
    48   24   44 1
    49   24   45 1
    50   25   46 1
    51   25   47 1
    52   25   48 1
    53   28   50 1
    54   28   51 1
    55   28   52 1
@<TRIPOS>MOLECULE
ZINC00828109
   53    56     0     0     0
SMALL
USER_CHARGES
5-chloro-9-(2-hydroxy-4,4-dimethyl-6-oxo-1-cyclohexenyl)-3,3-dimethyl-4,9-dihydro-2H-xanthen-1-one
@<TRIPOS>ATOM
      1 C1          1.6831    0.3656    2.2622 C.3       1 <0>        -0.1619
      2 C2          2.2678    0.0818    0.8771 C.3       1 <0>        -0.0725
      3 C3          1.2817   -0.7648    0.0676 C.3       1 <0>        -0.1415
      4 C4          0.0038    0.0055   -0.1313 C.2       1 <0>         0.3355
      5 C5          0.0021    1.3492   -0.1942 C.3       1 <0>        -0.1963
      6 C6          1.1840    2.0943   -0.0723 C.2       1 <0>         0.3743
      7 O1          1.1415    3.3065   -0.1390 O.2       1 <0>        -0.4362
      8 C7          2.5065    1.4035    0.1401 C.3       1 <0>        -0.1634
      9 C8         -1.3028    2.0723   -0.4073 C.3       1 <0>         0.0629
     10 H1         -2.1133    1.3457   -0.4628 H         1 <0>         0.1284
     11 C9         -1.2387    2.8463   -1.6950 C.ar      1 <0>        -0.1209
     12 C10        -1.4147    2.1945   -2.9014 C.ar      1 <0>        -0.0735
     13 C11        -1.3590    2.9025   -4.0871 C.ar      1 <0>        -0.1225
     14 C12        -1.1271    4.2658   -4.0695 C.ar      1 <0>        -0.0804
     15 C13        -0.9497    4.9218   -2.8668 C.ar      1 <0>        -0.0495
     16 C14        -1.0040    4.2117   -1.6721 C.ar      1 <0>         0.1343
     17 O2         -0.8240    4.8574   -0.4980 O.3       1 <0>        -0.2058
     18 C15        -1.2978    4.3240    0.6415 C.2       1 <0>         0.2258
     19 C16        -1.5516    3.0066    0.7515 C.2       1 <0>        -0.3436
     20 C17        -2.0583    2.4569    1.9441 C.2       1 <0>         0.3983
     21 O3         -2.2584    1.2605    2.0107 O.2       1 <0>        -0.4597
     22 C18        -2.3564    3.3221    3.1380 C.3       1 <0>        -0.1501
     23 C19        -2.6992    4.7348    2.6530 C.3       1 <0>        -0.0547
     24 C20        -1.5335    5.2534    1.8099 C.3       1 <0>        -0.0805
     25 C21        -3.9699    4.6922    1.8020 C.3       1 <0>        -0.1557
     26 C22        -2.9173    5.6531    3.8572 C.3       1 <0>        -0.1411
     27 Cl1        -0.6593    6.6332   -2.8465 Cl        1 <0>        -0.0486
     28 O4         -1.1592   -0.6630   -0.2487 O.2       1 <0>        -0.4995
     29 C23         3.5909   -0.6725    1.0240 C.3       1 <0>        -0.1385
     30 H2          1.5034   -0.5762    2.7807 H         1 <0>         0.0771
     31 H3          2.3864    0.9683    2.8370 H         1 <0>         0.0749
     32 H4          0.7430    0.9069    2.1558 H         1 <0>         0.0424
     33 H5          1.0690   -1.6886    0.6056 H         1 <0>         0.1104
     34 H6          1.7177   -1.0018   -0.9029 H         1 <0>         0.1213
     35 H7          3.1592    2.0409    0.7365 H         1 <0>         0.1086
     36 H8          2.9723    1.2039   -0.8249 H         1 <0>         0.1185
     37 H9         -1.5956    1.1299   -2.9174 H         1 <0>         0.1390
     38 H10        -1.4967    2.3908   -5.0282 H         1 <0>         0.1414
     39 H11        -1.0845    4.8179   -4.9967 H         1 <0>         0.1458
     40 H12        -3.1310    2.9396    3.6417 H         1 <0>         0.0921
     41 H13        -1.4830    3.3595    3.7890 H         1 <0>         0.1020
     42 H14        -0.6342    5.2994    2.4240 H         1 <0>         0.1089
     43 H15        -1.7698    6.2505    1.4383 H         1 <0>         0.1045
     44 H16        -4.7949    4.3049    2.3999 H         1 <0>         0.0668
     45 H17        -4.2112    5.6982    1.4586 H         1 <0>         0.0665
     46 H18        -3.8091    4.0432    0.9411 H         1 <0>         0.0574
     47 H19        -2.0081    5.6873    4.4574 H         1 <0>         0.0626
     48 H20        -3.1609    6.6570    3.5092 H         1 <0>         0.0660
     49 H21        -3.7383    5.2693    4.4628 H         1 <0>         0.0670
     50 H22         0.1635    1.2347    0.7860 H         1 <0>         0.1636
     51 H23         4.0081   -0.8698    0.0365 H         1 <0>         0.0661
     52 H24         4.2915   -0.0684    1.6004 H         1 <0>         0.0665
     53 H25         3.4155   -1.6167    1.5396 H         1 <0>         0.0673
@<TRIPOS>BOND
     1    1    2 1
     2    1   30 1
     3    1   31 1
     4    1   32 1
     5    2    8 1
     6    2    3 1
     7    2   29 1
     8    3    4 1
     9    3   33 1
    10    3   34 1
    11    4    5 1
    12    4   28 2
    13    5   50 1
    14    5    9 1
    15    5    6 1
    16    6    8 1
    17    6    7 2
    18    8   35 1
    19    8   36 1
    20    9   10 1
    21    9   19 1
    22    9   11 1
    23   11   16 ar
    24   11   12 ar
    25   12   13 ar
    26   12   37 1
    27   13   14 ar
    28   13   38 1
    29   14   15 ar
    30   14   39 1
    31   15   16 ar
    32   15   27 1
    33   16   17 1
    34   17   18 1
    35   18   24 1
    36   18   19 2
    37   19   20 1
    38   20   21 2
    39   20   22 1
    40   22   23 1
    41   22   40 1
    42   22   41 1
    43   23   24 1
    44   23   25 1
    45   23   26 1
    46   24   42 1
    47   24   43 1
    48   25   44 1
    49   25   45 1
    50   25   46 1
    51   26   47 1
    52   26   48 1
    53   26   49 1
    54   29   51 1
    55   29   52 1
    56   29   53 1
@<TRIPOS>MOLECULE
ZINC04809571
   57    60     0     0     0
SMALL
USER_CHARGES

@<TRIPOS>ATOM
      1 C1          1.2148   -2.3707    4.7585 C.3       1 <0>        -0.1823
      2 C2          0.9533   -2.2566    3.2554 C.3       1 <0>        -0.0491
      3 C3          1.1110   -0.7972    2.8199 C.3       1 <0>        -0.1662
      4 C4          0.0868    0.0470    3.5447 C.2       1 <0>         0.3715
      5 C5         -1.3717   -0.3490    3.4342 C.3       1 <0>        -0.2214
      6 C6         -1.4548   -1.8436    3.6692 C.2       1 <0>         0.3712
      7 O1         -2.2853   -2.3103    4.4114 O.2       1 <0>        -0.4278
      8 C7         -0.4685   -2.7342    2.9476 C.3       1 <0>        -0.1632
      9 C8         -2.1928    0.3903    4.4926 C.3       1 <0>         0.0414
     10 H1         -1.9664    1.4555    4.4453 H         1 <0>         0.1057
     11 C9         -1.8350   -0.1342    5.8555 C.ar      1 <0>        -0.0754
     12 C10        -0.5168   -0.4141    6.1624 C.ar      1 <0>        -0.1558
     13 C11        -0.1837   -0.8994    7.4179 C.ar      1 <0>         0.1210
     14 C12        -1.1751   -1.1033    8.3669 C.ar      1 <0>        -0.1833
     15 C13        -2.4914   -0.8229    8.0611 C.ar      1 <0>        -0.0806
     16 C14        -2.8260   -0.3380    6.8030 C.ar      1 <0>         0.0726
     17 O2         -4.1186   -0.0656    6.5075 O.3       1 <0>        -0.2344
     18 C15        -4.5292   -0.0264    5.2271 C.2       1 <0>         0.2034
     19 C16        -3.6621    0.1798    4.2212 C.2       1 <0>        -0.3096
     20 C17        -4.0963    0.2081    2.8826 C.2       1 <0>         0.4153
     21 O3         -3.2896    0.4186    1.9989 O.2       1 <0>        -0.4732
     22 C18        -5.5399   -0.0177    2.5254 C.3       1 <0>        -0.1599
     23 C19        -6.1827   -0.9046    3.5970 C.3       1 <0>        -0.0538
     24 C20        -6.0016   -0.2216    4.9505 C.3       1 <0>        -0.0779
     25 C21        -7.6748   -1.0692    3.3013 C.3       1 <0>        -0.1408
     26 C22        -5.5018   -2.2747    3.6070 C.3       1 <0>        -0.1593
     27 O4          1.1131   -1.1755    7.7186 O.3       1 <0>        -0.3109
     28 C23         1.3832   -1.6725    9.0309 C.3       1 <0>         0.0249
     29 O5          0.4217    1.0090    4.1933 O.2       1 <0>        -0.4321
     30 C24         1.9581   -3.1254    2.4961 C.3       1 <0>        -0.1406
     31 H2          1.1053   -3.4100    5.0685 H         1 <0>         0.0628
     32 H3          2.2269   -2.0308    4.9781 H         1 <0>         0.0674
     33 H4          0.4985   -1.7527    5.2999 H         1 <0>         0.0801
     34 H5          2.1132   -0.4485    3.0692 H         1 <0>         0.1016
     35 H6          0.9548   -0.7187    1.7440 H         1 <0>         0.1091
     36 H7         -0.6467   -2.6805    1.8736 H         1 <0>         0.1044
     37 H8         -0.5893   -3.7628    3.2877 H         1 <0>         0.0978
     38 H9          0.2546   -0.2551    5.4234 H         1 <0>         0.1638
     39 H10        -0.9167   -1.4812    9.3451 H         1 <0>         0.1396
     40 H11        -3.2625   -0.9814    8.8005 H         1 <0>         0.1392
     41 H12        -6.0597    0.9395    2.4836 H         1 <0>         0.1067
     42 H13        -5.6031   -0.5122    1.5561 H         1 <0>         0.1019
     43 H14        -6.4363   -0.8512    5.7268 H         1 <0>         0.1009
     44 H15        -6.5017    0.7469    4.9473 H         1 <0>         0.1077
     45 H16        -7.8023   -1.5333    2.3233 H         1 <0>         0.0657
     46 H17        -8.1291   -1.7003    4.0650 H         1 <0>         0.0642
     47 H18        -8.1559   -0.0911    3.3047 H         1 <0>         0.0624
     48 H19        -4.4264   -2.1451    3.7290 H         1 <0>         0.0714
     49 H20        -5.8923   -2.8685    4.4335 H         1 <0>         0.0623
     50 H21        -5.7016   -2.7866    2.6657 H         1 <0>         0.0618
     51 H22         2.4531   -1.8510    9.1388 H         1 <0>         0.1025
     52 H23         1.0608   -0.9395    9.7705 H         1 <0>         0.0570
     53 H24         0.8418   -2.6060    9.1845 H         1 <0>         0.0564
     54 H25         1.8475   -4.1644    2.8065 H         1 <0>         0.0633
     55 H26         1.7722   -3.0444    1.4252 H         1 <0>         0.0622
     56 H27         2.9705   -2.7864    2.7158 H         1 <0>         0.0643
     57 H28        -1.7467   -0.1079    2.4395 H         1 <0>         0.1940
@<TRIPOS>BOND
     1    1    2 1
     2    1   31 1
     3    1   32 1
     4    1   33 1
     5    2    8 1
     6    2    3 1
     7    2   30 1
     8    3   34 1
     9    3   35 1
    10    3    4 1
    11    4    5 1
    12    4   29 2
    13    5    9 1
    14    5   57 1
    15    5    6 1
    16    6    8 1
    17    6    7 2
    18    8   36 1
    19    8   37 1
    20    9   10 1
    21    9   19 1
    22    9   11 1
    23   11   16 ar
    24   11   12 ar
    25   12   13 ar
    26   12   38 1
    27   13   14 ar
    28   13   27 1
    29   14   15 ar
    30   14   39 1
    31   15   16 ar
    32   15   40 1
    33   16   17 1
    34   17   18 1
    35   18   24 1
    36   18   19 2
    37   19   20 1
    38   20   21 2
    39   20   22 1
    40   22   23 1
    41   22   41 1
    42   22   42 1
    43   23   24 1
    44   23   25 1
    45   23   26 1
    46   24   43 1
    47   24   44 1
    48   25   45 1
    49   25   46 1
    50   25   47 1
    51   26   48 1
    52   26   49 1
    53   26   50 1
    54   27   28 1
    55   28   51 1
    56   28   52 1
    57   28   53 1
    58   30   54 1
    59   30   55 1
    60   30   56 1
@<TRIPOS>MOLECULE
ZINC04809571
   56    59     0     0     0
SMALL
USER_CHARGES

@<TRIPOS>ATOM
      1 C1         -0.0187    1.5258    0.0104 C.3       1 <0>        -0.1381
      2 C2          0.0021   -0.0041    0.0020 C.3       1 <0>        -0.0483
      3 C3         -1.4336   -0.5368    0.0282 C.3       1 <0>        -0.1445
      4 C4         -2.1014   -0.1040    1.3070 C.2       1 <0>         0.3820
      5 C5         -1.3665    0.0995    2.4536 C.2       1 <0>        -0.5271
      6 C6         -0.0016   -0.0810    2.4780 C.2       1 <0>         0.3909
      7 O1          0.6144    0.1123    3.5167 O.3       1 <0>        -0.5828
      8 C7          0.7424   -0.5139    1.2420 C.3       1 <0>        -0.1459
      9 C8         -2.0734    0.5308    3.7127 C.3       1 <0>         0.1225
     10 H1         -1.3440    0.6435    4.5148 H         1 <0>         0.0822
     11 C9         -3.0809   -0.5157    4.1005 C.ar      1 <0>        -0.0511
     12 C10        -2.6656   -1.6708    4.7358 C.ar      1 <0>        -0.1151
     13 C11        -3.5920   -2.6381    5.0946 C.ar      1 <0>         0.0933
     14 C12        -4.9374   -2.4461    4.8152 C.ar      1 <0>        -0.1973
     15 C13        -5.3526   -1.2924    4.1814 C.ar      1 <0>        -0.1099
     16 C14        -4.4250   -0.3226    3.8224 C.ar      1 <0>         0.1012
     17 O2         -4.8376    0.8083    3.2034 O.3       1 <0>        -0.2233
     18 C15        -4.0795    1.9189    3.2430 C.2       1 <0>         0.1598
     19 C16        -2.7586    1.8533    3.4721 C.2       1 <0>        -0.2650
     20 C17        -1.9689    3.0184    3.4932 C.2       1 <0>         0.3962
     21 O3         -0.7778    2.9270    3.7142 O.2       1 <0>        -0.4507
     22 C18        -2.5715    4.3744    3.2470 C.3       1 <0>        -0.1597
     23 C19        -3.8034    4.2152    2.3496 C.3       1 <0>        -0.0525
     24 C20        -4.7619    3.2494    3.0263 C.3       1 <0>        -0.0655
     25 C21        -4.4853    5.5725    2.1653 C.3       1 <0>        -0.1369
     26 C22        -3.3804    3.6615    0.9875 C.3       1 <0>        -0.1508
     27 O4         -3.1824   -3.7737    5.7201 O.3       1 <0>        -0.3200
     28 C23        -4.1912   -4.7269    6.0605 C.3       1 <0>         0.0310
     29 O5         -3.3119    0.0694    1.3271 O.2       1 <0>        -0.5800
     30 C24         0.7125   -0.5000   -1.2590 C.3       1 <0>        -0.1380
     31 H2          1.0039    1.9031    0.0027 H         1 <0>         0.0432
     32 H3         -0.5459    1.8868   -0.8726 H         1 <0>         0.0417
     33 H4         -0.5289    1.8773    0.9072 H         1 <0>         0.0723
     34 H5         -1.9852   -0.1383   -0.8233 H         1 <0>         0.0603
     35 H6         -1.4189   -1.6254   -0.0249 H         1 <0>         0.0643
     36 H7          0.7967   -1.6021    1.2116 H         1 <0>         0.0664
     37 H8          1.7502   -0.0991    1.2603 H         1 <0>         0.0624
     38 H9         -1.6182   -1.8203    4.9527 H         1 <0>         0.1305
     39 H10        -5.6596   -3.1994    5.0933 H         1 <0>         0.1249
     40 H11        -6.4001   -1.1435    3.9643 H         1 <0>         0.1242
     41 H12        -2.8670    4.8204    4.1967 H         1 <0>         0.0907
     42 H13        -1.8405    5.0145    2.7531 H         1 <0>         0.0881
     43 H14        -5.6350    3.1097    2.3889 H         1 <0>         0.0869
     44 H15        -5.0765    3.6564    3.9873 H         1 <0>         0.0885
     45 H16        -3.7876    6.2696    1.7013 H         1 <0>         0.0590
     46 H17        -5.3608    5.4555    1.5267 H         1 <0>         0.0582
     47 H18        -4.7932    5.9592    3.1368 H         1 <0>         0.0558
     48 H19        -2.9034    2.6907    1.1222 H         1 <0>         0.0799
     49 H20        -4.2588    3.5496    0.3520 H         1 <0>         0.0548
     50 H21        -2.6775    4.3496    0.5179 H         1 <0>         0.0512
     51 H22        -4.9140   -4.2661    6.7338 H         1 <0>         0.0499
     52 H23        -4.6985   -5.0582    5.1545 H         1 <0>         0.0504
     53 H24        -3.7305   -5.5833    6.5529 H         1 <0>         0.0926
     54 H25         1.7353   -0.1236   -1.2717 H         1 <0>         0.0493
     55 H26         0.7263   -1.5899   -1.2634 H         1 <0>         0.0491
     56 H27         0.1818   -0.1399   -2.1404 H         1 <0>         0.0486
@<TRIPOS>BOND
     1    1    2 1
     2    1   31 1
     3    1   32 1
     4    1   33 1
     5    2    8 1
     6    2    3 1
     7    2   30 1
     8    3   34 1
     9    3   35 1
    10    3    4 1
    11    4    5 1
    12    4   29 2
    13    5    9 1
    14    5    6 2
    15    6    8 1
    16    6    7 1
    17    8   36 1
    18    8   37 1
    19    9   10 1
    20    9   19 1
    21    9   11 1
    22   11   16 ar
    23   11   12 ar
    24   12   13 ar
    25   12   38 1
    26   13   14 ar
    27   13   27 1
    28   14   15 ar
    29   14   39 1
    30   15   16 ar
    31   15   40 1
    32   16   17 1
    33   17   18 1
    34   18   24 1
    35   18   19 2
    36   19   20 1
    37   20   21 2
    38   20   22 1
    39   22   23 1
    40   22   41 1
    41   22   42 1
    42   23   24 1
    43   23   25 1
    44   23   26 1
    45   24   43 1
    46   24   44 1
    47   25   45 1
    48   25   46 1
    49   25   47 1
    50   26   48 1
    51   26   49 1
    52   26   50 1
    53   27   28 1
    54   28   51 1
    55   28   52 1
    56   28   53 1
    57   30   54 1
    58   30   55 1
    59   30   56 1
@<TRIPOS>MOLECULE
ZINC04809571
   57    60     0     0     0
SMALL
USER_CHARGES

@<TRIPOS>ATOM
      1 C1         -0.1623    1.5117   -0.0933 C.3       1 <0>        -0.1416
      2 C2         -0.0694   -0.0149   -0.0484 C.3       1 <0>        -0.0533
      3 C3         -1.4782   -0.6131    0.0180 C.3       1 <0>        -0.1597
      4 C4         -1.3711   -2.1106    0.1491 C.2       1 <0>         0.4088
      5 C5         -0.2584   -2.6938    0.7726 C.2       1 <0>        -0.3468
      6 C6          0.7417   -1.9479    1.2758 C.2       1 <0>         0.2264
      7 O1          1.7908   -2.5570    1.8602 O.3       1 <0>        -0.4561
      8 C7          0.7098   -0.4450    1.1976 C.3       1 <0>        -0.0792
      9 C8         -0.1813   -4.1948    0.8821 C.3       1 <0>         0.0883
     10 H1          0.7772   -4.4755    1.3188 H         1 <0>         0.0813
     11 C9         -0.2989   -4.8000   -0.4892 C.ar      1 <0>        -0.0864
     12 C10         0.7947   -4.8109   -1.3342 C.ar      1 <0>        -0.1192
     13 C11         0.6896   -5.3679   -2.5997 C.ar      1 <0>         0.1124
     14 C12        -0.5150   -5.9147   -3.0179 C.ar      1 <0>        -0.1777
     15 C13        -1.6072   -5.9046   -2.1741 C.ar      1 <0>        -0.0898
     16 C14        -1.5023   -5.3474   -0.9059 C.ar      1 <0>         0.1001
     17 O2         -2.5756   -5.3423   -0.0811 O.3       1 <0>        -0.2180
     18 C15        -2.4087   -5.2320    1.2493 C.2       1 <0>         0.2106
     19 C16        -1.2973   -4.6882    1.7696 C.2       1 <0>        -0.3165
     20 C17        -1.1383   -4.5591    3.1622 C.2       1 <0>         0.4097
     21 O3         -0.1159   -4.0726    3.6026 O.2       1 <0>        -0.4752
     22 C18        -2.2103   -5.0114    4.1155 C.3       1 <0>        -0.1603
     23 C19        -3.5705   -4.9139    3.4164 C.3       1 <0>        -0.0536
     24 C20        -3.5115   -5.7451    2.1456 C.3       1 <0>        -0.0785
     25 C21        -4.6634   -5.4593    4.3378 C.3       1 <0>        -0.1409
     26 C22        -3.8685   -3.4535    3.0710 C.3       1 <0>        -0.1511
     27 O4          1.7663   -5.3787   -3.4299 O.3       1 <0>        -0.3154
     28 C23         1.5858   -5.9687   -4.7188 C.3       1 <0>         0.0261
     29 O5         -2.2557   -2.8185   -0.2892 O.2       1 <0>        -0.4656
     30 C24         0.6472   -0.5219   -1.3015 C.3       1 <0>        -0.1518
     31 H2          0.8411    1.9358   -0.1290 H         1 <0>         0.0630
     32 H3         -0.7172    1.8159   -0.9808 H         1 <0>         0.0640
     33 H4         -0.6771    1.8707    0.7979 H         1 <0>         0.0606
     34 H5         -2.0059   -0.2084    0.8816 H         1 <0>         0.0966
     35 H6          1.7288   -0.0627    1.1388 H         1 <0>         0.0987
     36 H7          0.2226   -0.0449    2.0869 H         1 <0>         0.1033
     37 H8          1.7322   -4.3848   -1.0086 H         1 <0>         0.1323
     38 H9         -0.5982   -6.3478   -4.0037 H         1 <0>         0.1386
     39 H10        -2.5446   -6.3304   -2.5002 H         1 <0>         0.1380
     40 H11        -2.0246   -6.0443    4.4100 H         1 <0>         0.1021
     41 H12        -2.2070   -4.3722    4.9984 H         1 <0>         0.0986
     42 H13        -4.4665   -5.6684    1.6259 H         1 <0>         0.1002
     43 H14        -3.3188   -6.7881    2.3970 H         1 <0>         0.1057
     44 H15        -4.6873   -4.8759    5.2582 H         1 <0>         0.0650
     45 H16        -5.6292   -5.3884    3.8375 H         1 <0>         0.0638
     46 H17        -4.4523   -6.5023    4.5741 H         1 <0>         0.0615
     47 H18        -3.0928   -3.0716    2.4073 H         1 <0>         0.0606
     48 H19        -4.8364   -3.3880    2.5740 H         1 <0>         0.0632
     49 H20        -3.8887   -2.8607    3.9854 H         1 <0>         0.0613
     50 H21         2.5195   -5.9117   -5.2785 H         1 <0>         0.1018
     51 H22         1.2949   -7.0128   -4.6029 H         1 <0>         0.0565
     52 H23         0.8055   -5.4318   -5.2582 H         1 <0>         0.0563
     53 H24        -2.0230   -0.3650   -0.8929 H         1 <0>         0.0943
     54 H25         1.6509   -0.0988   -1.3423 H         1 <0>         0.0624
     55 H26         0.7125   -1.6094   -1.2678 H         1 <0>         0.0600
     56 H27         0.0888   -0.2187   -2.1871 H         1 <0>         0.0617
     57 H28         1.7717   -3.5216    1.7951 H         1 <0>         0.4032
@<TRIPOS>BOND
     1    1    2 1
     2    1   31 1
     3    1   32 1
     4    1   33 1
     5    2    8 1
     6    2   30 1
     7    2    3 1
     8    3    4 1
     9    3   34 1
    10    3   53 1
    11    4    5 1
    12    4   29 2
    13    5    9 1
    14    5    6 2
    15    6    7 1
    16    6    8 1
    17    7   57 1
    18    8   35 1
    19    8   36 1
    20    9   10 1
    21    9   19 1
    22    9   11 1
    23   11   16 ar
    24   11   12 ar
    25   12   13 ar
    26   12   37 1
    27   13   14 ar
    28   13   27 1
    29   14   15 ar
    30   14   38 1
    31   15   16 ar
    32   15   39 1
    33   16   17 1
    34   17   18 1
    35   18   24 1
    36   18   19 2
    37   19   20 1
    38   20   21 2
    39   20   22 1
    40   22   23 1
    41   22   40 1
    42   22   41 1
    43   23   24 1
    44   23   25 1
    45   23   26 1
    46   24   42 1
    47   24   43 1
    48   25   44 1
    49   25   45 1
    50   25   46 1
    51   26   47 1
    52   26   48 1
    53   26   49 1
    54   27   28 1
    55   28   50 1
    56   28   51 1
    57   28   52 1
    58   30   54 1
    59   30   55 1
    60   30   56 1
@<TRIPOS>MOLECULE
ZINC04809572
   57    60     0     0     0
SMALL
USER_CHARGES

@<TRIPOS>ATOM
      1 C1         -0.0187    1.5258    0.0104 C.3       1 <0>        -0.1538
      2 C2          0.0021   -0.0041    0.0020 C.3       1 <0>        -0.0542
      3 C3         -1.4347   -0.5334    0.0090 C.3       1 <0>        -0.1540
      4 C4         -2.1225   -0.0756    1.2756 C.2       1 <0>         0.3926
      5 C5         -1.4669   -0.4023    2.6021 C.3       1 <0>        -0.1818
      6 C6          0.0026   -0.0534    2.4796 C.2       1 <0>         0.3722
      7 O1          0.5667    0.5715    3.3453 O.2       1 <0>        -0.4291
      8 C7          0.7427   -0.5107    1.2427 C.3       1 <0>        -0.1652
      9 C8         -1.6237   -1.8935    2.9064 C.3       1 <0>         0.0465
     10 H1         -1.1488   -2.4747    2.1159 H         1 <0>         0.1087
     11 C9         -0.9612   -2.2055    4.2196 C.ar      1 <0>        -0.0999
     12 C10         0.4121   -2.3469    4.2826 C.ar      1 <0>        -0.1160
     13 C11         1.0260   -2.6361    5.4919 C.ar      1 <0>         0.1272
     14 C12         0.2603   -2.7830    6.6396 C.ar      1 <0>        -0.1750
     15 C13        -1.1113   -2.6419    6.5769 C.ar      1 <0>        -0.0783
     16 C14        -1.7269   -2.3526    5.3656 C.ar      1 <0>         0.0693
     17 O2         -3.0724   -2.2154    5.3093 O.3       1 <0>        -0.2323
     18 C15        -3.7235   -2.3760    4.1432 C.2       1 <0>         0.2031
     19 C16        -3.0913   -2.2390    2.9668 C.2       1 <0>        -0.3203
     20 C17        -3.7779   -2.4155    1.7508 C.2       1 <0>         0.4120
     21 O3         -3.1817   -2.2667    0.7028 O.2       1 <0>        -0.4678
     22 C18        -5.2359   -2.7845    1.7242 C.3       1 <0>        -0.1592
     23 C19        -5.5724   -3.5668    2.9982 C.3       1 <0>        -0.0549
     24 C20        -5.1958   -2.7115    4.1958 C.3       1 <0>        -0.0792
     25 C21        -4.7777   -4.8739    3.0242 C.3       1 <0>        -0.1538
     26 C22        -7.0715   -3.8706    3.0343 C.3       1 <0>        -0.1411
     27 O4          2.3770   -2.7760    5.5529 O.3       1 <0>        -0.3112
     28 C23         2.9414   -3.0737    6.8315 C.3       1 <0>         0.0244
     29 O5         -3.1648    0.5326    1.2311 O.2       1 <0>        -0.4475
     30 C24         0.7197   -0.4968   -1.2562 C.3       1 <0>        -0.1394
     31 H2          1.0039    1.9031    0.0027 H         1 <0>         0.0668
     32 H3         -0.5459    1.8868   -0.8726 H         1 <0>         0.0680
     33 H4         -0.5289    1.8773    0.9072 H         1 <0>         0.0477
     34 H5         -1.9704   -0.1457   -0.8574 H         1 <0>         0.0945
     35 H6         -1.4221   -1.6227   -0.0275 H         1 <0>         0.1235
     36 H7          0.7834   -1.5997    1.2237 H         1 <0>         0.1044
     37 H8          1.7551   -0.1067    1.2533 H         1 <0>         0.1013
     38 H9          1.0078   -2.2323    3.3891 H         1 <0>         0.1359
     39 H10         0.7374   -3.0082    7.5819 H         1 <0>         0.1437
     40 H11        -1.7066   -2.7566    7.4706 H         1 <0>         0.1433
     41 H12        -5.8410   -1.8789    1.6812 H         1 <0>         0.1063
     42 H13        -5.4399   -3.4039    0.8508 H         1 <0>         0.1028
     43 H14        -5.4099   -3.2621    5.1118 H         1 <0>         0.1030
     44 H15        -5.7785   -1.7904    4.1823 H         1 <0>         0.1096
     45 H16        -3.7109   -4.6509    3.0077 H         1 <0>         0.0569
     46 H17        -5.0191   -5.4280    3.9313 H         1 <0>         0.0648
     47 H18        -5.0368   -5.4741    2.1520 H         1 <0>         0.0666
     48 H19        -7.3428   -4.4655    2.1622 H         1 <0>         0.0669
     49 H20        -7.3078   -4.4269    3.9414 H         1 <0>         0.0646
     50 H21        -7.6320   -2.9358    3.0251 H         1 <0>         0.0633
     51 H22         4.0241   -3.1590    6.7398 H         1 <0>         0.1043
     52 H23         2.6978   -2.2743    7.5313 H         1 <0>         0.0584
     53 H24         2.5326   -4.0151    7.1988 H         1 <0>         0.0581
     54 H25         1.7422   -0.1193   -1.2627 H         1 <0>         0.0629
     55 H26         0.7347   -1.5867   -1.2626 H         1 <0>         0.0629
     56 H27         0.1933   -0.1355   -2.1397 H         1 <0>         0.0644
     57 H28        -1.9239    0.1878    3.3965 H         1 <0>         0.1129
@<TRIPOS>BOND
     1    1    2 1
     2    1   31 1
     3    1   32 1
     4    1   33 1
     5    2    8 1
     6    2    3 1
     7    2   30 1
     8    3   34 1
     9    3   35 1
    10    3    4 1
    11    4    5 1
    12    4   29 2
    13    5    9 1
    14    5   57 1
    15    5    6 1
    16    6    8 1
    17    6    7 2
    18    8   36 1
    19    8   37 1
    20    9   10 1
    21    9   19 1
    22    9   11 1
    23   11   16 ar
    24   11   12 ar
    25   12   13 ar
    26   12   38 1
    27   13   14 ar
    28   13   27 1
    29   14   15 ar
    30   14   39 1
    31   15   16 ar
    32   15   40 1
    33   16   17 1
    34   17   18 1
    35   18   24 1
    36   18   19 2
    37   19   20 1
    38   20   21 2
    39   20   22 1
    40   22   23 1
    41   22   41 1
    42   22   42 1
    43   23   24 1
    44   23   25 1
    45   23   26 1
    46   24   43 1
    47   24   44 1
    48   25   45 1
    49   25   46 1
    50   25   47 1
    51   26   48 1
    52   26   49 1
    53   26   50 1
    54   27   28 1
    55   28   51 1
    56   28   52 1
    57   28   53 1
    58   30   54 1
    59   30   55 1
    60   30   56 1
@<TRIPOS>MOLECULE
ZINC04809572
   56    59     0     0     0
SMALL
USER_CHARGES

@<TRIPOS>ATOM
      1 C1         -0.0187    1.5258    0.0104 C.3       1 <0>        -0.1386
      2 C2          0.0021   -0.0041    0.0020 C.3       1 <0>        -0.0489
      3 C3         -1.4336   -0.5368    0.0282 C.3       1 <0>        -0.1439
      4 C4         -2.1014   -0.1040    1.3070 C.2       1 <0>         0.3813
      5 C5         -1.3665    0.0995    2.4536 C.2       1 <0>        -0.5274
      6 C6         -0.0016   -0.0810    2.4780 C.2       1 <0>         0.3916
      7 O1          0.6144    0.1123    3.5167 O.3       1 <0>        -0.5826
      8 C7          0.7424   -0.5139    1.2420 C.3       1 <0>        -0.1454
      9 C8         -2.0734    0.5308    3.7127 C.3       1 <0>         0.1230
     10 H1         -1.3441    0.6436    4.5150 H         1 <0>         0.0820
     11 C9         -2.7568    1.8484    3.4730 C.ar      1 <0>        -0.0505
     12 C10        -2.0234    3.0196    3.4949 C.ar      1 <0>        -0.1151
     13 C11        -2.6510    4.2366    3.2757 C.ar      1 <0>         0.0937
     14 C12        -4.0165    4.2778    3.0335 C.ar      1 <0>        -0.1971
     15 C13        -4.7490    3.1083    3.0106 C.ar      1 <0>        -0.1099
     16 C14        -4.1211    1.8889    3.2315 C.ar      1 <0>         0.1019
     17 O2         -4.8441    0.7447    3.2091 O.3       1 <0>        -0.2238
     18 C15        -4.3902   -0.3581    3.8314 C.2       1 <0>         0.1624
     19 C16        -3.0850   -0.5190    4.1018 C.2       1 <0>        -0.2673
     20 C17        -2.6186   -1.6727    4.7596 C.2       1 <0>         0.3965
     21 O3         -1.4292   -1.7968    4.9736 O.2       1 <0>        -0.4523
     22 C18        -3.5647   -2.7551    5.2021 C.3       1 <0>        -0.1589
     23 C19        -4.9379   -2.1319    5.4749 C.3       1 <0>        -0.0548
     24 C20        -5.3961   -1.4185    4.2144 C.3       1 <0>        -0.0654
     25 C21        -4.8287   -1.1308    6.6267 C.3       1 <0>        -0.1494
     26 C22        -5.9389   -3.2311    5.8363 C.3       1 <0>        -0.1367
     27 O4         -1.9289    5.3883    3.2985 O.3       1 <0>        -0.3195
     28 C23        -2.6408    6.6051    3.0645 C.3       1 <0>         0.0309
     29 O5         -3.3119    0.0694    1.3271 O.2       1 <0>        -0.5831
     30 C24         0.7125   -0.5000   -1.2590 C.3       1 <0>        -0.1378
     31 H2          1.0039    1.9031    0.0027 H         1 <0>         0.0440
     32 H3         -0.5459    1.8868   -0.8726 H         1 <0>         0.0426
     33 H4         -0.5289    1.8773    0.9072 H         1 <0>         0.0715
     34 H5         -1.9852   -0.1383   -0.8233 H         1 <0>         0.0607
     35 H6         -1.4189   -1.6254   -0.0249 H         1 <0>         0.0641
     36 H7          0.7967   -1.6021    1.2116 H         1 <0>         0.0666
     37 H8          1.7502   -0.0991    1.2603 H         1 <0>         0.0627
     38 H9         -0.9604    2.9870    3.6834 H         1 <0>         0.1304
     39 H10        -4.5062    5.2251    2.8626 H         1 <0>         0.1249
     40 H11        -5.8118    3.1412    2.8215 H         1 <0>         0.1241
     41 H12        -3.6539   -3.5057    4.4168 H         1 <0>         0.0929
     42 H13        -3.1873   -3.2200    6.1129 H         1 <0>         0.0881
     43 H14        -6.3636   -0.9513    4.3978 H         1 <0>         0.0849
     44 H15        -5.4901   -2.1395    3.4024 H         1 <0>         0.0922
     45 H16        -4.1216   -0.3454    6.3597 H         1 <0>         0.0623
     46 H17        -5.8067   -0.6893    6.8183 H         1 <0>         0.0581
     47 H18        -4.4801   -1.6443    7.5227 H         1 <0>         0.0583
     48 H19        -5.5961   -3.7558    6.7282 H         1 <0>         0.0597
     49 H20        -6.9144   -2.7850    6.0297 H         1 <0>         0.0586
     50 H21        -6.0193   -3.9358    5.0086 H         1 <0>         0.0583
     51 H22        -3.1057    6.5703    2.0792 H         1 <0>         0.0504
     52 H23        -3.4113    6.7274    3.8257 H         1 <0>         0.0498
     53 H24        -1.9484    7.4457    3.1101 H         1 <0>         0.0925
     54 H25         1.7353   -0.1236   -1.2717 H         1 <0>         0.0496
     55 H26         0.7263   -1.5899   -1.2634 H         1 <0>         0.0491
     56 H27         0.1818   -0.1399   -2.1404 H         1 <0>         0.0487
@<TRIPOS>BOND
     1    1    2 1
     2    1   31 1
     3    1   32 1
     4    1   33 1
     5    2    8 1
     6    2    3 1
     7    2   30 1
     8    3   34 1
     9    3   35 1
    10    3    4 1
    11    4    5 1
    12    4   29 2
    13    5    9 1
    14    5    6 2
    15    6    8 1
    16    6    7 1
    17    8   36 1
    18    8   37 1
    19    9   10 1
    20    9   19 1
    21    9   11 1
    22   11   16 ar
    23   11   12 ar
    24   12   13 ar
    25   12   38 1
    26   13   14 ar
    27   13   27 1
    28   14   15 ar
    29   14   39 1
    30   15   16 ar
    31   15   40 1
    32   16   17 1
    33   17   18 1
    34   18   24 1
    35   18   19 2
    36   19   20 1
    37   20   21 2
    38   20   22 1
    39   22   23 1
    40   22   41 1
    41   22   42 1
    42   23   24 1
    43   23   25 1
    44   23   26 1
    45   24   43 1
    46   24   44 1
    47   25   45 1
    48   25   46 1
    49   25   47 1
    50   26   48 1
    51   26   49 1
    52   26   50 1
    53   27   28 1
    54   28   51 1
    55   28   52 1
    56   28   53 1
    57   30   54 1
    58   30   55 1
    59   30   56 1
@<TRIPOS>MOLECULE
ZINC04809572
   57    60     0     0     0
SMALL
USER_CHARGES

@<TRIPOS>ATOM
      1 C1          0.1019    1.5211    0.0594 C.3       1 <0>        -0.1415
      2 C2          0.0598   -0.0080    0.0256 C.3       1 <0>        -0.0532
      3 C3         -1.3971   -0.4817    0.0368 C.3       1 <0>        -0.1596
      4 C4         -1.4243   -1.9875    0.0908 C.2       1 <0>         0.4099
      5 C5         -0.3804   -2.6979    0.7013 C.2       1 <0>        -0.3424
      6 C6          0.6701   -2.0701    1.2597 C.2       1 <0>         0.2241
      7 O1          1.6491   -2.7986    1.8288 O.3       1 <0>        -0.4606
      8 C7          0.7716   -0.5682    1.2602 C.3       1 <0>        -0.0793
      9 C8         -0.4374   -4.2035    0.7331 C.3       1 <0>         0.0887
     10 H1          0.4907   -4.5906    1.1537 H         1 <0>         0.0815
     11 C9         -1.5924   -4.6395    1.5914 C.ar      1 <0>        -0.0893
     12 C10        -1.4726   -4.6245    2.9681 C.ar      1 <0>        -0.1189
     13 C11        -2.5354   -5.0275    3.7624 C.ar      1 <0>         0.1133
     14 C12        -3.7203   -5.4455    3.1739 C.ar      1 <0>        -0.1777
     15 C13        -3.8405   -5.4596    1.7991 C.ar      1 <0>        -0.0890
     16 C14        -2.7757   -5.0573    1.0027 C.ar      1 <0>         0.0921
     17 O2         -2.8982   -5.0741   -0.3453 O.3       1 <0>        -0.2188
     18 C15        -1.8042   -5.1233   -1.1264 C.2       1 <0>         0.2217
     19 C16        -0.6047   -4.7264   -0.6724 C.2       1 <0>        -0.3181
     20 C17         0.5369   -4.7876   -1.4935 C.2       1 <0>         0.4109
     21 O3          1.6046   -4.4038   -1.0592 O.2       1 <0>        -0.4777
     22 C18         0.4601   -5.3195   -2.8985 C.3       1 <0>        -0.1600
     23 C19        -0.6897   -6.3288   -2.9841 C.3       1 <0>        -0.0543
     24 C20        -1.9661   -5.6358   -2.5385 C.3       1 <0>        -0.0782
     25 C21        -0.3988   -7.5188   -2.0675 C.3       1 <0>        -0.1532
     26 C22        -0.8437   -6.8117   -4.4277 C.3       1 <0>        -0.1408
     27 O4         -2.4163   -5.0134    5.1168 O.3       1 <0>        -0.3150
     28 C23        -3.5511   -5.4417    5.8723 C.3       1 <0>         0.0258
     29 O5         -2.3579   -2.5911   -0.3989 O.2       1 <0>        -0.4687
     30 C24         0.7559   -0.5120   -1.2402 C.3       1 <0>        -0.1518
     31 H2          1.1392    1.8560    0.0629 H         1 <0>         0.0631
     32 H3         -0.4051    1.9181   -0.8200 H         1 <0>         0.0640
     33 H4         -0.3983    1.8785    0.9595 H         1 <0>         0.0607
     34 H5         -1.9056   -0.0763    0.9115 H         1 <0>         0.0975
     35 H6          1.8212   -0.2752    1.2386 H         1 <0>         0.0992
     36 H7          0.3024   -0.1724    2.1609 H         1 <0>         0.1036
     37 H8         -0.5501   -4.2990    3.4258 H         1 <0>         0.1335
     38 H9         -4.5487   -5.7594    3.7917 H         1 <0>         0.1394
     39 H10        -4.7634   -5.7846    1.3417 H         1 <0>         0.1389
     40 H11         0.2768   -4.4976   -3.5906 H         1 <0>         0.1013
     41 H12         1.3982   -5.8121   -3.1541 H         1 <0>         0.0989
     42 H13        -2.7914   -6.3468   -2.5740 H         1 <0>         0.0986
     43 H14        -2.1786   -4.8003   -3.2055 H         1 <0>         0.1056
     44 H15        -0.2994   -7.1699   -1.0396 H         1 <0>         0.0572
     45 H16        -1.2182   -8.2348   -2.1305 H         1 <0>         0.0641
     46 H17         0.5285   -7.9994   -2.3793 H         1 <0>         0.0650
     47 H18         0.0812   -7.2886   -4.7520 H         1 <0>         0.0655
     48 H19        -1.6621   -7.5293   -4.4854 H         1 <0>         0.0639
     49 H20        -1.0600   -5.9612   -5.0742 H         1 <0>         0.0620
     50 H21        -3.3228   -5.3817    6.9364 H         1 <0>         0.1022
     51 H22        -4.4017   -4.7986    5.6464 H         1 <0>         0.0565
     52 H23        -3.7945   -6.4714    5.6103 H         1 <0>         0.0568
     53 H24        -1.8985   -0.1403   -0.8688 H         1 <0>         0.0946
     54 H25         1.7934   -0.1779   -1.2419 H         1 <0>         0.0623
     55 H26         0.7249   -1.6014   -1.2626 H         1 <0>         0.0611
     56 H27         0.2452   -0.1159   -2.1180 H         1 <0>         0.0607
     57 H28         1.5467   -3.7533    1.7135 H         1 <0>         0.4038
@<TRIPOS>BOND
     1    1    2 1
     2    1   31 1
     3    1   32 1
     4    1   33 1
     5    2    8 1
     6    2   30 1
     7    2    3 1
     8    3    4 1
     9    3   34 1
    10    3   53 1
    11    4    5 1
    12    4   29 2
    13    5    9 1
    14    5    6 2
    15    6    7 1
    16    6    8 1
    17    7   57 1
    18    8   35 1
    19    8   36 1
    20    9   10 1
    21    9   19 1
    22    9   11 1
    23   11   16 ar
    24   11   12 ar
    25   12   13 ar
    26   12   37 1
    27   13   14 ar
    28   13   27 1
    29   14   15 ar
    30   14   38 1
    31   15   16 ar
    32   15   39 1
    33   16   17 1
    34   17   18 1
    35   18   24 1
    36   18   19 2
    37   19   20 1
    38   20   21 2
    39   20   22 1
    40   22   23 1
    41   22   40 1
    42   22   41 1
    43   23   24 1
    44   23   25 1
    45   23   26 1
    46   24   42 1
    47   24   43 1
    48   25   44 1
    49   25   45 1
    50   25   46 1
    51   26   47 1
    52   26   48 1
    53   26   49 1
    54   27   28 1
    55   28   50 1
    56   28   51 1
    57   28   52 1
    58   30   54 1
    59   30   55 1
    60   30   56 1
@<TRIPOS>MOLECULE
ZINC03995477
   53    56     0     0     0
SMALL
USER_CHARGES

@<TRIPOS>ATOM
      1 C1          2.8216    0.8610   -2.2666 C.3       1 <0>        -0.1412
      2 C2          2.3881   -0.5625   -1.9108 C.3       1 <0>        -0.0487
      3 C3          3.2883   -1.1064   -0.7980 C.3       1 <0>        -0.1625
      4 C4          2.8261   -2.4973   -0.4257 C.2       1 <0>         0.3674
      5 C5          1.3762   -2.6850   -0.0273 C.3       1 <0>        -0.1813
      6 C6          0.5274   -1.9525   -1.0466 C.2       1 <0>         0.3732
      7 O1         -0.4455   -2.4750   -1.5352 O.2       1 <0>        -0.4295
      8 C7          0.9330   -0.5482   -1.4342 C.3       1 <0>        -0.1628
      9 C8          1.0244   -4.1740   -0.0314 C.3       1 <0>         0.0449
     10 H1         -0.0528   -4.2904    0.0875 H         1 <0>         0.1050
     11 C9          1.4489   -4.7819   -1.3394 C.ar      1 <0>        -0.1497
     12 C10         0.6697   -4.6067   -2.4676 C.ar      1 <0>        -0.0913
     13 C11         1.0568   -5.1657   -3.6710 C.ar      1 <0>        -0.1436
     14 C12         2.2250   -5.9016   -3.7494 C.ar      1 <0>        -0.0858
     15 C13         3.0074   -6.0786   -2.6256 C.ar      1 <0>        -0.1388
     16 C14         2.6204   -5.5191   -1.4144 C.ar      1 <0>         0.1371
     17 O2          3.3871   -5.6949   -0.3139 O.3       1 <0>        -0.2169
     18 C15         2.8530   -5.5646    0.9142 C.2       1 <0>         0.2175
     19 C16         1.7299   -4.8569    1.1145 C.2       1 <0>        -0.3267
     20 C17         1.1727   -4.7310    2.4011 C.2       1 <0>         0.4072
     21 O3          0.1660   -4.0680    2.5522 O.2       1 <0>        -0.4735
     22 C18         1.8000   -5.4020    3.5924 C.3       1 <0>        -0.1604
     23 C19         2.5456   -6.6548    3.1198 C.3       1 <0>        -0.0545
     24 C20         3.5602   -6.2368    2.0678 C.3       1 <0>        -0.0784
     25 C21         3.2686   -7.3002    4.3036 C.3       1 <0>        -0.1407
     26 C22         1.5509   -7.6479    2.5156 C.3       1 <0>        -0.1541
     27 O4          3.5906   -3.4319   -0.4457 O.2       1 <0>        -0.4226
     28 C23         2.5105   -1.4561   -3.1467 C.3       1 <0>        -0.1552
     29 H2          2.7335    1.4983   -1.3867 H         1 <0>         0.0625
     30 H3          3.8574    0.8513   -2.6059 H         1 <0>         0.0639
     31 H4          2.1827    1.2476   -3.0606 H         1 <0>         0.0645
     32 H5          4.3191   -1.1467   -1.1499 H         1 <0>         0.0984
     33 H6          3.2255   -0.4544    0.0732 H         1 <0>         0.1039
     34 H7          0.8386    0.1102   -0.5706 H         1 <0>         0.1063
     35 H8          0.2894   -0.1915   -2.2384 H         1 <0>         0.1009
     36 H9         -0.2432   -4.0325   -2.4086 H         1 <0>         0.1553
     37 H10         0.4460   -5.0278   -4.5510 H         1 <0>         0.1270
     38 H11         2.5258   -6.3379   -4.6905 H         1 <0>         0.1323
     39 H12         3.9199   -6.6529   -2.6880 H         1 <0>         0.1332
     40 H13         2.5016   -4.7178    4.0695 H         1 <0>         0.1027
     41 H14         1.0234   -5.6855    4.3027 H         1 <0>         0.1002
     42 H15         4.0861   -7.1203    1.7058 H         1 <0>         0.0997
     43 H16         4.2769   -5.5434    2.5078 H         1 <0>         0.1060
     44 H17         2.5409   -7.5783    5.0660 H         1 <0>         0.0660
     45 H18         3.7978   -8.1907    3.9645 H         1 <0>         0.0641
     46 H19         3.9822   -6.5914    4.7238 H         1 <0>         0.0622
     47 H20         1.0460   -7.1859    1.6673 H         1 <0>         0.0575
     48 H21         2.0840   -8.5377    2.1804 H         1 <0>         0.0642
     49 H22         0.8141   -7.9279    3.2685 H         1 <0>         0.0656
     50 H23         3.5460   -1.4658   -3.4869 H         1 <0>         0.0651
     51 H24         2.2017   -2.4704   -2.8937 H         1 <0>         0.0553
     52 H25         1.8710   -1.0688   -3.9399 H         1 <0>         0.0663
     53 H26         1.2077   -2.2675    0.9654 H         1 <0>         0.1429
@<TRIPOS>BOND
     1    1    2 1
     2    1   29 1
     3    1   30 1
     4    1   31 1
     5    2    8 1
     6    2    3 1
     7    2   28 1
     8    3   32 1
     9    3   33 1
    10    3    4 1
    11    4    5 1
    12    4   27 2
    13    5    9 1
    14    5   53 1
    15    5    6 1
    16    6    8 1
    17    6    7 2
    18    8   34 1
    19    8   35 1
    20    9   10 1
    21    9   19 1
    22    9   11 1
    23   11   16 ar
    24   11   12 ar
    25   12   13 ar
    26   12   36 1
    27   13   14 ar
    28   13   37 1
    29   14   15 ar
    30   14   38 1
    31   15   16 ar
    32   15   39 1
    33   16   17 1
    34   17   18 1
    35   18   24 1
    36   18   19 2
    37   19   20 1
    38   20   21 2
    39   20   22 1
    40   22   23 1
    41   22   40 1
    42   22   41 1
    43   23   24 1
    44   23   25 1
    45   23   26 1
    46   24   42 1
    47   24   43 1
    48   25   44 1
    49   25   45 1
    50   25   46 1
    51   26   47 1
    52   26   48 1
    53   26   49 1
    54   28   50 1
    55   28   51 1
    56   28   52 1
@<TRIPOS>MOLECULE
ZINC03995477
   52    55     0     0     0
SMALL
USER_CHARGES

@<TRIPOS>ATOM
      1 C1         -0.0187    1.5258    0.0104 C.3       1 <0>        -0.1381
      2 C2          0.0021   -0.0041    0.0020 C.3       1 <0>        -0.0487
      3 C3          0.7319   -0.5004   -1.2497 C.3       1 <0>        -0.1442
      4 C4          0.8135   -2.0039   -1.2145 C.2       1 <0>         0.3811
      5 C5          0.8554   -2.6809   -0.0162 C.2       1 <0>        -0.5269
      6 C6          0.8227   -2.0170    1.1898 C.2       1 <0>         0.3908
      7 O1          0.8598   -2.6561    2.2319 O.3       1 <0>        -0.5842
      8 C7          0.7424   -0.5139    1.2420 C.3       1 <0>        -0.1456
      9 C8          0.9385   -4.1856   -0.0247 C.3       1 <0>         0.1222
     10 H1          0.9625   -4.5513    1.0019 H         1 <0>         0.0794
     11 C9         -0.2682   -4.7465   -0.7244 C.ar      1 <0>        -0.0895
     12 C10        -1.4766   -4.8288   -0.0584 C.ar      1 <0>        -0.0873
     13 C11        -2.5873   -5.3455   -0.6987 C.ar      1 <0>        -0.1527
     14 C12        -2.4924   -5.7813   -2.0078 C.ar      1 <0>        -0.1131
     15 C13        -1.2876   -5.7011   -2.6775 C.ar      1 <0>        -0.1485
     16 C14        -0.1695   -5.1826   -2.0365 C.ar      1 <0>         0.1335
     17 O2          1.0104   -5.1055   -2.6938 O.3       1 <0>        -0.2255
     18 C15         2.1665   -5.0382   -2.0088 C.2       1 <0>         0.1599
     19 C16         2.1991   -4.6120   -0.7362 C.2       1 <0>        -0.2647
     20 C17         3.4115   -4.5511   -0.0234 C.2       1 <0>         0.3962
     21 O3          3.4102   -4.1429    1.1208 O.2       1 <0>        -0.4522
     22 C18         4.7086   -4.9823   -0.6515 C.3       1 <0>        -0.1592
     23 C19         4.4144   -6.0431   -1.7176 C.3       1 <0>        -0.0547
     24 C20         3.4341   -5.4534   -2.7186 C.3       1 <0>        -0.0654
     25 C21         5.7113   -6.4268   -2.4330 C.3       1 <0>        -0.1367
     26 C22         3.8010   -7.2795   -1.0574 C.3       1 <0>        -0.1492
     27 O4          0.8426   -2.6315   -2.2638 O.2       1 <0>        -0.5835
     28 C23        -1.4324   -0.5361    0.0067 C.3       1 <0>        -0.1384
     29 H2          1.0039    1.9031    0.0027 H         1 <0>         0.0491
     30 H3         -0.5459    1.8868   -0.8726 H         1 <0>         0.0489
     31 H4         -0.5289    1.8773    0.9072 H         1 <0>         0.0495
     32 H5          0.1847   -0.1863   -2.1385 H         1 <0>         0.0607
     33 H6          1.7378   -0.0812   -1.2746 H         1 <0>         0.0640
     34 H7          1.7487   -0.0956    1.2627 H         1 <0>         0.0664
     35 H8          0.2027   -0.2096    2.1388 H         1 <0>         0.0624
     36 H9         -1.5530   -4.4893    0.9640 H         1 <0>         0.1207
     37 H10        -3.5303   -5.4092   -0.1761 H         1 <0>         0.1140
     38 H11        -3.3611   -6.1849   -2.5065 H         1 <0>         0.1182
     39 H12        -1.2145   -6.0417   -3.6997 H         1 <0>         0.1197
     40 H13         5.1932   -4.1231   -1.1153 H         1 <0>         0.0929
     41 H14         5.3619   -5.4038    0.1125 H         1 <0>         0.0881
     42 H15         3.1981   -6.2031   -3.4738 H         1 <0>         0.0849
     43 H16         3.8825   -4.5838   -3.1990 H         1 <0>         0.0921
     44 H17         6.4205   -6.8283   -1.7092 H         1 <0>         0.0598
     45 H18         5.4989   -7.1812   -3.1905 H         1 <0>         0.0587
     46 H19         6.1385   -5.5442   -2.9091 H         1 <0>         0.0583
     47 H20         2.8730   -7.0018   -0.5575 H         1 <0>         0.0619
     48 H21         3.5929   -8.0320   -1.8180 H         1 <0>         0.0583
     49 H22         4.5001   -7.6855   -0.3262 H         1 <0>         0.0584
     50 H23        -1.9565   -0.1758   -0.8785 H         1 <0>         0.0431
     51 H24        -1.4158   -1.6259    0.0007 H         1 <0>         0.0711
     52 H25        -1.9470   -0.1855    0.9014 H         1 <0>         0.0438
@<TRIPOS>BOND
     1    1    2 1
     2    1   29 1
     3    1   30 1
     4    1   31 1
     5    2    8 1
     6    2    3 1
     7    2   28 1
     8    3   32 1
     9    3   33 1
    10    3    4 1
    11    4    5 1
    12    4   27 2
    13    5    9 1
    14    5    6 2
    15    6    8 1
    16    6    7 1
    17    8   34 1
    18    8   35 1
    19    9   10 1
    20    9   19 1
    21    9   11 1
    22   11   16 ar
    23   11   12 ar
    24   12   13 ar
    25   12   36 1
    26   13   14 ar
    27   13   37 1
    28   14   15 ar
    29   14   38 1
    30   15   16 ar
    31   15   39 1
    32   16   17 1
    33   17   18 1
    34   18   24 1
    35   18   19 2
    36   19   20 1
    37   20   21 2
    38   20   22 1
    39   22   23 1
    40   22   40 1
    41   22   41 1
    42   23   24 1
    43   23   25 1
    44   23   26 1
    45   24   42 1
    46   24   43 1
    47   25   44 1
    48   25   45 1
    49   25   46 1
    50   26   47 1
    51   26   48 1
    52   26   49 1
    53   28   50 1
    54   28   51 1
    55   28   52 1
@<TRIPOS>MOLECULE
ZINC03995477
   53    56     0     0     0
SMALL
USER_CHARGES

@<TRIPOS>ATOM
      1 C1         -0.0086    1.5341    0.0570 C.3       1 <0>        -0.1519
      2 C2          0.0040    0.0042    0.0635 C.3       1 <0>        -0.0532
      3 C3          0.6777   -0.5091   -1.2131 C.3       1 <0>        -0.1598
      4 C4          2.1149   -0.0557   -1.2272 C.2       1 <0>         0.4098
      5 C5          2.8068    0.1579   -0.0262 C.2       1 <0>        -0.3408
      6 C6          2.2227   -0.0351    1.1701 C.2       1 <0>         0.2217
      7 O1          2.9293    0.1892    2.2942 O.3       1 <0>        -0.4615
      8 C7          0.7940   -0.4972    1.2756 C.3       1 <0>        -0.0789
      9 C8          4.2419    0.6150   -0.0771 C.3       1 <0>         0.0879
     10 H1          4.5904    0.8226    0.9346 H         1 <0>         0.0794
     11 C9          5.0885   -0.4703   -0.6820 C.ar      1 <0>        -0.1313
     12 C10         5.4733   -1.5541    0.0848 C.ar      1 <0>        -0.0857
     13 C11         6.2529   -2.5526   -0.4683 C.ar      1 <0>        -0.1373
     14 C12         6.6490   -2.4702   -1.7907 C.ar      1 <0>        -0.0891
     15 C13         6.2673   -1.3897   -2.5608 C.ar      1 <0>        -0.1317
     16 C14         5.4847   -0.3840   -2.0075 C.ar      1 <0>         0.1287
     17 O2          5.1122    0.6744   -2.7631 O.3       1 <0>        -0.2209
     18 C15         4.7560    1.8336   -2.1801 C.2       1 <0>         0.2194
     19 C16         4.3361    1.8728   -0.9056 C.2       1 <0>        -0.3151
     20 C17         3.9719    3.0903   -0.2999 C.2       1 <0>         0.4105
     21 O3          3.5781    3.0898    0.8493 O.2       1 <0>        -0.4771
     22 C18         4.0617    4.3920   -1.0486 C.3       1 <0>        -0.1602
     23 C19         5.1617    4.2786   -2.1095 C.3       1 <0>        -0.0542
     24 C20         4.8376    3.0954   -3.0072 C.3       1 <0>        -0.0783
     25 C21         5.2055    5.5602   -2.9440 C.3       1 <0>        -0.1408
     26 C22         6.5133    4.0574   -1.4274 C.3       1 <0>        -0.1531
     27 O4          2.6788    0.1259   -2.2878 O.2       1 <0>        -0.4691
     28 C23        -1.4317   -0.5200    0.1349 C.3       1 <0>        -0.1414
     29 H2          1.0146    1.9056    0.0015 H         1 <0>         0.0608
     30 H3         -0.5714    1.8891   -0.8064 H         1 <0>         0.0608
     31 H4         -0.4781    1.8975    0.9711 H         1 <0>         0.0623
     32 H5          0.6388   -1.5982   -1.2333 H         1 <0>         0.0976
     33 H6          0.3500   -0.1000    2.1883 H         1 <0>         0.0990
     34 H7          0.7659   -1.5865    1.3022 H         1 <0>         0.1032
     35 H8          5.1647   -1.6207    1.1176 H         1 <0>         0.1243
     36 H9          6.5527   -3.3982    0.1329 H         1 <0>         0.1285
     37 H10         7.2578   -3.2515   -2.2213 H         1 <0>         0.1339
     38 H11         6.5771   -1.3263   -3.5935 H         1 <0>         0.1348
     39 H12         3.1078    4.6014   -1.5326 H         1 <0>         0.1014
     40 H13         4.3053    5.1963   -0.3545 H         1 <0>         0.0990
     41 H14         5.6221    2.9881   -3.7563 H         1 <0>         0.0987
     42 H15         3.8827    3.2658   -3.5043 H         1 <0>         0.1057
     43 H16         5.4157    6.4098   -2.2943 H         1 <0>         0.0656
     44 H17         5.9887    5.4766   -3.6975 H         1 <0>         0.0641
     45 H18         4.2434    5.7074   -3.4347 H         1 <0>         0.0621
     46 H19         6.4789    3.1384   -0.8423 H         1 <0>         0.0568
     47 H20         7.2935    3.9772   -2.1844 H         1 <0>         0.0643
     48 H21         6.7304    4.8990   -0.7697 H         1 <0>         0.0652
     49 H22         0.1604   -0.1083   -2.0848 H         1 <0>         0.0945
     50 H23        -1.9912   -0.1659   -0.7309 H         1 <0>         0.0641
     51 H24        -1.4208   -1.6099    0.1395 H         1 <0>         0.0608
     52 H25        -1.9059   -0.1576    1.0470 H         1 <0>         0.0632
     53 H26         3.8086    0.5603    2.1387 H         1 <0>         0.4035
@<TRIPOS>BOND
     1    1    2 1
     2    1   29 1
     3    1   30 1
     4    1   31 1
     5    2    8 1
     6    2   28 1
     7    2    3 1
     8    3    4 1
     9    3   32 1
    10    3   49 1
    11    4    5 1
    12    4   27 2
    13    5    9 1
    14    5    6 2
    15    6    7 1
    16    6    8 1
    17    7   53 1
    18    8   33 1
    19    8   34 1
    20    9   10 1
    21    9   19 1
    22    9   11 1
    23   11   16 ar
    24   11   12 ar
    25   12   13 ar
    26   12   35 1
    27   13   14 ar
    28   13   36 1
    29   14   15 ar
    30   14   37 1
    31   15   16 ar
    32   15   38 1
    33   16   17 1
    34   17   18 1
    35   18   24 1
    36   18   19 2
    37   19   20 1
    38   20   21 2
    39   20   22 1
    40   22   23 1
    41   22   39 1
    42   22   40 1
    43   23   24 1
    44   23   25 1
    45   23   26 1
    46   24   41 1
    47   24   42 1
    48   25   43 1
    49   25   44 1
    50   25   45 1
    51   26   46 1
    52   26   47 1
    53   26   48 1
    54   28   50 1
    55   28   51 1
    56   28   52 1
@<TRIPOS>MOLECULE
ZINC00970406
   53    56     0     0     0
SMALL
USER_CHARGES

@<TRIPOS>ATOM
      1 C1         -1.3030    1.5941   -0.3166 C.3       1 <0>        -0.1542
      2 C2         -1.4695    0.0742   -0.3728 C.3       1 <0>        -0.0503
      3 C3         -2.7586   -0.3244    0.3510 C.3       1 <0>        -0.1877
      4 C4         -2.6569    0.0880    1.8023 C.2       1 <0>         0.3860
      5 C5         -1.4669   -0.4023    2.6021 C.3       1 <0>        -0.1681
      6 C6         -0.2290   -0.1764    1.7578 C.2       1 <0>         0.3648
      7 O1          0.7629    0.3236    2.2314 O.2       1 <0>        -0.3649
      8 C7         -0.2711   -0.5953    0.3054 C.3       1 <0>        -0.1611
      9 C8         -1.6237   -1.8935    2.9064 C.3       1 <0>         0.0450
     10 H1         -1.2280   -2.4751    2.0737 H         1 <0>         0.1003
     11 C9         -3.0815   -2.2135    3.0882 C.ar      1 <0>        -0.1442
     12 C10        -4.0239   -1.6369    2.2575 C.ar      1 <0>        -0.1544
     13 C11        -5.3649   -1.9281    2.4234 C.ar      1 <0>        -0.1180
     14 C12        -5.7671   -2.7974    3.4209 C.ar      1 <0>        -0.0868
     15 C13        -4.8296   -3.3764    4.2529 C.ar      1 <0>        -0.1223
     16 C14        -3.4812   -3.0853    4.0890 C.ar      1 <0>         0.1078
     17 O2         -2.5640   -3.6521    4.9061 O.3       1 <0>        -0.2368
     18 C15        -1.3569   -3.0813    5.0719 C.2       1 <0>         0.1841
     19 C16        -0.8553   -2.2307    4.1606 C.2       1 <0>        -0.3028
     20 C17         0.4033   -1.6277    4.3451 C.2       1 <0>         0.3640
     21 O3          0.8370   -0.8804    3.4912 O.2       1 <0>        -0.4190
     22 C18         1.2217   -1.8916    5.5794 C.3       1 <0>        -0.1571
     23 C19         0.2769   -2.2316    6.7371 C.3       1 <0>        -0.0562
     24 C20        -0.5768   -3.4266    6.3190 C.3       1 <0>        -0.0747
     25 C21        -0.6194   -1.0291    7.0397 C.3       1 <0>        -0.1526
     26 C22         1.0943   -2.5947    7.9784 C.3       1 <0>        -0.1407
     27 O4         -3.5002    0.7879    2.3096 O.2       1 <0>        -0.4493
     28 C23        -1.5458   -0.3763   -1.8329 C.3       1 <0>        -0.1420
     29 H2         -0.3868    1.8786   -0.8341 H         1 <0>         0.0692
     30 H3         -2.1559    2.0711   -0.7993 H         1 <0>         0.0673
     31 H4         -1.2475    1.9154    0.7235 H         1 <0>         0.0513
     32 H5         -3.6074    0.1785   -0.1124 H         1 <0>         0.1072
     33 H6         -2.8945   -1.4039    0.2859 H         1 <0>         0.1127
     34 H7         -0.3740   -1.6785    0.2411 H         1 <0>         0.0980
     35 H8          0.6487   -0.2850   -0.1904 H         1 <0>         0.0996
     36 H9         -3.7121   -0.9576    1.4780 H         1 <0>         0.1836
     37 H10        -6.0994   -1.4759    1.7734 H         1 <0>         0.1323
     38 H11        -6.8154   -3.0233    3.5495 H         1 <0>         0.1381
     39 H12        -5.1446   -4.0554    5.0314 H         1 <0>         0.1390
     40 H13         1.8946   -2.7299    5.3990 H         1 <0>         0.1019
     41 H14         1.8013   -1.0031    5.8301 H         1 <0>         0.0994
     42 H15        -1.2696   -3.6685    7.1250 H         1 <0>         0.1000
     43 H16         0.0626   -4.2868    6.1204 H         1 <0>         0.1077
     44 H17        -1.2058   -0.7812    6.1550 H         1 <0>         0.0550
     45 H18        -1.2901   -1.2740    7.8633 H         1 <0>         0.0636
     46 H19        -0.0007   -0.1754    7.3165 H         1 <0>         0.0660
     47 H20         1.7220   -1.7493    8.2601 H         1 <0>         0.0660
     48 H21         0.4197   -2.8360    8.7999 H         1 <0>         0.0633
     49 H22         1.7235   -3.4574    7.7596 H         1 <0>         0.0624
     50 H23        -0.6290   -0.0917   -2.3493 H         1 <0>         0.0659
     51 H24        -1.6644   -1.4590   -1.8734 H         1 <0>         0.0623
     52 H25        -2.3982    0.1010   -2.3164 H         1 <0>         0.0645
     53 H26        -1.3893    0.1594    3.5330 H         1 <0>         0.1148
@<TRIPOS>BOND
     1    1    2 1
     2    1   29 1
     3    1   30 1
     4    1   31 1
     5    2    8 1
     6    2    3 1
     7    2   28 1
     8    3   32 1
     9    3   33 1
    10    3    4 1
    11    4    5 1
    12    4   27 2
    13    5    9 1
    14    5   53 1
    15    5    6 1
    16    6    8 1
    17    6    7 2
    18    8   34 1
    19    8   35 1
    20    9   10 1
    21    9   19 1
    22    9   11 1
    23   11   16 ar
    24   11   12 ar
    25   12   13 ar
    26   12   36 1
    27   13   14 ar
    28   13   37 1
    29   14   15 ar
    30   14   38 1
    31   15   16 ar
    32   15   39 1
    33   16   17 1
    34   17   18 1
    35   18   24 1
    36   18   19 2
    37   19   20 1
    38   20   21 2
    39   20   22 1
    40   22   23 1
    41   22   40 1
    42   22   41 1
    43   23   24 1
    44   23   25 1
    45   23   26 1
    46   24   42 1
    47   24   43 1
    48   25   44 1
    49   25   45 1
    50   25   46 1
    51   26   47 1
    52   26   48 1
    53   26   49 1
    54   28   50 1
    55   28   51 1
    56   28   52 1
@<TRIPOS>MOLECULE
ZINC00970406
   52    55     0     0     0
SMALL
USER_CHARGES

@<TRIPOS>ATOM
      1 C1         -0.0187    1.5258    0.0104 C.3       1 <0>        -0.1382
      2 C2          0.0021   -0.0041    0.0020 C.3       1 <0>        -0.0482
      3 C3         -1.4336   -0.5368    0.0282 C.3       1 <0>        -0.1449
      4 C4         -2.1014   -0.1040    1.3070 C.2       1 <0>         0.3820
      5 C5         -1.3665    0.0995    2.4536 C.2       1 <0>        -0.5267
      6 C6         -0.0016   -0.0810    2.4780 C.2       1 <0>         0.3901
      7 O1          0.6144    0.1123    3.5167 O.3       1 <0>        -0.5843
      8 C7          0.7424   -0.5139    1.2420 C.3       1 <0>        -0.1459
      9 C8         -2.0734    0.5308    3.7127 C.3       1 <0>         0.1216
     10 H1         -1.3440    0.6435    4.5149 H         1 <0>         0.0796
     11 C9         -3.0809   -0.5155    4.1004 C.ar      1 <0>        -0.0903
     12 C10        -2.6670   -1.6705    4.7375 C.ar      1 <0>        -0.0873
     13 C11        -3.5913   -2.6343    5.0948 C.ar      1 <0>        -0.1529
     14 C12        -4.9325   -2.4455    4.8155 C.ar      1 <0>        -0.1135
     15 C13        -5.3512   -1.2933    4.1803 C.ar      1 <0>        -0.1484
     16 C14        -4.4248   -0.3227    3.8205 C.ar      1 <0>         0.1327
     17 O2         -4.8363    0.8066    3.1997 O.3       1 <0>        -0.2250
     18 C15        -4.0791    1.9180    3.2406 C.2       1 <0>         0.1575
     19 C16        -2.7587    1.8532    3.4721 C.2       1 <0>        -0.2623
     20 C17        -1.9702    3.0189    3.4949 C.2       1 <0>         0.3956
     21 O3         -0.7792    2.9281    3.7167 O.2       1 <0>        -0.4506
     22 C18        -2.5734    4.3749    3.2506 C.3       1 <0>        -0.1599
     23 C19        -3.8041    4.2161    2.3513 C.3       1 <0>        -0.0525
     24 C20        -4.7627    3.2476    3.0236 C.3       1 <0>        -0.0655
     25 C21        -3.3780    3.6642    0.9894 C.3       1 <0>        -0.1507
     26 C22        -4.4873    5.5730    2.1703 C.3       1 <0>        -0.1368
     27 O4         -3.3119    0.0694    1.3271 O.2       1 <0>        -0.5803
     28 C23         0.7125   -0.5000   -1.2590 C.3       1 <0>        -0.1380
     29 H2          1.0039    1.9031    0.0027 H         1 <0>         0.0433
     30 H3         -0.5459    1.8868   -0.8726 H         1 <0>         0.0418
     31 H4         -0.5289    1.8773    0.9072 H         1 <0>         0.0720
     32 H5         -1.9852   -0.1383   -0.8233 H         1 <0>         0.0603
     33 H6         -1.4189   -1.6254   -0.0249 H         1 <0>         0.0643
     34 H7          0.7967   -1.6021    1.2116 H         1 <0>         0.0660
     35 H8          1.7502   -0.0991    1.2603 H         1 <0>         0.0623
     36 H9         -1.6200   -1.8201    4.9561 H         1 <0>         0.1209
     37 H10        -3.2656   -3.5358    5.5923 H         1 <0>         0.1139
     38 H11        -5.6530   -3.2002    5.0941 H         1 <0>         0.1182
     39 H12        -6.3989   -1.1470    3.9626 H         1 <0>         0.1198
     40 H13        -2.8705    4.8188    4.2008 H         1 <0>         0.0907
     41 H14        -1.8422    5.0164    2.7588 H         1 <0>         0.0882
     42 H15        -5.6343    3.1072    2.3842 H         1 <0>         0.0870
     43 H16        -5.0800    3.6533    3.9843 H         1 <0>         0.0882
     44 H17        -2.9006    2.6936    1.1239 H         1 <0>         0.0796
     45 H18        -4.2553    3.5524    0.3521 H         1 <0>         0.0549
     46 H19        -2.6748    4.3534    0.5219 H         1 <0>         0.0513
     47 H20        -3.7899    6.2723    1.7090 H         1 <0>         0.0591
     48 H21        -5.3620    5.4569    1.5304 H         1 <0>         0.0583
     49 H22        -4.7967    5.9566    3.1425 H         1 <0>         0.0560
     50 H23         1.7353   -0.1236   -1.2717 H         1 <0>         0.0493
     51 H24         0.7263   -1.5899   -1.2634 H         1 <0>         0.0491
     52 H25         0.1818   -0.1399   -2.1404 H         1 <0>         0.0487
@<TRIPOS>BOND
     1    1    2 1
     2    1   29 1
     3    1   30 1
     4    1   31 1
     5    2    8 1
     6    2    3 1
     7    2   28 1
     8    3   32 1
     9    3   33 1
    10    3    4 1
    11    4    5 1
    12    4   27 2
    13    5    9 1
    14    5    6 2
    15    6    8 1
    16    6    7 1
    17    8   34 1
    18    8   35 1
    19    9   10 1
    20    9   19 1
    21    9   11 1
    22   11   16 ar
    23   11   12 ar
    24   12   13 ar
    25   12   36 1
    26   13   14 ar
    27   13   37 1
    28   14   15 ar
    29   14   38 1
    30   15   16 ar
    31   15   39 1
    32   16   17 1
    33   17   18 1
    34   18   24 1
    35   18   19 2
    36   19   20 1
    37   20   21 2
    38   20   22 1
    39   22   23 1
    40   22   40 1
    41   22   41 1
    42   23   24 1
    43   23   25 1
    44   23   26 1
    45   24   42 1
    46   24   43 1
    47   25   44 1
    48   25   45 1
    49   25   46 1
    50   26   47 1
    51   26   48 1
    52   26   49 1
    53   28   50 1
    54   28   51 1
    55   28   52 1
@<TRIPOS>MOLECULE
ZINC00970406
   53    56     0     0     0
SMALL
USER_CHARGES

@<TRIPOS>ATOM
      1 C1         -0.1602    1.5119   -0.0919 C.3       1 <0>        -0.1418
      2 C2         -0.0684   -0.0147   -0.0477 C.3       1 <0>        -0.0532
      3 C3         -1.4776   -0.6120    0.0182 C.3       1 <0>        -0.1601
      4 C4         -1.3716   -2.1096    0.1486 C.2       1 <0>         0.4088
      5 C5         -0.2593   -2.6939    0.7719 C.2       1 <0>        -0.3454
      6 C6          0.7411   -1.9489    1.2756 C.2       1 <0>         0.2242
      7 O1          1.7897   -2.5591    1.8599 O.3       1 <0>        -0.4569
      8 C7          0.7103   -0.4460    1.1982 C.3       1 <0>        -0.0792
      9 C8         -0.1833   -4.1950    0.8808 C.3       1 <0>         0.0875
     10 H1          0.7749   -4.4766    1.3173 H         1 <0>         0.0792
     11 C9         -0.3016   -4.7995   -0.4907 C.ar      1 <0>        -0.1282
     12 C10         0.7921   -4.8130   -1.3361 C.ar      1 <0>        -0.0862
     13 C11         0.6860   -5.3678   -2.5978 C.ar      1 <0>        -0.1382
     14 C12        -0.5148   -5.9105   -3.0174 C.ar      1 <0>        -0.0892
     15 C13        -1.6098   -5.9005   -2.1765 C.ar      1 <0>        -0.1321
     16 C14        -1.5061   -5.3441   -0.9078 C.ar      1 <0>         0.1364
     17 O2         -2.5792   -5.3362   -0.0840 O.3       1 <0>        -0.2202
     18 C15        -2.4123   -5.2284    1.2467 C.2       1 <0>         0.2085
     19 C16        -1.2998   -4.6881    1.7678 C.2       1 <0>        -0.3137
     20 C17        -1.1408   -4.5618    3.1606 C.2       1 <0>         0.4093
     21 O3         -0.1179   -4.0772    3.6018 O.2       1 <0>        -0.4748
     22 C18        -2.2124   -5.0157    4.1134 C.3       1 <0>        -0.1605
     23 C19        -3.5728   -4.9148    3.4152 C.3       1 <0>        -0.0535
     24 C20        -3.5162   -5.7413    2.1414 C.3       1 <0>        -0.0787
     25 C21        -3.8683   -3.4530    3.0734 C.3       1 <0>        -0.1511
     26 C22        -4.6652   -5.4631    4.3356 C.3       1 <0>        -0.1409
     27 O4         -2.2566   -2.8166   -0.2902 O.2       1 <0>        -0.4659
     28 C23         0.6481   -0.5217   -1.3010 C.3       1 <0>        -0.1516
     29 H2          0.8436    1.9354   -0.1273 H         1 <0>         0.0630
     30 H3         -0.7147    1.8170   -0.9794 H         1 <0>         0.0642
     31 H4         -0.6748    1.8709    0.7993 H         1 <0>         0.0607
     32 H5         -2.0051   -0.2073    0.8819 H         1 <0>         0.0964
     33 H6          1.7297   -0.0644    1.1397 H         1 <0>         0.0984
     34 H7          0.2233   -0.0460    2.0875 H         1 <0>         0.1030
     35 H8          1.7306   -4.3892   -1.0106 H         1 <0>         0.1231
     36 H9          1.5417   -5.3772   -3.2567 H         1 <0>         0.1276
     37 H10        -0.5962   -6.3423   -4.0040 H         1 <0>         0.1330
     38 H11        -2.5471   -6.3245   -2.5053 H         1 <0>         0.1339
     39 H12        -2.0276   -6.0496    4.4050 H         1 <0>         0.1022
     40 H13        -2.2079   -4.3789    4.9980 H         1 <0>         0.0988
     41 H14        -4.4711   -5.6611    1.6218 H         1 <0>         0.1005
     42 H15        -3.3259   -6.7854    2.3901 H         1 <0>         0.1056
     43 H16        -3.0921   -3.0709    2.4104 H         1 <0>         0.0601
     44 H17        -4.8363   -3.3844    2.5771 H         1 <0>         0.0634
     45 H18        -3.8869   -2.8623    3.9893 H         1 <0>         0.0614
     46 H19        -4.6880   -4.8830    5.2581 H         1 <0>         0.0651
     47 H20        -5.6314   -5.3900    3.8364 H         1 <0>         0.0640
     48 H21        -4.4543   -6.5070    4.5679 H         1 <0>         0.0616
     49 H22        -2.0221   -0.3630   -0.8927 H         1 <0>         0.0944
     50 H23         1.6521   -0.0992   -1.3415 H         1 <0>         0.0622
     51 H24         0.7125   -1.6092   -1.2677 H         1 <0>         0.0596
     52 H25         0.0900   -0.2176   -2.1865 H         1 <0>         0.0622
     53 H26         1.7700   -3.5237    1.7944 H         1 <0>         0.4029
@<TRIPOS>BOND
     1    1    2 1
     2    1   29 1
     3    1   30 1
     4    1   31 1
     5    2    8 1
     6    2   28 1
     7    2    3 1
     8    3    4 1
     9    3   32 1
    10    3   49 1
    11    4    5 1
    12    4   27 2
    13    5    9 1
    14    5    6 2
    15    6    7 1
    16    6    8 1
    17    7   53 1
    18    8   33 1
    19    8   34 1
    20    9   10 1
    21    9   19 1
    22    9   11 1
    23   11   16 ar
    24   11   12 ar
    25   12   13 ar
    26   12   35 1
    27   13   14 ar
    28   13   36 1
    29   14   15 ar
    30   14   37 1
    31   15   16 ar
    32   15   38 1
    33   16   17 1
    34   17   18 1
    35   18   24 1
    36   18   19 2
    37   19   20 1
    38   20   21 2
    39   20   22 1
    40   22   23 1
    41   22   39 1
    42   22   40 1
    43   23   24 1
    44   23   25 1
    45   23   26 1
    46   24   41 1
    47   24   42 1
    48   25   43 1
    49   25   44 1
    50   25   45 1
    51   26   46 1
    52   26   47 1
    53   26   48 1
    54   28   50 1
    55   28   51 1
    56   28   52 1
@<TRIPOS>MOLECULE
ZINC34229645
   44    48     0     0     0
SMALL
USER_CHARGES

@<TRIPOS>ATOM
      1 C1         -0.0166    1.3756    0.0096 C.ar      1 <0>        -0.1218
      2 C2          1.1685    2.0902    0.0021 C.ar      1 <0>        -0.0767
      3 C3          2.3836    1.4259   -0.0140 C.ar      1 <0>        -0.0934
      4 C4          2.4142    0.0512   -0.0221 C.ar      1 <0>        -0.0923
      5 C5          1.2225   -0.6800   -0.0135 C.ar      1 <0>        -0.1934
      6 C6          0.0021   -0.0041    0.0020 C.ar      1 <0>        -0.0332
      7 C7          1.5769   -2.1112   -0.0239 C.2       1 <0>         0.5215
      8 O1          0.7786   -3.0268   -0.0210 O.2       1 <0>        -0.4432
      9 O2          2.9131   -2.2535   -0.0376 O.3       1 <0>        -0.3037
     10 C8          3.5277   -0.9636   -0.0402 C.3       1 <0>         0.1510
     11 C9          4.4045   -0.7992    1.2018 C.3       1 <0>        -0.1314
     12 C10         5.5009   -1.8692    1.1942 C.3       1 <0>         0.1388
     13 N1          6.2287   -1.7918   -0.0797 N.pl3     1 <0>        -0.5937
     14 C11         5.4668   -1.8598   -1.3342 C.3       1 <0>         0.1270
     15 C12         4.3712   -0.7893   -1.3039 C.3       1 <0>        -0.1306
     16 C13         7.6010   -1.6574   -0.0977 C.2       1 <0>         0.5601
     17 N2          8.3648   -1.5936    0.9643 N.2       1 <0>        -0.5393
     18 C14         9.6634   -1.4633    0.5854 C.ar      1 <0>         0.0845
     19 C15        10.8632   -1.3530    1.2926 C.ar      1 <0>        -0.0263
     20 C16        12.0515   -1.2299    0.6081 C.ar      1 <0>        -0.1812
     21 C17        12.0667   -1.2146   -0.7787 C.ar      1 <0>        -0.0757
     22 C18        10.8905   -1.3221   -1.4917 C.ar      1 <0>        -0.0987
     23 C19         9.6845   -1.4472   -0.8189 C.ar      1 <0>         0.0654
     24 N3          8.3666   -1.5770   -1.2255 N.pl3     1 <0>        -0.6220
     25 C20        13.3454   -1.1105    1.3716 C.3       1 <0>         0.5129
     26 F1         13.8743   -2.3862    1.5951 F         1 <0>        -0.1760
     27 F2         14.2564   -0.3514    0.6293 F         1 <0>        -0.1765
     28 F3         13.1064   -0.4831    2.5989 F         1 <0>        -0.1765
     29 H1         -0.9605    1.9002    0.0260 H         1 <0>         0.1399
     30 H2          1.1457    3.1700    0.0085 H         1 <0>         0.1395
     31 H3          3.3063    1.9871   -0.0206 H         1 <0>         0.1348
     32 H4         -0.9246   -0.5587    0.0084 H         1 <0>         0.1385
     33 H5          4.8618    0.1902    1.1958 H         1 <0>         0.0954
     34 H6          3.7924   -0.9119    2.0966 H         1 <0>         0.0933
     35 H7          6.1900   -1.6921    2.0200 H         1 <0>         0.1091
     36 H8          5.0493   -2.8559    1.2977 H         1 <0>         0.0800
     37 H9          6.1334   -1.6767   -2.1770 H         1 <0>         0.0787
     38 H10         5.0120   -2.8454   -1.4326 H         1 <0>         0.0873
     39 H11         3.7354   -0.8945   -2.1830 H         1 <0>         0.0927
     40 H12         4.8291    0.1999   -1.3020 H         1 <0>         0.0953
     41 H13        10.8586   -1.3639    2.3725 H         1 <0>         0.1426
     42 H14        13.0054   -1.1176   -1.3039 H         1 <0>         0.1423
     43 H15        10.9090   -1.3088   -2.5715 H         1 <0>         0.1336
     44 H16         8.0470   -1.6040   -2.1409 H         1 <0>         0.4214
@<TRIPOS>BOND
     1    1    6 ar
     2    1    2 ar
     3    1   29 1
     4    2    3 ar
     5    2   30 1
     6    3    4 ar
     7    3   31 1
     8    4   10 1
     9    4    5 ar
    10    5    6 ar
    11    5    7 1
    12    6   32 1
    13    7    8 2
    14    7    9 1
    15    9   10 1
    16   10   15 1
    17   10   11 1
    18   11   12 1
    19   11   33 1
    20   11   34 1
    21   12   13 1
    22   12   35 1
    23   12   36 1
    24   13   14 1
    25   13   16 1
    26   14   15 1
    27   14   37 1
    28   14   38 1
    29   15   39 1
    30   15   40 1
    31   16   24 1
    32   16   17 2
    33   17   18 1
    34   18   23 ar
    35   18   19 ar
    36   19   20 ar
    37   19   41 1
    38   20   21 ar
    39   20   25 1
    40   21   22 ar
    41   21   42 1
    42   22   23 ar
    43   22   43 1
    44   23   24 1
    45   24   44 1
    46   25   26 1
    47   25   27 1
    48   25   28 1
@<TRIPOS>MOLECULE
ZINC34229645
   45    49     0     0     0
SMALL
USER_CHARGES

@<TRIPOS>ATOM
      1 C1         -0.0166    1.3756    0.0096 C.ar      1 <0>        -0.1127
      2 C2          1.1685    2.0902    0.0021 C.ar      1 <0>        -0.0740
      3 C3          2.3836    1.4259   -0.0140 C.ar      1 <0>        -0.0915
      4 C4          2.4142    0.0512   -0.0221 C.ar      1 <0>        -0.1062
      5 C5          1.2225   -0.6800   -0.0135 C.ar      1 <0>        -0.1900
      6 C6          0.0021   -0.0041    0.0020 C.ar      1 <0>        -0.0292
      7 C7          1.5769   -2.1112   -0.0239 C.2       1 <0>         0.5219
      8 O1          0.7786   -3.0268   -0.0210 O.2       1 <0>        -0.4290
      9 O2          2.9131   -2.2535   -0.0376 O.3       1 <0>        -0.3117
     10 C8          3.5277   -0.9636   -0.0402 C.3       1 <0>         0.1521
     11 C9          4.4045   -0.7992    1.2018 C.3       1 <0>        -0.1340
     12 C10         5.5009   -1.8692    1.1942 C.3       1 <0>         0.1111
     13 N1          6.2287   -1.7918   -0.0797 N.pl3     1 <0>        -0.5649
     14 C11         5.4668   -1.8598   -1.3342 C.3       1 <0>         0.1103
     15 C12         4.3712   -0.7893   -1.3039 C.3       1 <0>        -0.1350
     16 C13         7.6010   -1.6574   -0.0977 C.cat     1 <0>         0.6590
     17 N2          8.3258   -1.4822   -1.1744 N.pl3     1 <0>        -0.5382
     18 C14         9.6375   -1.3884   -0.8313 C.ar      1 <0>         0.0608
     19 C15        10.8111   -1.2034   -1.5663 C.ar      1 <0>        -0.0255
     20 C16        12.0237   -1.1496   -0.9164 C.ar      1 <0>        -0.1488
     21 C17        12.0892   -1.2778    0.4632 C.ar      1 <0>        -0.0306
     22 C18        10.9395   -1.4615    1.2033 C.ar      1 <0>        -0.0816
     23 C19         9.7096   -1.5177    0.5654 C.ar      1 <0>         0.1181
     24 N3          8.4061   -1.6814    1.0049 N.pl3     1 <0>        -0.5744
     25 C20        13.2893   -0.9505   -1.7099 C.3       1 <0>         0.5116
     26 F1         13.5549    0.4180   -1.8284 F         1 <0>        -0.1653
     27 F2         14.3544   -1.5771   -1.0540 F         1 <0>        -0.1648
     28 F3         13.1335   -1.5073   -2.9838 F         1 <0>        -0.1693
     29 H1         -0.9605    1.9002    0.0260 H         1 <0>         0.1447
     30 H2          1.1457    3.1700    0.0085 H         1 <0>         0.1431
     31 H3          3.3063    1.9871   -0.0206 H         1 <0>         0.1339
     32 H4         -0.9246   -0.5587    0.0084 H         1 <0>         0.1426
     33 H5          4.8618    0.1902    1.1958 H         1 <0>         0.1027
     34 H6          3.7924   -0.9119    2.0966 H         1 <0>         0.1113
     35 H7          6.1900   -1.6921    2.0200 H         1 <0>         0.0958
     36 H8          5.0493   -2.8559    1.2977 H         1 <0>         0.1160
     37 H9          6.1334   -1.6767   -2.1770 H         1 <0>         0.0946
     38 H10         5.0120   -2.8454   -1.4326 H         1 <0>         0.1178
     39 H11         3.7354   -0.8945   -2.1830 H         1 <0>         0.1117
     40 H12         4.8291    0.1999   -1.3020 H         1 <0>         0.1029
     41 H13        10.7673   -1.1032   -2.6408 H         1 <0>         0.1642
     42 H14        13.0465   -1.2339    0.9612 H         1 <0>         0.1681
     43 H15        10.9973   -1.5614    2.2771 H         1 <0>         0.1645
     44 H16         8.1189   -1.7940    1.9246 H         1 <0>         0.4601
     45 H17         7.9793   -1.4278   -2.0788 H         1 <0>         0.4577
@<TRIPOS>BOND
     1    1    6 ar
     2    1    2 ar
     3    1   29 1
     4    2    3 ar
     5    2   30 1
     6    3    4 ar
     7    3   31 1
     8    4   10 1
     9    4    5 ar
    10    5    6 ar
    11    5    7 1
    12    6   32 1
    13    7    8 2
    14    7    9 1
    15    9   10 1
    16   10   15 1
    17   10   11 1
    18   11   12 1
    19   11   33 1
    20   11   34 1
    21   12   13 1
    22   12   35 1
    23   12   36 1
    24   13   14 1
    25   13   16 1
    26   14   15 1
    27   14   37 1
    28   14   38 1
    29   15   39 1
    30   15   40 1
    31   16   24 1
    32   16   17 2
    33   17   18 1
    34   17   45 1
    35   18   23 ar
    36   18   19 ar
    37   19   20 ar
    38   19   41 1
    39   20   21 ar
    40   20   25 1
    41   21   22 ar
    42   21   42 1
    43   22   23 ar
    44   22   43 1
    45   23   24 1
    46   24   44 1
    47   25   26 1
    48   25   27 1
    49   25   28 1
@<TRIPOS>MOLECULE
ZINC40847199
   42    46     0     0     0
SMALL
USER_CHARGES

@<TRIPOS>ATOM
      1 C1         -0.0166    1.3756    0.0096 C.ar      1 <0>        -0.1130
      2 C2          1.1685    2.0902    0.0021 C.ar      1 <0>        -0.0741
      3 C3          2.3836    1.4259   -0.0140 C.ar      1 <0>        -0.0916
      4 C4          2.4142    0.0512   -0.0221 C.ar      1 <0>        -0.1057
      5 C5          1.2225   -0.6800   -0.0135 C.ar      1 <0>        -0.1902
      6 C6          0.0021   -0.0041    0.0020 C.ar      1 <0>        -0.0293
      7 C7          1.5769   -2.1112   -0.0239 C.2       1 <0>         0.5219
      8 O1          0.7786   -3.0268   -0.0210 O.2       1 <0>        -0.4295
      9 O2          2.9131   -2.2535   -0.0376 O.3       1 <0>        -0.3115
     10 C8          3.5277   -0.9636   -0.0402 C.3       1 <0>         0.1522
     11 C9          4.4045   -0.7992    1.2018 C.3       1 <0>        -0.1338
     12 C10         5.5009   -1.8692    1.1942 C.3       1 <0>         0.1106
     13 N1          6.2287   -1.7918   -0.0797 N.pl3     1 <0>        -0.5677
     14 C11         5.4668   -1.8598   -1.3342 C.3       1 <0>         0.1127
     15 C12         4.3712   -0.7893   -1.3039 C.3       1 <0>        -0.1349
     16 C13         7.6010   -1.6574   -0.0977 C.cat     1 <0>         0.6556
     17 N2          8.3565   -1.4743   -1.2201 N.pl3     1 <0>        -0.5725
     18 H1          8.0287   -1.4162   -2.1312 H         1 <0>         0.4581
     19 C14         9.6790   -1.3862   -0.8153 C.ar      1 <0>         0.0895
     20 C15        10.8792   -1.2049   -1.4854 C.ar      1 <0>        -0.0702
     21 C16        12.0619   -1.1606   -0.7765 C.ar      1 <0>        -0.0670
     22 C17        12.0589   -1.2970    0.6048 C.ar      1 <0>        -0.0095
     23 C18        10.8752   -1.4783    1.2864 C.ar      1 <0>        -0.0740
     24 C19         9.6694   -1.5244    0.5823 C.ar      1 <0>         0.0759
     25 N3          8.3732   -1.6809    0.9599 N.pl3     1 <0>        -0.5389
     26 Cl1        13.5571   -1.2392    1.4799 Cl        1 <0>        -0.0175
     27 H2         -0.9605    1.9002    0.0260 H         1 <0>         0.1445
     28 H3          1.1457    3.1700    0.0085 H         1 <0>         0.1430
     29 H4          3.3063    1.9871   -0.0206 H         1 <0>         0.1339
     30 H5         -0.9246   -0.5587    0.0084 H         1 <0>         0.1425
     31 H6          4.8618    0.1902    1.1958 H         1 <0>         0.1026
     32 H7          3.7924   -0.9119    2.0966 H         1 <0>         0.1110
     33 H8          6.1900   -1.6921    2.0200 H         1 <0>         0.0945
     34 H9          5.0493   -2.8559    1.2977 H         1 <0>         0.1160
     35 H10         6.1334   -1.6767   -2.1770 H         1 <0>         0.0948
     36 H11         5.0120   -2.8454   -1.4326 H         1 <0>         0.1154
     37 H12         3.7354   -0.8945   -2.1830 H         1 <0>         0.1105
     38 H13         4.8291    0.1999   -1.3020 H         1 <0>         0.1024
     39 H14        10.8883   -1.0989   -2.5601 H         1 <0>         0.1608
     40 H15        12.9961   -1.0193   -1.2997 H         1 <0>         0.1651
     41 H16        10.8795   -1.5845    2.3612 H         1 <0>         0.1606
     42 H17         8.0670   -1.7953    1.8732 H         1 <0>         0.4566
@<TRIPOS>BOND
     1    1    6 ar
     2    1    2 ar
     3    1   27 1
     4    2    3 ar
     5    2   28 1
     6    3    4 ar
     7    3   29 1
     8    4   10 1
     9    4    5 ar
    10    5    6 ar
    11    5    7 1
    12    6   30 1
    13    7    8 2
    14    7    9 1
    15    9   10 1
    16   10   15 1
    17   10   11 1
    18   11   12 1
    19   11   31 1
    20   11   32 1
    21   12   13 1
    22   12   33 1
    23   12   34 1
    24   13   14 1
    25   13   16 1
    26   14   15 1
    27   14   35 1
    28   14   36 1
    29   15   37 1
    30   15   38 1
    31   16   25 2
    32   16   17 1
    33   17   18 1
    34   17   19 1
    35   19   24 ar
    36   19   20 ar
    37   20   21 ar
    38   20   39 1
    39   21   22 ar
    40   21   40 1
    41   22   23 ar
    42   22   26 1
    43   23   24 ar
    44   23   41 1
    45   24   25 1
    46   25   42 1
@<TRIPOS>MOLECULE
ZINC40430338
   42    46     0     0     0
SMALL
USER_CHARGES

@<TRIPOS>ATOM
      1 C1         -0.0166    1.3756    0.0096 C.ar      1 <0>        -0.1130
      2 C2          1.1685    2.0902    0.0021 C.ar      1 <0>        -0.0741
      3 C3          2.3836    1.4259   -0.0140 C.ar      1 <0>        -0.0916
      4 C4          2.4142    0.0512   -0.0221 C.ar      1 <0>        -0.1058
      5 C5          1.2225   -0.6800   -0.0135 C.ar      1 <0>        -0.1902
      6 C6          0.0021   -0.0041    0.0020 C.ar      1 <0>        -0.0293
      7 C7          1.5769   -2.1112   -0.0239 C.2       1 <0>         0.5219
      8 O1          0.7786   -3.0268   -0.0210 O.2       1 <0>        -0.4295
      9 O2          2.9131   -2.2535   -0.0376 O.3       1 <0>        -0.3115
     10 C8          3.5277   -0.9636   -0.0402 C.3       1 <0>         0.1522
     11 C9          4.4045   -0.7992    1.2018 C.3       1 <0>        -0.1338
     12 C10         5.5009   -1.8692    1.1942 C.3       1 <0>         0.1105
     13 N1          6.2287   -1.7918   -0.0797 N.pl3     1 <0>        -0.5677
     14 C11         5.4668   -1.8598   -1.3342 C.3       1 <0>         0.1128
     15 C12         4.3712   -0.7893   -1.3039 C.3       1 <0>        -0.1349
     16 C13         7.6011   -1.6574   -0.0977 C.cat     1 <0>         0.6556
     17 N2          8.3565   -1.4742   -1.2201 N.pl3     1 <0>        -0.5708
     18 H1          8.0287   -1.4163   -2.1312 H         1 <0>         0.4582
     19 C14         9.6793   -1.3857   -0.8148 C.ar      1 <0>         0.0744
     20 C15        10.8794   -1.2041   -1.4850 C.ar      1 <0>        -0.0521
     21 C16        12.0623   -1.1592   -0.7766 C.ar      1 <0>        -0.1095
     22 C17        12.0595   -1.2949    0.6058 C.ar      1 <0>         0.1465
     23 C18        10.8749   -1.4766    1.2874 C.ar      1 <0>        -0.1231
     24 C19         9.6694   -1.5236    0.5827 C.ar      1 <0>         0.0942
     25 N3          8.3733   -1.6809    0.9599 N.pl3     1 <0>        -0.5400
     26 F1         13.2253   -1.2490    1.2869 F         1 <0>        -0.1107
     27 H2         -0.9605    1.9002    0.0260 H         1 <0>         0.1445
     28 H3          1.1457    3.1700    0.0085 H         1 <0>         0.1430
     29 H4          3.3063    1.9871   -0.0206 H         1 <0>         0.1340
     30 H5         -0.9246   -0.5587    0.0084 H         1 <0>         0.1425
     31 H6          4.8618    0.1902    1.1958 H         1 <0>         0.1026
     32 H7          3.7924   -0.9119    2.0966 H         1 <0>         0.1109
     33 H8          6.1900   -1.6921    2.0200 H         1 <0>         0.0945
     34 H9          5.0493   -2.8559    1.2977 H         1 <0>         0.1160
     35 H10         6.1334   -1.6767   -2.1770 H         1 <0>         0.0950
     36 H11         5.0120   -2.8454   -1.4326 H         1 <0>         0.1154
     37 H12         3.7354   -0.8945   -2.1830 H         1 <0>         0.1105
     38 H13         4.8291    0.1999   -1.3020 H         1 <0>         0.1024
     39 H14        10.8882   -1.0983   -2.5598 H         1 <0>         0.1619
     40 H15        12.9964   -1.0181   -1.3000 H         1 <0>         0.1680
     41 H16        10.8788   -1.5816    2.3623 H         1 <0>         0.1633
     42 H17         8.0670   -1.7953    1.8732 H         1 <0>         0.4567
@<TRIPOS>BOND
     1    1    6 ar
     2    1    2 ar
     3    1   27 1
     4    2    3 ar
     5    2   28 1
     6    3    4 ar
     7    3   29 1
     8    4   10 1
     9    4    5 ar
    10    5    6 ar
    11    5    7 1
    12    6   30 1
    13    7    8 2
    14    7    9 1
    15    9   10 1
    16   10   15 1
    17   10   11 1
    18   11   12 1
    19   11   31 1
    20   11   32 1
    21   12   13 1
    22   12   33 1
    23   12   34 1
    24   13   14 1
    25   13   16 1
    26   14   15 1
    27   14   35 1
    28   14   36 1
    29   15   37 1
    30   15   38 1
    31   16   25 2
    32   16   17 1
    33   17   18 1
    34   17   19 1
    35   19   24 ar
    36   19   20 ar
    37   20   21 ar
    38   20   39 1
    39   21   22 ar
    40   21   40 1
    41   22   23 ar
    42   22   26 1
    43   23   24 ar
    44   23   41 1
    45   24   25 1
    46   25   42 1
@<TRIPOS>MOLECULE
ZINC02874023
   35    37     0     0     0
SMALL
USER_CHARGES
N-(9-ethylcarbazol-3-yl)-2,2,2-trifluoro-acetamide
@<TRIPOS>ATOM
      1 C1          4.0755    3.6647   -1.4327 C.3       1 <0>        -0.1734
      2 C2          3.5940    3.7775    0.0151 C.3       1 <0>         0.1095
      3 N1          2.1641    4.0962    0.0307 N.pl3     1 <0>        -0.5031
      4 C3          1.1454    3.1605    0.0439 C.ar      1 <0>         0.1454
      5 C4          1.1518    1.7687    0.0458 C.ar      1 <0>        -0.1436
      6 C5         -0.0380    1.0734    0.0601 C.ar      1 <0>        -0.0803
      7 C6         -1.2493    1.7482    0.0669 C.ar      1 <0>        -0.1505
      8 C7         -1.2760    3.1261    0.0713 C.ar      1 <0>        -0.0573
      9 C8         -0.0808    3.8414    0.0566 C.ar      1 <0>        -0.1056
     10 C9          0.2390    5.2809    0.0505 C.ar      1 <0>        -0.0874
     11 C10         1.6383    5.3779    0.0345 C.ar      1 <0>         0.1421
     12 C11         2.2363    6.6343    0.0255 C.ar      1 <0>        -0.1229
     13 C12         1.4578    7.7710    0.0323 C.ar      1 <0>        -0.0918
     14 C13         0.0694    7.6763    0.0487 C.ar      1 <0>         0.0923
     15 C14        -0.5414    6.4340    0.0573 C.ar      1 <0>        -0.0535
     16 N2         -0.7114    8.8401    0.0560 N.am      1 <0>        -0.6384
     17 C15        -1.8876    8.8666   -0.6015 C.2       1 <0>         0.4806
     18 O1         -2.3104    7.8595   -1.1290 O.2       1 <0>        -0.4570
     19 C16        -2.6774   10.1475   -0.6814 C.3       1 <0>         0.4560
     20 F1         -3.8519    9.9266   -1.4088 F         1 <0>        -0.1485
     21 F2         -3.0024   10.5763    0.6100 F         1 <0>        -0.1649
     22 F3         -1.9113   11.1288   -1.3196 F         1 <0>        -0.1640
     23 H1          3.5216    2.8744   -1.9393 H         1 <0>         0.0625
     24 H2          3.9087    4.6117   -1.9460 H         1 <0>         0.0624
     25 H3          5.1394    3.4276   -1.4444 H         1 <0>         0.0754
     26 H4          4.1479    4.5678    0.5217 H         1 <0>         0.0884
     27 H5          3.7608    2.8305    0.5283 H         1 <0>         0.0886
     28 H6          2.0896    1.2333    0.0358 H         1 <0>         0.1228
     29 H7         -0.0269   -0.0065    0.0615 H         1 <0>         0.1296
     30 H8         -2.1750    1.1920    0.0735 H         1 <0>         0.1280
     31 H9         -2.2206    3.6496    0.0811 H         1 <0>         0.1263
     32 H10         3.3129    6.7186    0.0128 H         1 <0>         0.1316
     33 H11         1.9285    8.7430    0.0253 H         1 <0>         0.1372
     34 H12        -1.6188    6.3596    0.0700 H         1 <0>         0.1424
     35 H13        -0.4053    9.6265    0.5343 H         1 <0>         0.4210
@<TRIPOS>BOND
     1    1    2 1
     2    1   23 1
     3    1   24 1
     4    1   25 1
     5    2    3 1
     6    2   26 1
     7    2   27 1
     8    3   11 1
     9    3    4 1
    10    4    9 ar
    11    4    5 ar
    12    5    6 ar
    13    5   28 1
    14    6    7 ar
    15    6   29 1
    16    7    8 ar
    17    7   30 1
    18    8    9 ar
    19    8   31 1
    20    9   10 1
    21   10   15 ar
    22   10   11 ar
    23   11   12 ar
    24   12   13 ar
    25   12   32 1
    26   13   14 ar
    27   13   33 1
    28   14   15 ar
    29   14   16 1
    30   15   34 1
    31   16   17 am
    32   16   35 1
    33   17   18 2
    34   17   19 1
    35   19   20 1
    36   19   21 1
    37   19   22 1
