@<TRIPOS>MOLECULE
ZINC00398963
   34    37     0     0     0
SMALL
USER_CHARGES

@<TRIPOS>ATOM
      1 C1         -0.0167    1.3794    0.0096 C.ar      1 <0>        -0.0917
      2 C2          1.1683    2.0937    0.0021 C.ar      1 <0>        -0.1153
      3 C3          2.3774    1.4298   -0.0134 C.ar      1 <0>        -0.0949
      4 C4          2.4036    0.0339   -0.0212 C.ar      1 <0>        -0.0855
      5 C5          1.2042   -0.6806   -0.0131 C.ar      1 <0>        -0.0776
      6 C6          0.0021   -0.0041    0.0020 C.ar      1 <0>        -0.1166
      7 C7          3.6950   -0.6841   -0.0384 C.2       1 <0>         0.2669
      8 C8          3.7025   -2.0474   -0.0514 C.2       1 <0>        -0.2128
      9 C9          4.9253   -2.7359   -0.0677 C.2       1 <0>         0.1931
     10 C10         6.1173   -1.9987   -0.0703 C.2       1 <0>        -0.3319
     11 C11         7.2107   -2.9743   -0.0884 C.2       1 <0>         0.2223
     12 N1          6.6655   -4.1646   -0.0953 N.2       1 <0>        -0.2961
     13 O1          5.2574   -4.0371   -0.0828 O.3       1 <0>        -0.0690
     14 C12         8.6625   -2.6703   -0.0972 C.ar      1 <0>        -0.0544
     15 C13         9.1385   -1.5507   -0.7771 C.ar      1 <0>        -0.0547
     16 C14        10.4904   -1.2728   -0.7820 C.ar      1 <0>        -0.1261
     17 C15        11.3722   -2.1029   -0.1136 C.ar      1 <0>        -0.0944
     18 C16        10.9053   -3.2157    0.5625 C.ar      1 <0>        -0.1288
     19 C17         9.5549   -3.4999    0.5793 C.ar      1 <0>        -0.0789
     20 C18         6.0601   -0.5870   -0.0558 C.2       1 <0>         0.5732
     21 O2          7.0884    0.0677   -0.0582 O.2       1 <0>        -0.5199
     22 N2          4.8628    0.0326   -0.0466 N.am      1 <0>        -0.6151
     23 H1          4.8274    1.0019   -0.0410 H         1 <0>         0.4211
     24 H2         -0.9605    1.9042    0.0260 H         1 <0>         0.1321
     25 H3          1.1466    3.1735    0.0082 H         1 <0>         0.1338
     26 H4          3.3016    1.9885   -0.0200 H         1 <0>         0.1254
     27 H5          1.2174   -1.7605   -0.0194 H         1 <0>         0.1386
     28 H6         -0.9265   -0.5555    0.0083 H         1 <0>         0.1355
     29 H7          2.7717   -2.5950   -0.0487 H         1 <0>         0.1673
     30 H8          8.4510   -0.9021   -1.2995 H         1 <0>         0.1381
     31 H9         10.8604   -0.4057   -1.3088 H         1 <0>         0.1299
     32 H10        12.4293   -1.8816   -0.1201 H         1 <0>         0.1278
     33 H11        11.5984   -3.8608    1.0820 H         1 <0>         0.1302
     34 H12         9.1909   -4.3661    1.1118 H         1 <0>         0.1284
@<TRIPOS>BOND
     1    1    6 ar
     2    1    2 ar
     3    1   24 1
     4    2    3 ar
     5    2   25 1
     6    3    4 ar
     7    3   26 1
     8    4    5 ar
     9    4    7 1
    10    5    6 ar
    11    5   27 1
    12    6   28 1
    13    7   22 1
    14    7    8 2
    15    8    9 1
    16    8   29 1
    17    9   13 1
    18    9   10 2
    19   10   11 1
    20   10   20 1
    21   11   12 2
    22   11   14 1
    23   12   13 1
    24   14   19 ar
    25   14   15 ar
    26   15   16 ar
    27   15   30 1
    28   16   17 ar
    29   16   31 1
    30   17   18 ar
    31   17   32 1
    32   18   19 ar
    33   18   33 1
    34   19   34 1
    35   20   21 2
    36   20   22 am
    37   22   23 1
@<TRIPOS>MOLECULE
ZINC01578606
   49    52     0     0     0
SMALL
USER_CHARGES

@<TRIPOS>ATOM
      1 C1          0.0015    1.4396    0.3426 C.3       1 <0>         0.0497
      2 N1          0.0115   -0.0144    0.1642 N.am      1 <0>        -0.5042
      3 C2         -1.1767   -0.6943    0.1079 C.2       1 <0>         0.2312
      4 C3         -1.2096   -2.0472   -0.0576 C.2       1 <0>        -0.1869
      5 C4         -0.0081   -2.7630   -0.1731 C.2       1 <0>         0.1796
      6 C5          1.2050   -2.0634   -0.1149 C.2       1 <0>        -0.3151
      7 C6          1.1894   -0.6605    0.0527 C.2       1 <0>         0.5679
      8 O1          2.2364   -0.0378    0.1001 O.2       1 <0>        -0.5088
      9 C7          2.2688   -3.0606   -0.2613 C.2       1 <0>         0.2232
     10 N2          1.6887   -4.2272   -0.3911 N.2       1 <0>        -0.2875
     11 O2          0.2853   -4.0631   -0.3391 O.3       1 <0>        -0.0654
     12 C8          3.7286   -2.7977   -0.2627 C.ar      1 <0>        -0.0606
     13 C9          4.2271   -1.6228   -0.8223 C.ar      1 <0>        -0.0553
     14 C10         5.5863   -1.3832   -0.8204 C.ar      1 <0>        -0.1256
     15 C11         6.4532   -2.3066   -0.2644 C.ar      1 <0>        -0.0904
     16 C12         5.9640   -3.4745    0.2925 C.ar      1 <0>        -0.1267
     17 C13         4.6063   -3.7221    0.3009 C.ar      1 <0>        -0.0773
     18 C14        -2.4461    0.0525    0.2292 C.ar      1 <0>        -0.0339
     19 C15        -2.6998    1.1438   -0.6037 C.ar      1 <0>        -0.0902
     20 C16        -3.8870    1.8363   -0.4855 C.ar      1 <0>        -0.0920
     21 C17        -4.8252    1.4515    0.4559 C.ar      1 <0>        -0.1449
     22 C18        -4.5799    0.3712    1.2849 C.ar      1 <0>        -0.0879
     23 C19        -3.3993   -0.3337    1.1733 C.ar      1 <0>        -0.0776
     24 C20        -6.1199    2.2128    0.5793 C.3       1 <0>         0.0401
     25 N3         -7.1258    1.6155   -0.3091 N.4       1 <0>        -0.3863
     26 C21        -8.4192    2.2803   -0.1014 C.3       1 <0>        -0.0479
     27 C22        -6.7070    1.7849   -1.7069 C.3       1 <0>        -0.0547
     28 H1          1.0247    1.7993    0.4520 H         1 <0>         0.1122
     29 H2         -0.4576    1.9093   -0.5273 H         1 <0>         0.0812
     30 H3         -0.5698    1.6922    1.2359 H         1 <0>         0.0822
     31 H4         -2.1561   -2.5657   -0.0993 H         1 <0>         0.1663
     32 H5          3.5512   -0.9013   -1.2570 H         1 <0>         0.1362
     33 H6          5.9738   -0.4732   -1.2542 H         1 <0>         0.1309
     34 H7          7.5161   -2.1151   -0.2654 H         1 <0>         0.1301
     35 H8          6.6454   -4.1920    0.7252 H         1 <0>         0.1324
     36 H9          4.2250   -4.6323    0.7396 H         1 <0>         0.1290
     37 H10        -1.9682    1.4454   -1.3387 H         1 <0>         0.1438
     38 H11        -4.0845    2.6809   -1.1289 H         1 <0>         0.1408
     39 H12        -5.3161    0.0765    2.0180 H         1 <0>         0.1422
     40 H13        -3.2109   -1.1795    1.8179 H         1 <0>         0.1478
     41 H14        -6.4719    2.1664    1.6098 H         1 <0>         0.1402
     42 H15        -5.9580    3.2532    0.2972 H         1 <0>         0.1387
     43 H16        -8.3218    3.3426   -0.3253 H         1 <0>         0.1233
     44 H17        -9.1656    1.8370   -0.7606 H         1 <0>         0.1260
     45 H18        -8.7300    2.1545    0.9357 H         1 <0>         0.1247
     46 H19        -5.7473    1.2916   -1.8610 H         1 <0>         0.1230
     47 H20        -7.4534    1.3417   -2.3661 H         1 <0>         0.1258
     48 H21        -6.6096    2.8472   -1.9308 H         1 <0>         0.1233
     49 H22        -7.2160    0.6321   -0.1019 H         1 <0>         0.4272
@<TRIPOS>BOND
     1    1    2 1
     2    1   28 1
     3    1   29 1
     4    1   30 1
     5    2    7 am
     6    2    3 1
     7    3    4 2
     8    3   18 1
     9    4    5 1
    10    4   31 1
    11    5   11 1
    12    5    6 2
    13    6    7 1
    14    6    9 1
    15    7    8 2
    16    9   10 2
    17    9   12 1
    18   10   11 1
    19   12   17 ar
    20   12   13 ar
    21   13   14 ar
    22   13   32 1
    23   14   15 ar
    24   14   33 1
    25   15   16 ar
    26   15   34 1
    27   16   17 ar
    28   16   35 1
    29   17   36 1
    30   18   23 ar
    31   18   19 ar
    32   19   20 ar
    33   19   37 1
    34   20   21 ar
    35   20   38 1
    36   21   22 ar
    37   21   24 1
    38   22   23 ar
    39   22   39 1
    40   23   40 1
    41   24   25 1
    42   24   41 1
    43   24   42 1
    44   25   26 1
    45   25   27 1
    46   25   49 1
    47   26   43 1
    48   26   44 1
    49   26   45 1
    50   27   46 1
    51   27   47 1
    52   27   48 1
