@<TRIPOS>MOLECULE
ZINC03893798
   41    44     0     0     0
SMALL
USER_CHARGES
N-[4-(1,7-diazabicyclo[4.3.0]nona-2,4,6,8-tetraen-8-yl)phenyl]-2-nitro-benzamide
@<TRIPOS>ATOM
      1 C1         -2.8010    3.6639   -1.5057 C.ar      1 <0>        -0.0690
      2 C2         -3.7828    3.0417   -0.7547 C.ar      1 <0>        -0.0963
      3 C3         -3.5486    1.8002   -0.1912 C.ar      1 <0>        -0.0554
      4 C4         -2.3328    1.1741   -0.3746 C.ar      1 <0>        -0.0059
      5 C5         -1.3382    1.7961   -1.1309 C.ar      1 <0>        -0.0689
      6 C6         -1.5792    3.0514   -1.6923 C.ar      1 <0>        -0.0890
      7 C7         -0.0334    1.1313   -1.3316 C.2       1 <0>         0.5564
      8 O1          0.0117    0.0077   -1.7934 O.2       1 <0>        -0.4721
      9 N1          1.1067    1.7730   -1.0077 N.am      1 <0>        -0.6624
     10 C8          2.3332    1.1087   -1.1006 C.ar      1 <0>         0.1468
     11 C9          2.4082   -0.2515   -0.8256 C.ar      1 <0>        -0.1142
     12 C10         3.6158   -0.9098   -0.9221 C.ar      1 <0>        -0.0830
     13 C11         4.7641   -0.2077   -1.2846 C.ar      1 <0>        -0.0243
     14 C12         4.6876    1.1576   -1.5544 C.ar      1 <0>        -0.0693
     15 C13         3.4769    1.8108   -1.4622 C.ar      1 <0>        -0.1427
     16 C14         6.0661   -0.9127   -1.3827 C.2       1 <0>         0.1026
     17 C15         6.2757   -2.2379   -1.1463 C.2       1 <0>        -0.0834
     18 N2          7.6069   -2.4759   -1.3471 N.pl3     1 <0>        -0.3607
     19 C16         8.3634   -3.6085   -1.2536 C.2       1 <0>         0.0551
     20 C17         9.6878   -3.5739   -1.5103 C.2       1 <0>        -0.1412
     21 C18        10.3071   -2.3680   -1.8783 C.2       1 <0>        -0.1005
     22 C19         9.5657   -1.2317   -1.9749 C.2       1 <0>        -0.0803
     23 C20         8.1830   -1.2836   -1.7036 C.2       1 <0>         0.2272
     24 N3          7.2382   -0.3551   -1.7252 N.2       1 <0>        -0.4837
     25 N4         -2.0836   -0.1538    0.2299 N.pl3     1 <0>         0.0203
     26 O2         -2.9883   -0.7482    0.7884 O.2       1 <0>        -0.1582
     27 O3         -0.9740   -0.6523    0.1687 O.3       1 <0>        -0.1259
     28 H1         -2.9902    4.6332   -1.9429 H         1 <0>         0.1529
     29 H2         -4.7359    3.5278   -0.6075 H         1 <0>         0.1551
     30 H3         -4.3191    1.3200    0.3938 H         1 <0>         0.1619
     31 H4         -0.8123    3.5400   -2.2749 H         1 <0>         0.1539
     32 H5          1.0762    2.6957   -0.7102 H         1 <0>         0.4116
     33 H6          1.5191   -0.7942   -0.5401 H         1 <0>         0.1481
     34 H7          3.6729   -1.9677   -0.7123 H         1 <0>         0.1292
     35 H8          5.5760    1.7035   -1.8359 H         1 <0>         0.1369
     36 H9          3.4172    2.8687   -1.6709 H         1 <0>         0.1289
     37 H10         5.5308   -2.9636   -0.8549 H         1 <0>         0.1862
     38 H11         7.8974   -4.5412   -0.9718 H         1 <0>         0.1647
     39 H12        10.2741   -4.4776   -1.4328 H         1 <0>         0.1525
     40 H13        11.3671   -2.3432   -2.0839 H         1 <0>         0.1442
     41 H14        10.0316   -0.2990   -2.2566 H         1 <0>         0.1519
@<TRIPOS>BOND
     1    1    6 ar
     2    1    2 ar
     3    1   28 1
     4    2    3 ar
     5    2   29 1
     6    3    4 ar
     7    3   30 1
     8    4    5 ar
     9    4   25 1
    10    5    6 ar
    11    5    7 1
    12    6   31 1
    13    7    8 2
    14    7    9 am
    15    9   10 1
    16    9   32 1
    17   10   15 ar
    18   10   11 ar
    19   11   12 ar
    20   11   33 1
    21   12   13 ar
    22   12   34 1
    23   13   14 ar
    24   13   16 1
    25   14   15 ar
    26   14   35 1
    27   15   36 1
    28   16   24 1
    29   16   17 2
    30   17   18 1
    31   17   37 1
    32   18   23 1
    33   18   19 1
    34   19   20 2
    35   19   38 1
    36   20   21 1
    37   20   39 1
    38   21   22 2
    39   21   40 1
    40   22   23 1
    41   22   41 1
    42   23   24 2
    43   25   26 2
    44   25   27 1
@<TRIPOS>MOLECULE
ZINC03893798
   42    45     0     0     0
SMALL
USER_CHARGES
N-[4-(1,7-diazabicyclo[4.3.0]nona-2,4,6,8-tetraen-8-yl)phenyl]-2-nitro-benzamide
@<TRIPOS>ATOM
      1 C1         -2.8010    3.6639   -1.5057 C.ar      1 <0>        -0.0674
      2 C2         -3.7828    3.0417   -0.7547 C.ar      1 <0>        -0.0894
      3 C3         -3.5486    1.8002   -0.1912 C.ar      1 <0>        -0.0527
      4 C4         -2.3328    1.1741   -0.3746 C.ar      1 <0>        -0.0044
      5 C5         -1.3382    1.7961   -1.1309 C.ar      1 <0>        -0.0781
      6 C6         -1.5792    3.0514   -1.6923 C.ar      1 <0>        -0.0874
      7 C7         -0.0334    1.1313   -1.3316 C.2       1 <0>         0.5638
      8 O1          0.0117    0.0077   -1.7934 O.2       1 <0>        -0.4660
      9 N1          1.1067    1.7730   -1.0077 N.am      1 <0>        -0.6682
     10 C8          2.3332    1.1087   -1.1006 C.ar      1 <0>         0.1894
     11 C9          2.4082   -0.2515   -0.8256 C.ar      1 <0>        -0.1125
     12 C10         3.6158   -0.9098   -0.9221 C.ar      1 <0>        -0.0523
     13 C11         4.7641   -0.2077   -1.2846 C.ar      1 <0>        -0.0880
     14 C12         4.6876    1.1576   -1.5544 C.ar      1 <0>        -0.0728
     15 C13         3.4769    1.8108   -1.4622 C.ar      1 <0>        -0.1381
     16 C14         6.0661   -0.9127   -1.3827 C.2       1 <0>         0.1637
     17 C15         6.2757   -2.2379   -1.1463 C.2       1 <0>        -0.0296
     18 N2          7.6069   -2.4759   -1.3471 N.pl3     1 <0>        -0.3223
     19 C16         8.3634   -3.6085   -1.2536 C.2       1 <0>         0.0854
     20 C17         9.6878   -3.5739   -1.5103 C.2       1 <0>        -0.1141
     21 C18        10.3071   -2.3680   -1.8783 C.2       1 <0>        -0.0205
     22 C19         9.5657   -1.2317   -1.9749 C.2       1 <0>        -0.1243
     23 C20         8.1830   -1.2836   -1.7036 C.cat     1 <0>         0.3057
     24 N3         -2.0836   -0.1538    0.2299 N.pl3     1 <0>         0.0216
     25 O2         -2.9883   -0.7482    0.7884 O.2       1 <0>        -0.1475
     26 O3         -0.9740   -0.6523    0.1687 O.3       1 <0>        -0.1384
     27 H1         -2.9902    4.6332   -1.9429 H         1 <0>         0.1556
     28 H2         -4.7359    3.5278   -0.6075 H         1 <0>         0.1587
     29 H3         -4.3191    1.3200    0.3938 H         1 <0>         0.1650
     30 H4         -0.8123    3.5400   -2.2749 H         1 <0>         0.1535
     31 H5          1.0762    2.6957   -0.7102 H         1 <0>         0.4183
     32 H6          1.5191   -0.7942   -0.5401 H         1 <0>         0.1611
     33 H7          3.6729   -1.9677   -0.7123 H         1 <0>         0.1405
     34 H8          5.5760    1.7035   -1.8359 H         1 <0>         0.1277
     35 H9          3.4172    2.8687   -1.6709 H         1 <0>         0.1419
     36 H10         5.5308   -2.9636   -0.8549 H         1 <0>         0.2270
     37 H11         7.8974   -4.5412   -0.9718 H         1 <0>         0.2008
     38 H12        10.2741   -4.4776   -1.4328 H         1 <0>         0.1830
     39 H13        11.3671   -2.3432   -2.0839 H         1 <0>         0.1745
     40 H14        10.0316   -0.2990   -2.2566 H         1 <0>         0.1783
     41 N4          7.2379   -0.3573   -1.7247 N.pl3     1 <0>        -0.5157
     42 H15         7.3795    0.6309   -1.9650 H         1 <0>         0.4742
@<TRIPOS>BOND
     1    1    6 ar
     2    1    2 ar
     3    1   27 1
     4    2    3 ar
     5    2   28 1
     6    3    4 ar
     7    3   29 1
     8    4    5 ar
     9    4   24 1
    10    5    6 ar
    11    5    7 1
    12    6   30 1
    13    7    8 2
    14    7    9 am
    15    9   10 1
    16    9   31 1
    17   10   15 ar
    18   10   11 ar
    19   11   12 ar
    20   11   32 1
    21   12   13 ar
    22   12   33 1
    23   13   14 ar
    24   13   16 1
    25   14   15 ar
    26   14   34 1
    27   15   35 1
    28   16   17 2
    29   16   41 1
    30   17   18 1
    31   17   36 1
    32   18   23 1
    33   18   19 1
    34   19   20 2
    35   19   37 1
    36   20   21 1
    37   20   38 1
    38   21   22 2
    39   21   39 1
    40   22   23 1
    41   22   40 1
    42   23   41 2
    43   24   25 2
    44   24   26 1
    45   41   42 1
