@<TRIPOS>MOLECULE
ZINC01492231
   21    21     0     0     0
SMALL
USER_CHARGES

@<TRIPOS>ATOM
      1 C1         -0.0181    1.4811    0.0102 C.3       1 <0>        -0.0410
      2 C2          1.4852    1.8561   -0.0022 C.3       1 <0>         0.0544
      3 H1          1.8886    1.7992   -1.0131 H         1 <0>         0.1039
      4 C3          2.1189    0.7737    0.9015 C.3       1 <0>         0.1013
      5 H2          3.0788    0.4556    0.4946 H         1 <0>         0.1087
      6 C4          1.1186   -0.3971    0.8888 C.3       1 <0>         0.0339
      7 H3          0.7460   -0.5781    1.8970 H         1 <0>         0.1626
      8 N1          0.0021   -0.0041    0.0020 N.4       1 <0>        -0.5035
      9 C5          1.7984   -1.6576    0.3505 C.3       1 <0>         0.0572
     10 O1          0.8992   -2.7637    0.4512 O.3       1 <0>        -0.5762
     11 O2          2.2852    1.2721    2.2304 O.3       1 <0>        -0.5390
     12 O3          1.6857    3.1598    0.5476 O.3       1 <0>        -0.5334
     13 H4         -0.5003    1.8543    0.9137 H         1 <0>         0.1472
     14 H5         -0.5174    1.8640   -0.8799 H         1 <0>         0.1448
     15 H6         -0.8696   -0.3658    0.3589 H         1 <0>         0.4428
     16 H7          2.0715   -1.5054   -0.6937 H         1 <0>         0.0760
     17 H8          2.6953   -1.8642    0.9343 H         1 <0>         0.1004
     18 H9          1.2645   -3.5983    0.1273 H         1 <0>         0.4120
     19 H10         2.8721    2.0381    2.2926 H         1 <0>         0.4119
     20 H11         1.2421    3.8657    0.0578 H         1 <0>         0.4048
     21 H12         0.1645   -0.3447   -0.9338 H         1 <0>         0.4313
@<TRIPOS>BOND
     1    1    8 1
     2    1    2 1
     3    1   13 1
     4    1   14 1
     5    2    3 1
     6    2    4 1
     7    2   12 1
     8    4    5 1
     9    4    6 1
    10    4   11 1
    11    6    7 1
    12    6    8 1
    13    6    9 1
    14    8   15 1
    15    8   21 1
    16    9   10 1
    17    9   16 1
    18    9   17 1
    19   10   18 1
    20   11   19 1
    21   12   20 1
@<TRIPOS>MOLECULE
ZINC01492251
   21    21     0     0     0
SMALL
USER_CHARGES
(2S,3S,4S)-2-(hydroxymethyl)pyrrolidine-3,4-diol
@<TRIPOS>ATOM
      1 C1          1.7959    1.5130   -1.4221 C.3       1 <0>        -0.0400
      2 C2          0.5419    1.9038   -2.2334 C.3       1 <0>         0.0474
      3 H1          0.4676    1.2931   -3.1331 H         1 <0>         0.1166
      4 C3         -0.6478    1.6228   -1.2926 C.3       1 <0>         0.0985
      5 H2         -1.1984    2.5422   -1.0935 H         1 <0>         0.1102
      6 C4         -0.0127    1.0858    0.0080 C.3       1 <0>         0.0382
      7 H3          0.0021   -0.0041    0.0020 H         1 <0>         0.1617
      8 C5         -0.7758    1.6013    1.2299 C.3       1 <0>         0.0618
      9 O1         -0.2178    1.0310    2.4154 O.3       1 <0>        -0.5770
     10 O2         -1.5122    0.6397   -1.8655 O.3       1 <0>        -0.5402
     11 O3          0.5858    3.2900   -2.5777 O.3       1 <0>        -0.5505
     12 H4          2.6133    2.2035   -1.6295 H         1 <0>         0.1480
     13 H5          2.0957    0.4904   -1.6513 H         1 <0>         0.1462
     14 H6         -0.6957    2.6873    1.2767 H         1 <0>         0.0755
     15 H7         -1.8251    1.3175    1.1493 H         1 <0>         0.1009
     16 H8         -0.6535    1.3144    3.2308 H         1 <0>         0.4118
     17 H9         -1.9398    0.9219   -2.6857 H         1 <0>         0.4096
     18 H10         1.3396    3.5340   -3.1320 H         1 <0>         0.4027
     19 N1          1.3532    1.6099   -0.0304 N.4       1 <0>        -0.5032
     20 H11         1.3664    2.5889    0.2787 H         1 <0>         0.4362
     21 H12         1.9648    1.0511    0.5762 H         1 <0>         0.4456
@<TRIPOS>BOND
     1    1    2 1
     2    1   12 1
     3    1   13 1
     4    1   19 1
     5    2    3 1
     6    2    4 1
     7    2   11 1
     8    4    5 1
     9    4    6 1
    10    4   10 1
    11    6    7 1
    12    6    8 1
    13    6   19 1
    14    8    9 1
    15    8   14 1
    16    8   15 1
    17    9   16 1
    18   10   17 1
    19   11   18 1
    20   19   20 1
    21   19   21 1
@<TRIPOS>MOLECULE
ZINC02585429
   21    21     0     0     0
SMALL
USER_CHARGES

@<TRIPOS>ATOM
      1 C1          1.3679    1.5560   -0.0026 C.3       1 <0>        -0.0441
      2 C2          1.2065    2.9988   -0.5278 C.3       1 <0>         0.0541
      3 H1          1.1313    3.6985    0.3046 H         1 <0>         0.1059
      4 C3         -0.1053    2.9854   -1.3395 C.3       1 <0>         0.0908
      5 H2          0.0908    3.2442   -2.3800 H         1 <0>         0.1220
      6 C4         -0.6260    1.5358   -1.2365 C.3       1 <0>         0.0449
      7 H3         -0.3022    0.9533   -2.0990 H         1 <0>         0.1616
      8 C5         -2.1519    1.5236   -1.1253 C.3       1 <0>         0.0661
      9 O1         -2.6147    0.1727   -1.0693 O.3       1 <0>        -0.5834
     10 O2         -1.0502    3.8939   -0.7705 O.3       1 <0>        -0.5514
     11 O3          2.3075    3.3466   -1.3696 O.3       1 <0>        -0.5398
     12 H4          1.7821    1.5626    1.0056 H         1 <0>         0.1477
     13 H5          2.0043    0.9755   -0.6705 H         1 <0>         0.1451
     14 H6         -2.4544    2.0491   -0.2195 H         1 <0>         0.0830
     15 H7         -2.5835    2.0198   -1.9945 H         1 <0>         0.0977
     16 H8         -3.5754    0.0887   -0.9980 H         1 <0>         0.4109
     17 H9         -0.7570    4.8154   -0.7669 H         1 <0>         0.4095
     18 H10         3.1652    3.3276   -0.9234 H         1 <0>         0.4026
     19 N1          0.0037    1.0264   -0.0174 N.4       1 <0>        -0.5044
     20 H11        -0.5115    1.3498    0.8098 H         1 <0>         0.4367
     21 H12         0.0217   -0.0001   -0.0297 H         1 <0>         0.4444
@<TRIPOS>BOND
     1    1    2 1
     2    1   12 1
     3    1   13 1
     4    1   19 1
     5    2    3 1
     6    2    4 1
     7    2   11 1
     8    4    5 1
     9    4    6 1
    10    4   10 1
    11    6    7 1
    12    6    8 1
    13    6   19 1
    14    8    9 1
    15    8   14 1
    16    8   15 1
    17    9   16 1
    18   10   17 1
    19   11   18 1
    20   19   20 1
    21   19   21 1
@<TRIPOS>MOLECULE
ZINC03870472
   21    21     0     0     0
SMALL
USER_CHARGES
2-(hydroxymethyl)pyrrolidine-3,4-diol
@<TRIPOS>ATOM
      1 C1          1.1669    4.8285   -1.6380 C.3       1 <0>        -0.0440
      2 C2          2.2358    5.1471   -0.5715 C.3       1 <0>         0.0600
      3 H1          1.8367    5.8240    0.1839 H         1 <0>         0.1072
      4 C3          2.5406    3.7562    0.0443 C.3       1 <0>         0.0982
      5 H2          2.9005    3.8530    1.0686 H         1 <0>         0.1207
      6 C4          1.1449    3.0852    0.0077 C.3       1 <0>         0.0412
      7 H3          0.5459    3.4046    0.8605 H         1 <0>         0.1629
      8 C5          1.2864    1.5618   -0.0018 C.3       1 <0>         0.0612
      9 O1         -0.0110    0.9628    0.0073 O.3       1 <0>        -0.5824
     10 O2          3.4767    3.0347   -0.7590 O.3       1 <0>        -0.5490
     11 O3          3.4047    5.7023   -1.1778 O.3       1 <0>        -0.5386
     12 H4          1.6371    4.7297   -2.6164 H         1 <0>         0.1416
     13 H5          0.4191    5.6212   -1.6619 H         1 <0>         0.1394
     14 H6          1.8401    1.2428    0.8812 H         1 <0>         0.0964
     15 H7          1.8231    1.2523   -0.8987 H         1 <0>         0.0840
     16 H8          0.0021   -0.0041    0.0020 H         1 <0>         0.4111
     17 H9          4.3648    3.4171   -0.7672 H         1 <0>         0.4138
     18 H10         3.2489    6.5366   -1.6412 H         1 <0>         0.4036
     19 N1          0.5385    3.5563   -1.2514 N.4       1 <0>        -0.5070
     20 H11         0.6909    2.8586   -1.9892 H         1 <0>         0.4387
     21 H12        -0.4696    3.6971   -1.1165 H         1 <0>         0.4411
@<TRIPOS>BOND
     1    1    2 1
     2    1   12 1
     3    1   13 1
     4    1   19 1
     5    2    3 1
     6    2    4 1
     7    2   11 1
     8    4    5 1
     9    4    6 1
    10    4   10 1
    11    6    7 1
    12    6    8 1
    13    6   19 1
    14    8    9 1
    15    8   14 1
    16    8   15 1
    17    9   16 1
    18   10   17 1
    19   11   18 1
    20   19   20 1
    21   19   21 1
