@<TRIPOS>MOLECULE
ZINC01714192
   34    36     0     0     0
SMALL
USER_CHARGES
2-(p-tolylsulfonyl)naphthalene-1,4-dione
@<TRIPOS>ATOM
      1 C1          3.1840   -1.9264    5.1868 C.3       1 <0>        -0.1272
      2 C2          3.0843   -1.1707    3.8868 C.ar      1 <0>        -0.0222
      3 C3          2.4979   -1.7651    2.7851 C.ar      1 <0>        -0.1431
      4 C4          2.4065   -1.0720    1.5925 C.ar      1 <0>        -0.0010
      5 C5          2.9006    0.2158    1.5020 C.ar      1 <0>        -0.6673
      6 C6          3.4913    0.8084    2.6023 C.ar      1 <0>        -0.0173
      7 C7          3.5789    0.1169    3.7960 C.ar      1 <0>        -0.1441
      8 S1          2.7840    1.0993   -0.0181 S.o2      1 <0>         2.5800
      9 O1          2.6858    0.1249   -1.0477 O.2       1 <0>        -0.9091
     10 O2          3.8091    2.0832    0.0044 O.2       1 <0>        -0.9263
     11 C8          1.2514    1.9683    0.0007 C.2       1 <0>        -0.6947
     12 C9          1.2516    3.3080    0.0070 C.2       1 <0>         0.0155
     13 C10        -0.0139    4.0660    0.0227 C.2       1 <0>         0.4069
     14 O3          0.0031    5.2807    0.0279 O.2       1 <0>        -0.3934
     15 C11        -1.3031    3.3417    0.0315 C.ar      1 <0>        -0.1301
     16 C12        -2.5092    4.0320    0.0458 C.ar      1 <0>        -0.0614
     17 C13        -3.7045    3.3297    0.0367 C.ar      1 <0>        -0.0967
     18 C14        -3.7047    1.9481    0.0296 C.ar      1 <0>        -0.0924
     19 C15        -2.5097    1.2453    0.0206 C.ar      1 <0>        -0.0635
     20 C16        -1.3034    1.9354    0.0187 C.ar      1 <0>        -0.1170
     21 C17        -0.0144    1.2107    0.0087 C.2       1 <0>         0.4542
     22 O4          0.0021   -0.0041    0.0020 O.2       1 <0>        -0.4073
     23 H1          4.1224   -2.4802    5.2141 H         1 <0>         0.0820
     24 H2          3.1528   -1.2232    6.0191 H         1 <0>         0.0740
     25 H3          2.3489   -2.6222    5.2676 H         1 <0>         0.0743
     26 H4          2.1115   -2.7711    2.8559 H         1 <0>         0.1360
     27 H5          1.9487   -1.5365    0.7317 H         1 <0>         0.1494
     28 H6          3.8813    1.8130    2.5303 H         1 <0>         0.1434
     29 H7          4.0367    0.5814    4.6569 H         1 <0>         0.1357
     30 H8          2.1912    3.8404    0.0002 H         1 <0>         0.1828
     31 H9         -2.5153    5.1120    0.0510 H         1 <0>         0.1467
     32 H10        -4.6418    3.8661    0.0440 H         1 <0>         0.1422
     33 H11        -4.6422    1.4119    0.0314 H         1 <0>         0.1425
     34 H12        -2.5162    0.1653    0.0154 H         1 <0>         0.1484
@<TRIPOS>BOND
     1    1    2 1
     2    1   23 1
     3    1   24 1
     4    1   25 1
     5    2    7 ar
     6    2    3 ar
     7    3    4 ar
     8    3   26 1
     9    4    5 ar
    10    4   27 1
    11    5    6 ar
    12    5    8 1
    13    6    7 ar
    14    6   28 1
    15    7   29 1
    16    8    9 2
    17    8   10 2
    18    8   11 1
    19   11   21 1
    20   11   12 2
    21   12   13 1
    22   12   30 1
    23   13   14 2
    24   13   15 1
    25   15   20 ar
    26   15   16 ar
    27   16   17 ar
    28   16   31 1
    29   17   18 ar
    30   17   32 1
    31   18   19 ar
    32   18   33 1
    33   19   20 ar
    34   19   34 1
    35   20   21 1
    36   21   22 2
